TITL C-2782236-320-42 0.346103075028566 125000 -767.678242128025 0 0 131 (C1) n - 1
REM
REM in /home/nfs/bkarasulu/CARBON/AIRSS/Generating-Clusters/REBO/Higher-Symm/SD-CG/HFTN-CG
REM
REM
REM
REM
REM
REM ./C.cell (12c818d87b63d06a65506943cc24bca4)
REM
REM compiler GCC version 9.2.1 20190827 (Red Hat 9.2.1-1)
REM options -cpp -mtune=generic -march=x86-64 -g -O0 -fpre-include=/usr/include/finclude/math-vector-fortran.h
REM seed 620058601 -2023657243 372407471 868129722 1612514079 365904167 -1388390094 -1443909766 -40863095 535970454 -1315479763 150465242 1242830645 666283568 -1537089282 824003520 534812468 -733670202 1877574205 -406607492 1994261541 -675080199 -1999956139 503617062 1541831569 -1125519801 -2007014777 -1395043047 1806255794 1243010512 -432231562 1083481721 2071818579
REM
CELL 1.54180   50.00000   50.00000   50.00000   90.00000   90.00000   90.00000
LATT -1
SFAC C  
C      1  0.5404510000000  0.5595360000000  0.5879920000000 1.0
C      1  0.4833820000000  0.5043280000000  0.5970190000000 1.0
C      1  0.4639290000000  0.5408340000000  0.4973690000000 1.0
C      1  0.4260390000000  0.4518900000000  0.4760310000000 1.0
C      1  0.4609210000000  0.4953190000000  0.5511160000000 1.0
C      1  0.5321870000000  0.5158690000000  0.5014190000000 1.0
C      1  0.5130390000000  0.4921970000000  0.5167620000000 1.0
C      1  0.5043910000000  0.4303470000000  0.4435630000000 1.0
C      1  0.4132970000000  0.5041870000000  0.4763440000000 1.0
C      1  0.4632240000000  0.5106850000000  0.4855960000000 1.0
C      1  0.5497930000000  0.4826480000000  0.5347730000000 1.0
C      1  0.5675490000000  0.4939460000000  0.5817230000000 1.0
C      1  0.5420910000000  0.4568820000000  0.5558700000000 1.0
C      1  0.4201020000000  0.5209600000000  0.5610950000000 1.0
C      1  0.5263890000000  0.5377020000000  0.5970550000000 1.0
C      1  0.4912980000000  0.5769860000000  0.4637460000000 1.0
C      1  0.5799700000000  0.4675480000000  0.4651680000000 1.0
C      1  0.4826060000000  0.4961770000000  0.5101080000000 1.0
C      1  0.4507940000000  0.4750980000000  0.4723380000000 1.0
C      1  0.5045730000000  0.5745460000000  0.5615120000000 1.0
C      1  0.5136660000000  0.5615460000000  0.4223030000000 1.0
C      1  0.5097320000000  0.4683890000000  0.4805120000000 1.0
C      1  0.5515870000000  0.4780650000000  0.4154000000000 1.0
C      1  0.4687450000000  0.4107820000000  0.4679680000000 1.0
C      1  0.3822350000000  0.5138880000000  0.5321000000000 1.0
C      1  0.4916950000000  0.5585540000000  0.4924160000000 1.0
C      1  0.4704440000000  0.5435910000000  0.4581040000000 1.0
C      1  0.4888440000000  0.5684730000000  0.4332720000000 1.0
C      1  0.5782190000000  0.5573080000000  0.4966630000000 1.0
C      1  0.4723380000000  0.4734320000000  0.4479840000000 1.0
C      1  0.5520770000000  0.5386800000000  0.4854290000000 1.0
C      1  0.5569340000000  0.4384450000000  0.5313540000000 1.0
C      1  0.4975660000000  0.5245890000000  0.4501150000000 1.0
C      1  0.4759780000000  0.4714680000000  0.4149560000000 1.0
C      1  0.4415940000000  0.5000720000000  0.4316410000000 1.0
C      1  0.5957550000000  0.4703970000000  0.5159170000000 1.0
C      1  0.5147920000000  0.5281200000000  0.4765950000000 1.0
C      1  0.5689310000000  0.5341730000000  0.5288500000000 1.0
C      1  0.5326800000000  0.5711040000000  0.5634040000000 1.0
C      1  0.5560360000000  0.4527650000000  0.4563870000000 1.0
C      1  0.5972540000000  0.5388060000000  0.4810750000000 1.0
C      1  0.4585940000000  0.4648930000000  0.5767470000000 1.0
C      1  0.4689140000000  0.5222870000000  0.5230290000000 1.0
C      1  0.4672120000000  0.4714910000000  0.5010540000000 1.0
C      1  0.4851200000000  0.5571450000000  0.5743020000000 1.0
C      1  0.5530690000000  0.5385310000000  0.4511370000000 1.0
C      1  0.5448370000000  0.4533940000000  0.4301640000000 1.0
C      1  0.4359460000000  0.5652600000000  0.5306710000000 1.0
C      1  0.4999590000000  0.5296080000000  0.5466260000000 1.0
C      1  0.5148110000000  0.5628560000000  0.5173810000000 1.0
C      1  0.5199040000000  0.5136700000000  0.5770600000000 1.0
C      1  0.5605010000000  0.5764930000000  0.5123840000000 1.0
C      1  0.5265270000000  0.5578870000000  0.4739000000000 1.0
C      1  0.4214360000000  0.4450570000000  0.5463630000000 1.0
C      1  0.4864890000000  0.4487460000000  0.4947260000000 1.0
C      1  0.5124050000000  0.4424990000000  0.5334040000000 1.0
C      1  0.5799130000000  0.5206700000000  0.4618370000000 1.0
C      1  0.4372400000000  0.4588960000000  0.5073090000000 1.0
C      1  0.4784870000000  0.5227990000000  0.4100140000000 1.0
C      1  0.3811490000000  0.4704970000000  0.4599650000000 1.0
C      1  0.5065890000000  0.6006410000000  0.5075160000000 1.0
C      1  0.5847860000000  0.4915100000000  0.4491440000000 1.0
C      1  0.5272110000000  0.5351100000000  0.4358760000000 1.0
C      1  0.4120630000000  0.5482250000000  0.4913590000000 1.0
C      1  0.5481310000000  0.5823550000000  0.4835620000000 1.0
C      1  0.4567000000000  0.4936990000000  0.5907420000000 1.0
C      1  0.4143710000000  0.5477650000000  0.5201270000000 1.0
C      1  0.5025030000000  0.4818270000000  0.5934920000000 1.0
C      1  0.4376110000000  0.4477780000000  0.4463090000000 1.0
C      1  0.4565500000000  0.5584310000000  0.5569240000000 1.0
C      1  0.4539850000000  0.5713270000000  0.5033850000000 1.0
C      1  0.4598040000000  0.5716410000000  0.4726920000000 1.0
C      1  0.5623770000000  0.4051700000000  0.4608120000000 1.0
C      1  0.5074310000000  0.4731890000000  0.5444770000000 1.0
C      1  0.5819780000000  0.5178140000000  0.5016440000000 1.0
C      1  0.4362500000000  0.5102020000000  0.5800150000000 1.0
C      1  0.5398650000000  0.4927960000000  0.5876020000000 1.0
C      1  0.4873480000000  0.5327430000000  0.5902250000000 1.0
C      1  0.5457320000000  0.5114450000000  0.5290040000000 1.0
C      1  0.4728720000000  0.4376300000000  0.5615450000000 1.0
C      1  0.5686570000000  0.4361070000000  0.5006360000000 1.0
C      1  0.4985070000000  0.4128780000000  0.4678040000000 1.0
C      1  0.4379890000000  0.4697190000000  0.5529930000000 1.0
C      1  0.4311370000000  0.4268690000000  0.4978730000000 1.0
C      1  0.4953410000000  0.5850790000000  0.5337360000000 1.0
C      1  0.5311610000000  0.5297280000000  0.5502150000000 1.0
C      1  0.4600720000000  0.5123200000000  0.4559230000000 1.0
C      1  0.5857180000000  0.4579520000000  0.4921460000000 1.0
C      1  0.4050630000000  0.4832060000000  0.4584410000000 1.0
C      1  0.5059690000000  0.4971590000000  0.4779330000000 1.0
C      1  0.4185820000000  0.4296660000000  0.5272170000000 1.0
C      1  0.4362490000000  0.5325700000000  0.4410370000000 1.0
C      1  0.4939330000000  0.5000420000000  0.5587740000000 1.0
C      1  0.4575110000000  0.4125020000000  0.4944050000000 1.0
C      1  0.5438120000000  0.4887010000000  0.4686370000000 1.0
C      1  0.5503970000000  0.4210300000000  0.4798030000000 1.0
C      1  0.5819640000000  0.4593760000000  0.5386520000000 1.0
C      1  0.5610450000000  0.5679960000000  0.4569140000000 1.0
C      1  0.4399480000000  0.4875490000000  0.5253760000000 1.0
C      1  0.5288650000000  0.4857970000000  0.4473360000000 1.0
C      1  0.6021030000000  0.4977880000000  0.5180580000000 1.0
C      1  0.4909960000000  0.4624760000000  0.5714880000000 1.0
C      1  0.4640620000000  0.4980500000000  0.4110460000000 1.0
C      1  0.5157150000000  0.5889970000000  0.4831630000000 1.0
C      1  0.5209970000000  0.4888780000000  0.4146010000000 1.0
C      1  0.4971880000000  0.4950890000000  0.4390940000000 1.0
C      1  0.5312400000000  0.4236340000000  0.5146840000000 1.0
C      1  0.4662900000000  0.5802860000000  0.5327050000000 1.0
C      1  0.4856010000000  0.4279710000000  0.5376230000000 1.0
C      1  0.4893490000000  0.4512410000000  0.4617640000000 1.0
C      1  0.5295850000000  0.4655350000000  0.5803450000000 1.0
C      1  0.5972310000000  0.5195240000000  0.5382400000000 1.0
C      1  0.5440630000000  0.5576980000000  0.5342360000000 1.0
C      1  0.5743980000000  0.4802530000000  0.5582780000000 1.0
C      1  0.4546120000000  0.4248370000000  0.4466300000000 1.0
C      1  0.4049240000000  0.5278520000000  0.5380330000000 1.0
C      1  0.5024020000000  0.4640670000000  0.4084890000000 1.0
C      1  0.4164410000000  0.5317500000000  0.4683000000000 1.0
C      1  0.4991990000000  0.5342680000000  0.5145040000000 1.0
C      1  0.5761450000000  0.4898010000000  0.4220320000000 1.0
C      1  0.5063250000000  0.5238940000000  0.4112050000000 1.0
C      1  0.5192060000000  0.4145380000000  0.4878500000000 1.0
C      1  0.4665090000000  0.5284910000000  0.5538370000000 1.0
C      1  0.5182570000000  0.4435540000000  0.4231920000000 1.0
C      1  0.5366560000000  0.4522210000000  0.4832470000000 1.0
C      1  0.4264240000000  0.4753280000000  0.4406390000000 1.0
C      1  0.4367100000000  0.4966360000000  0.4951150000000 1.0
C      1  0.5632780000000  0.5006120000000  0.4815270000000 1.0
C      1  0.5310100000000  0.4634060000000  0.5139570000000 1.0
C      1  0.4772510000000  0.4247280000000  0.5108250000000 1.0
C      1  0.4641100000000  0.5460440000000  0.4258730000000 1.0
END
