TITL C-2782233-7966-39 0.000451629696149432 125000 -493.459723662066 0 0 88 (C2) n - 1
REM
REM in /home/nfs/bkarasulu/CARBON/AIRSS/Generating-Clusters/REBO/Higher-Symm/SD-CG/HFTN-CG
REM
REM
REM
REM
REM
REM ./C.cell (12c818d87b63d06a65506943cc24bca4)
REM
REM compiler GCC version 9.2.1 20190827 (Red Hat 9.2.1-1)
REM options -cpp -mtune=generic -march=x86-64 -g -O0 -fpre-include=/usr/include/finclude/math-vector-fortran.h
REM seed 370767111 1672715803 1700361039 -489716408 1795393010 1714996667 -1213014816 -2018199021 -176413154 -654701685 1671572569 -23057640 1294291299 -1104937095 209539574 -929070809 85938354 1941417757 1639019702 1102486517 -1211440491 -529700902 -151152397 1003470700 2064150064 -1582385035 -2082457095 1747821338 58438885 -1204961564 -730197737 775112070 1826903815
REM
CELL 1.54180   50.00000   50.00000   50.00000   90.00000   90.00000   90.00000
LATT -1
SFAC C  
C      1  0.4657230000000  0.5537940000000  0.5701300000000 1.0
C      1  0.4299850000000  0.5532480000000  0.4636100000000 1.0
C      1  0.5342740000000  0.5537970000000  0.4298710000000 1.0
C      1  0.5700130000000  0.5532500000000  0.5363920000000 1.0
C      1  0.5343930000000  0.4484940000000  0.5672460000000 1.0
C      1  0.5752500000000  0.4514200000000  0.4619090000000 1.0
C      1  0.4656090000000  0.4484940000000  0.4327530000000 1.0
C      1  0.4247520000000  0.4514150000000  0.5380890000000 1.0
C      1  0.4631710000000  0.5525090000000  0.5368280000000 1.0
C      1  0.4631880000000  0.5512580000000  0.4616040000000 1.0
C      1  0.5368270000000  0.5525120000000  0.4631730000000 1.0
C      1  0.5368100000000  0.5512580000000  0.5383980000000 1.0
C      1  0.5408230000000  0.4474490000000  0.5348390000000 1.0
C      1  0.5420570000000  0.4491520000000  0.4609520000000 1.0
C      1  0.4591790000000  0.4474480000000  0.4651590000000 1.0
C      1  0.4579450000000  0.4491490000000  0.5390460000000 1.0
C      1  0.4369770000000  0.4968360000000  0.4609840000000 1.0
C      1  0.5403140000000  0.4978110000000  0.4369910000000 1.0
C      1  0.5630230000000  0.4968380000000  0.5390160000000 1.0
C      1  0.4596870000000  0.4978080000000  0.5630090000000 1.0
C      1  0.5643600000000  0.5070100000000  0.4595260000000 1.0
C      1  0.4601450000000  0.5045770000000  0.4369210000000 1.0
C      1  0.4356400000000  0.5070060000000  0.5404740000000 1.0
C      1  0.5398550000000  0.5045760000000  0.5630800000000 1.0
C      1  0.4911950000000  0.5156010000000  0.4282450000000 1.0
C      1  0.5714070000000  0.5172760000000  0.4911730000000 1.0
C      1  0.5088050000000  0.5155990000000  0.5717560000000 1.0
C      1  0.4285920000000  0.5172730000000  0.5088280000000 1.0
C      1  0.5091270000000  0.4865330000000  0.4305830000000 1.0
C      1  0.4282990000000  0.4872070000000  0.4924730000000 1.0
C      1  0.4908740000000  0.4865300000000  0.5694170000000 1.0
C      1  0.5717020000000  0.4872100000000  0.5075270000000 1.0
C      1  0.5754870000000  0.5226310000000  0.5245790000000 1.0
C      1  0.4755760000000  0.5224750000000  0.5755540000000 1.0
C      1  0.4245120000000  0.5226290000000  0.4754220000000 1.0
C      1  0.5244230000000  0.5224780000000  0.4244470000000 1.0
C      1  0.4222050000000  0.4821610000000  0.5257210000000 1.0
C      1  0.5238980000000  0.4791420000000  0.5735760000000 1.0
C      1  0.5777950000000  0.4821650000000  0.4742790000000 1.0
C      1  0.4761030000000  0.4791430000000  0.4264240000000 1.0
C      1  0.4904340000000  0.5089000000000  0.4728130000000 1.0
C      1  0.5256890000000  0.5095970000000  0.4910090000000 1.0
C      1  0.5095650000000  0.5089000000000  0.5271870000000 1.0
C      1  0.4743100000000  0.5095960000000  0.5089910000000 1.0
C      1  0.5106470000000  0.4823450000000  0.4766190000000 1.0
C      1  0.4724590000000  0.4836930000000  0.4875570000000 1.0
C      1  0.4893540000000  0.4823430000000  0.5233810000000 1.0
C      1  0.5275410000000  0.4836940000000  0.5124430000000 1.0
C      1  0.4975190000000  0.4279680000000  0.5198180000000 1.0
C      1  0.4738370000000  0.4277130000000  0.4972870000000 1.0
C      1  0.5024840000000  0.4279690000000  0.4801800000000 1.0
C      1  0.5261660000000  0.4277140000000  0.5027110000000 1.0
C      1  0.5012010000000  0.5646490000000  0.5260770000000 1.0
C      1  0.5199430000000  0.5649530000000  0.4986890000000 1.0
C      1  0.4987960000000  0.5646500000000  0.4739250000000 1.0
C      1  0.4800540000000  0.5649520000000  0.5013130000000 1.0
C      1  0.4749600000000  0.5353020000000  0.4865560000000 1.0
C      1  0.5128550000000  0.5345290000000  0.4738270000000 1.0
C      1  0.5250390000000  0.5353030000000  0.5134450000000 1.0
C      1  0.4871440000000  0.5345280000000  0.5261740000000 1.0
C      1  0.5308150000000  0.4583400000000  0.4897990000000 1.0
C      1  0.4883950000000  0.4570600000000  0.4746340000000 1.0
C      1  0.4691870000000  0.4583390000000  0.5101990000000 1.0
C      1  0.5116070000000  0.4570600000000  0.5253650000000 1.0
C      1  0.4431740000000  0.4719200000000  0.5581120000000 1.0
C      1  0.4429940000000  0.4698140000000  0.4466850000000 1.0
C      1  0.5568270000000  0.4719250000000  0.4418870000000 1.0
C      1  0.5570070000000  0.4698140000000  0.5533150000000 1.0
C      1  0.5549690000000  0.5312910000000  0.5576440000000 1.0
C      1  0.5570340000000  0.5334250000000  0.4448160000000 1.0
C      1  0.4450290000000  0.5312910000000  0.4423570000000 1.0
C      1  0.4429640000000  0.5334200000000  0.5551860000000 1.0
C      1  0.5698450000000  0.5488030000000  0.5027900000000 1.0
C      1  0.4987510000000  0.5479620000000  0.5734350000000 1.0
C      1  0.4301530000000  0.5488000000000  0.4972110000000 1.0
C      1  0.5012470000000  0.5479640000000  0.4265660000000 1.0
C      1  0.4269740000000  0.4556350000000  0.5043660000000 1.0
C      1  0.5010700000000  0.4544110000000  0.5661830000000 1.0
C      1  0.5730280000000  0.4556380000000  0.4956330000000 1.0
C      1  0.4989320000000  0.4544130000000  0.4338160000000 1.0
C      1  0.5505110000000  0.5657870000000  0.4880050000000 1.0
C      1  0.5141260000000  0.5654190000000  0.5545550000000 1.0
C      1  0.4494860000000  0.5657840000000  0.5119970000000 1.0
C      1  0.4858710000000  0.5654200000000  0.4454470000000 1.0
C      1  0.4432090000000  0.4363240000000  0.4892630000000 1.0
C      1  0.4849470000000  0.4375760000000  0.5478220000000 1.0
C      1  0.5567940000000  0.4363260000000  0.5107350000000 1.0
C      1  0.5150560000000  0.4375780000000  0.4521760000000 1.0
END
