TITL C-2782227-3064-278 -0.00074422232014744 125000 -866.340196319641 0 0 153 (C1) n - 1
REM
REM in /home/nfs/bkarasulu/CARBON/AIRSS/Generating-Clusters/REBO/Higher-Symm/SD-CG/HFTN-CG
REM
REM
REM
REM
REM
REM ./C.cell (12c818d87b63d06a65506943cc24bca4)
REM
REM compiler GCC version 9.2.1 20190827 (Red Hat 9.2.1-1)
REM options -cpp -mtune=generic -march=x86-64 -g -O0 -fpre-include=/usr/include/finclude/math-vector-fortran.h
REM seed 1787818224 -1050221866 -1303142230 1984808449 731156044 531303846 -976865319 11119269 -836853154 1077699981 863223095 1798289979 2058934955 1939287552 1024270579 2077939525 436349830 -691092052 256548470 879719148 -948933683 -1672704827 2001788089 -825403736 272353293 1782556042 -1666207976 -1489849451 -893267281 -656612157 -1065108808 2632036 2130894798
REM
CELL 1.54180   50.00000   50.00000   50.00000   90.00000   90.00000   90.00000
LATT -1
SFAC C  
C      1  0.4837610000000  0.5428820000000  0.5652700000000 1.0
C      1  0.4898020000000  0.4145230000000  0.4987900000000 1.0
C      1  0.4853080000000  0.5360080000000  0.4324560000000 1.0
C      1  0.5149660000000  0.5439790000000  0.5763540000000 1.0
C      1  0.5203870000000  0.4084850000000  0.5085370000000 1.0
C      1  0.5167140000000  0.5433740000000  0.4254280000000 1.0
C      1  0.4394320000000  0.4825860000000  0.4153310000000 1.0
C      1  0.4388910000000  0.5827200000000  0.5260430000000 1.0
C      1  0.4422360000000  0.4368200000000  0.5594690000000 1.0
C      1  0.5579750000000  0.4817990000000  0.4156790000000 1.0
C      1  0.5581190000000  0.5826960000000  0.5278200000000 1.0
C      1  0.5610210000000  0.4349110000000  0.5537210000000 1.0
C      1  0.4537190000000  0.5086770000000  0.5217070000000 1.0
C      1  0.4545370000000  0.4781740000000  0.4959040000000 1.0
C      1  0.4533410000000  0.5156640000000  0.4823820000000 1.0
C      1  0.5441640000000  0.5085970000000  0.5211780000000 1.0
C      1  0.5455710000000  0.4775140000000  0.4960840000000 1.0
C      1  0.5441180000000  0.5147420000000  0.4817410000000 1.0
C      1  0.4563520000000  0.5160340000000  0.5517630000000 1.0
C      1  0.4558390000000  0.4493550000000  0.4848050000000 1.0
C      1  0.4577390000000  0.5378120000000  0.4613470000000 1.0
C      1  0.5456650000000  0.5119780000000  0.5520740000000 1.0
C      1  0.5473210000000  0.4484690000000  0.4858750000000 1.0
C      1  0.5469580000000  0.5401110000000  0.4638590000000 1.0
C      1  0.4373760000000  0.4887470000000  0.4690600000000 1.0
C      1  0.4363110000000  0.5327260000000  0.5050250000000 1.0
C      1  0.4377520000000  0.4797290000000  0.5254590000000 1.0
C      1  0.5618450000000  0.4884550000000  0.4693280000000 1.0
C      1  0.5609350000000  0.5334170000000  0.5049610000000 1.0
C      1  0.5625200000000  0.4805140000000  0.5250060000000 1.0
C      1  0.5739740000000  0.4825150000000  0.5566650000000 1.0
C      1  0.5725960000000  0.4587030000000  0.4566520000000 1.0
C      1  0.5730670000000  0.5595680000000  0.4868710000000 1.0
C      1  0.4281690000000  0.4845160000000  0.5577850000000 1.0
C      1  0.4267020000000  0.4589220000000  0.4566070000000 1.0
C      1  0.4263150000000  0.5583180000000  0.4849080000000 1.0
C      1  0.5163480000000  0.4503630000000  0.5768170000000 1.0
C      1  0.5152080000000  0.4551490000000  0.4217440000000 1.0
C      1  0.5154710000000  0.5918480000000  0.5025740000000 1.0
C      1  0.4863500000000  0.4540500000000  0.5747970000000 1.0
C      1  0.4850440000000  0.4576520000000  0.4192560000000 1.0
C      1  0.4851060000000  0.5899260000000  0.5041970000000 1.0
C      1  0.4571230000000  0.5034410000000  0.4019080000000 1.0
C      1  0.4570570000000  0.5841900000000  0.5506780000000 1.0
C      1  0.4552710000000  0.4141030000000  0.5448850000000 1.0
C      1  0.5421350000000  0.5044820000000  0.4029010000000 1.0
C      1  0.5419940000000  0.5822680000000  0.5537410000000 1.0
C      1  0.5393650000000  0.4146650000000  0.5439770000000 1.0
C      1  0.4299800000000  0.4573430000000  0.5737490000000 1.0
C      1  0.4261600000000  0.4600700000000  0.4251390000000 1.0
C      1  0.4257870000000  0.5852940000000  0.5014140000000 1.0
C      1  0.5744120000000  0.4538320000000  0.5696590000000 1.0
C      1  0.5709430000000  0.4590890000000  0.4253160000000 1.0
C      1  0.5711670000000  0.5860760000000  0.5033970000000 1.0
C      1  0.5585930000000  0.5952190000000  0.4770880000000 1.0
C      1  0.5610890000000  0.4700280000000  0.5920310000000 1.0
C      1  0.5585970000000  0.4318700000000  0.4308400000000 1.0
C      1  0.4415590000000  0.5941390000000  0.4770920000000 1.0
C      1  0.4450230000000  0.4757390000000  0.5926600000000 1.0
C      1  0.4406240000000  0.4337380000000  0.4291830000000 1.0
C      1  0.5169050000000  0.5267610000000  0.5498050000000 1.0
C      1  0.5192880000000  0.4411940000000  0.5000790000000 1.0
C      1  0.5179170000000  0.5285890000000  0.4541700000000 1.0
C      1  0.4862250000000  0.5245390000000  0.5384200000000 1.0
C      1  0.4868320000000  0.4460000000000  0.4953730000000 1.0
C      1  0.4865940000000  0.5203080000000  0.4609640000000 1.0
C      1  0.5431420000000  0.5526600000000  0.5271880000000 1.0
C      1  0.5443570000000  0.4519990000000  0.5308620000000 1.0
C      1  0.5427920000000  0.4963430000000  0.4418960000000 1.0
C      1  0.4543050000000  0.5531320000000  0.5258570000000 1.0
C      1  0.4562210000000  0.4515760000000  0.5319320000000 1.0
C      1  0.4555870000000  0.4968330000000  0.4411770000000 1.0
C      1  0.5887910000000  0.5155550000000  0.5127940000000 1.0
C      1  0.5903520000000  0.4821270000000  0.5061260000000 1.0
C      1  0.5895290000000  0.5044200000000  0.4805180000000 1.0
C      1  0.4090980000000  0.5146080000000  0.5135170000000 1.0
C      1  0.4100090000000  0.4813140000000  0.5060450000000 1.0
C      1  0.4097050000000  0.5045020000000  0.4809210000000 1.0
C      1  0.5175440000000  0.4749780000000  0.4503380000000 1.0
C      1  0.5170710000000  0.5571700000000  0.5057120000000 1.0
C      1  0.5185030000000  0.4669590000000  0.5462410000000 1.0
C      1  0.4828100000000  0.4775190000000  0.4477250000000 1.0
C      1  0.4820910000000  0.5553790000000  0.5063710000000 1.0
C      1  0.4833250000000  0.4686290000000  0.5436170000000 1.0
C      1  0.4460150000000  0.5537190000000  0.5590730000000 1.0
C      1  0.4500710000000  0.4229580000000  0.5137990000000 1.0
C      1  0.4476710000000  0.5259080000000  0.4247520000000 1.0
C      1  0.5511190000000  0.5503220000000  0.5605570000000 1.0
C      1  0.5561940000000  0.4236770000000  0.5156440000000 1.0
C      1  0.5525160000000  0.5258560000000  0.4272220000000 1.0
C      1  0.4765580000000  0.4953490000000  0.5639900000000 1.0
C      1  0.4713880000000  0.4472140000000  0.4585430000000 1.0
C      1  0.4720640000000  0.5612900000000  0.4742850000000 1.0
C      1  0.5333060000000  0.4893890000000  0.5671870000000 1.0
C      1  0.5295040000000  0.4447000000000  0.4611030000000 1.0
C      1  0.5279250000000  0.5620170000000  0.4736340000000 1.0
C      1  0.5330760000000  0.4636150000000  0.5972760000000 1.0
C      1  0.5307800000000  0.4298480000000  0.4244500000000 1.0
C      1  0.5306210000000  0.6012060000000  0.4788830000000 1.0
C      1  0.4727890000000  0.4705880000000  0.5948680000000 1.0
C      1  0.4682110000000  0.4332650000000  0.4214920000000 1.0
C      1  0.4691380000000  0.6002610000000  0.4815960000000 1.0
C      1  0.5149670000000  0.5860950000000  0.4552850000000 1.0
C      1  0.5203830000000  0.4928740000000  0.5967320000000 1.0
C      1  0.5143520000000  0.4177900000000  0.4497790000000 1.0
C      1  0.4843640000000  0.5865980000000  0.4578980000000 1.0
C      1  0.4897820000000  0.4973210000000  0.5945850000000 1.0
C      1  0.4837300000000  0.4202360000000  0.4457260000000 1.0
C      1  0.5692430000000  0.5717830000000  0.4551070000000 1.0
C      1  0.5677440000000  0.5023440000000  0.5837690000000 1.0
C      1  0.5683280000000  0.4250060000000  0.4616120000000 1.0
C      1  0.4362180000000  0.5706620000000  0.4544270000000 1.0
C      1  0.4353470000000  0.5056600000000  0.5839270000000 1.0
C      1  0.4345560000000  0.4258170000000  0.4607330000000 1.0
C      1  0.4838170000000  0.5033430000000  0.3965570000000 1.0
C      1  0.4836380000000  0.5886480000000  0.5541760000000 1.0
C      1  0.4803330000000  0.4032900000000  0.5511030000000 1.0
C      1  0.5165100000000  0.5043850000000  0.3915170000000 1.0
C      1  0.5163100000000  0.5924070000000  0.5586710000000 1.0
C      1  0.5131050000000  0.4092700000000  0.5477670000000 1.0
C      1  0.5963600000000  0.5239000000000  0.4611210000000 1.0
C      1  0.5948360000000  0.5224960000000  0.5398310000000 1.0
C      1  0.5972980000000  0.4556540000000  0.4987080000000 1.0
C      1  0.4061490000000  0.5254530000000  0.4615190000000 1.0
C      1  0.4047290000000  0.5210030000000  0.5410040000000 1.0
C      1  0.4058330000000  0.4540990000000  0.4980750000000 1.0
C      1  0.5744820000000  0.5252980000000  0.5593070000000 1.0
C      1  0.5772530000000  0.4368060000000  0.4923050000000 1.0
C      1  0.5758670000000  0.5388100000000  0.4487310000000 1.0
C      1  0.4257220000000  0.5264260000000  0.5592300000000 1.0
C      1  0.4269990000000  0.4360710000000  0.4922800000000 1.0
C      1  0.4271450000000  0.5389870000000  0.4480610000000 1.0
C      1  0.5509540000000  0.5599900000000  0.4289830000000 1.0
C      1  0.5485420000000  0.5297130000000  0.5877590000000 1.0
C      1  0.5507710000000  0.4088530000000  0.4852670000000 1.0
C      1  0.4550560000000  0.5590550000000  0.4285500000000 1.0
C      1  0.4530070000000  0.5344910000000  0.5863550000000 1.0
C      1  0.4544260000000  0.4095440000000  0.4826830000000 1.0
C      1  0.4873450000000  0.5699690000000  0.4302630000000 1.0
C      1  0.4840960000000  0.5285700000000  0.5962790000000 1.0
C      1  0.4850590000000  0.4004620000000  0.4707380000000 1.0
C      1  0.5212040000000  0.5749830000000  0.4263610000000 1.0
C      1  0.5178820000000  0.5247590000000  0.6019310000000 1.0
C      1  0.5192170000000  0.3999190000000  0.4759740000000 1.0
C      1  0.5148180000000  0.4978140000000  0.5310640000000 1.0
C      1  0.5152770000000  0.4722720000000  0.4856290000000 1.0
C      1  0.5146380000000  0.5272820000000  0.4883580000000 1.0
C      1  0.4839410000000  0.4951670000000  0.5212310000000 1.0
C      1  0.4840120000000  0.4775090000000  0.4821980000000 1.0
C      1  0.4831110000000  0.5226520000000  0.4949140000000 1.0
C      1  0.4996140000000  0.5303700000000  0.4020660000000 1.0
C      1  0.4988050000000  0.5713890000000  0.5766180000000 1.0
C      1  0.4954120000000  0.3938120000000  0.5242530000000 1.0
END
