TITL C-2782239-8622-828 -0.000885090626461353 125000 -648.012147169104 0 0 107 (C1) n - 1
REM
REM in /home/nfs/bkarasulu/CARBON/AIRSS/Generating-Clusters/REBO/Higher-Symm/SD-CG/HFTN-CG
REM
REM
REM
REM
REM
REM ./C.cell (12c818d87b63d06a65506943cc24bca4)
REM
REM compiler GCC version 9.2.1 20190827 (Red Hat 9.2.1-1)
REM options -cpp -mtune=generic -march=x86-64 -g -O0 -fpre-include=/usr/include/finclude/math-vector-fortran.h
REM seed -1455445215 -108202752 -1629027871 2057968579 -616058471 -1749889505 685413108 -1290852765 -241398987 -885576744 -1700522715 126111144 1004142135 937373615 1495077747 1773535483 -1629197542 -1809510027 -1820616906 1825040226 903676622 1509610896 208575583 1799058070 -450508831 -1992022852 -1446098286 93702395 1191630763 -1465409355 -606579859 76338569 438590206
REM
CELL 1.54180   50.00000   50.00000   50.00000   90.00000   90.00000   90.00000
LATT -1
SFAC C  
C      1  0.5132850000000  0.4508970000000  0.5202140000000 1.0
C      1  0.5181720000000  0.4981510000000  0.5514860000000 1.0
C      1  0.5186760000000  0.5492320000000  0.5181920000000 1.0
C      1  0.5163720000000  0.5312270000000  0.4537800000000 1.0
C      1  0.5117630000000  0.4636810000000  0.4589280000000 1.0
C      1  0.4832250000000  0.4504830000000  0.5200920000000 1.0
C      1  0.4881870000000  0.5037310000000  0.5542270000000 1.0
C      1  0.4881460000000  0.5541050000000  0.5147080000000 1.0
C      1  0.4859840000000  0.5289490000000  0.4502300000000 1.0
C      1  0.4815840000000  0.4644960000000  0.4542930000000 1.0
C      1  0.5617340000000  0.5243830000000  0.4343070000000 1.0
C      1  0.5692080000000  0.4371790000000  0.4543360000000 1.0
C      1  0.5716540000000  0.4406600000000  0.5413010000000 1.0
C      1  0.5669390000000  0.5212570000000  0.5720100000000 1.0
C      1  0.5678600000000  0.5727750000000  0.5053280000000 1.0
C      1  0.4369530000000  0.5246720000000  0.4274560000000 1.0
C      1  0.4367180000000  0.4443350000000  0.4476550000000 1.0
C      1  0.4390750000000  0.4371200000000  0.5393490000000 1.0
C      1  0.4380220000000  0.5182970000000  0.5726300000000 1.0
C      1  0.4368830000000  0.5736660000000  0.5056360000000 1.0
C      1  0.4209320000000  0.4901040000000  0.4534910000000 1.0
C      1  0.4138970000000  0.4711690000000  0.5093770000000 1.0
C      1  0.4130010000000  0.4904570000000  0.5372020000000 1.0
C      1  0.4148160000000  0.5329630000000  0.5252810000000 1.0
C      1  0.4130320000000  0.5171010000000  0.4732580000000 1.0
C      1  0.5855960000000  0.4821800000000  0.4700700000000 1.0
C      1  0.5885030000000  0.4678220000000  0.5003590000000 1.0
C      1  0.5884200000000  0.4970700000000  0.5331480000000 1.0
C      1  0.5896330000000  0.5293790000000  0.5227260000000 1.0
C      1  0.5876290000000  0.5302310000000  0.4770130000000 1.0
C      1  0.4324150000000  0.4918120000000  0.5635680000000 1.0
C      1  0.4310620000000  0.5589160000000  0.5294660000000 1.0
C      1  0.4295740000000  0.5383260000000  0.4518560000000 1.0
C      1  0.4301470000000  0.4695880000000  0.4351370000000 1.0
C      1  0.4300230000000  0.4412190000000  0.5124110000000 1.0
C      1  0.5718490000000  0.4954280000000  0.5608400000000 1.0
C      1  0.5703310000000  0.5550290000000  0.5273130000000 1.0
C      1  0.5700970000000  0.5439560000000  0.4540950000000 1.0
C      1  0.5722440000000  0.4644760000000  0.4464570000000 1.0
C      1  0.5738270000000  0.4402740000000  0.5129260000000 1.0
C      1  0.4844640000000  0.5757750000000  0.4916230000000 1.0
C      1  0.4837880000000  0.5124120000000  0.4233590000000 1.0
C      1  0.4871100000000  0.4325090000000  0.4612050000000 1.0
C      1  0.4900640000000  0.4430850000000  0.5517180000000 1.0
C      1  0.4851230000000  0.5313530000000  0.5703740000000 1.0
C      1  0.5174960000000  0.5770500000000  0.5002430000000 1.0
C      1  0.5146630000000  0.5121230000000  0.4280000000000 1.0
C      1  0.5210360000000  0.4325350000000  0.4584870000000 1.0
C      1  0.5236280000000  0.4385620000000  0.5482530000000 1.0
C      1  0.5182010000000  0.5237320000000  0.5714660000000 1.0
C      1  0.5498540000000  0.4500100000000  0.5569300000000 1.0
C      1  0.5443820000000  0.5379530000000  0.5664540000000 1.0
C      1  0.5465130000000  0.5766520000000  0.4871140000000 1.0
C      1  0.5433310000000  0.5033770000000  0.4271770000000 1.0
C      1  0.5477130000000  0.4276230000000  0.4705680000000 1.0
C      1  0.4595080000000  0.4476870000000  0.5560230000000 1.0
C      1  0.4574000000000  0.5389440000000  0.5691170000000 1.0
C      1  0.4557390000000  0.5744440000000  0.4842870000000 1.0
C      1  0.4567580000000  0.5067870000000  0.4169350000000 1.0
C      1  0.4558340000000  0.4323120000000  0.4651890000000 1.0
C      1  0.5283760000000  0.5243060000000  0.5096070000000 1.0
C      1  0.5251450000000  0.5174850000000  0.4779690000000 1.0
C      1  0.5226020000000  0.4839560000000  0.4763750000000 1.0
C      1  0.5252310000000  0.4730750000000  0.5065610000000 1.0
C      1  0.5288280000000  0.4972080000000  0.5257390000000 1.0
C      1  0.4763560000000  0.5278760000000  0.5082520000000 1.0
C      1  0.4760680000000  0.5172600000000  0.4759120000000 1.0
C      1  0.4753780000000  0.4843890000000  0.4754920000000 1.0
C      1  0.4741700000000  0.4752350000000  0.5082380000000 1.0
C      1  0.4753100000000  0.5016040000000  0.5277110000000 1.0
C      1  0.4445380000000  0.4932190000000  0.4730920000000 1.0
C      1  0.4436680000000  0.4753790000000  0.4976770000000 1.0
C      1  0.4430610000000  0.4933640000000  0.5251540000000 1.0
C      1  0.4442190000000  0.5236330000000  0.5161280000000 1.0
C      1  0.4443130000000  0.5233320000000  0.4852660000000 1.0
C      1  0.5539810000000  0.4917510000000  0.4689710000000 1.0
C      1  0.5556440000000  0.4696590000000  0.4932910000000 1.0
C      1  0.5598150000000  0.4855950000000  0.5218290000000 1.0
C      1  0.5604600000000  0.5184310000000  0.5145560000000 1.0
C      1  0.5578300000000  0.5197810000000  0.4832740000000 1.0
C      1  0.4752480000000  0.4247060000000  0.5067680000000 1.0
C      1  0.4783470000000  0.4849790000000  0.5768370000000 1.0
C      1  0.4775820000000  0.5692870000000  0.5395620000000 1.0
C      1  0.4752740000000  0.5570610000000  0.4461040000000 1.0
C      1  0.4770140000000  0.4651280000000  0.4239010000000 1.0
C      1  0.5266130000000  0.4221640000000  0.5156960000000 1.0
C      1  0.5265790000000  0.4887280000000  0.5809570000000 1.0
C      1  0.5249760000000  0.5759870000000  0.5360270000000 1.0
C      1  0.5238730000000  0.5599400000000  0.4492610000000 1.0
C      1  0.5257820000000  0.4574680000000  0.4311840000000 1.0
C      1  0.4521390000000  0.4784710000000  0.4179660000000 1.0
C      1  0.4496960000000  0.4296770000000  0.4934770000000 1.0
C      1  0.4537310000000  0.4728380000000  0.5688320000000 1.0
C      1  0.4526440000000  0.5589850000000  0.5491050000000 1.0
C      1  0.4497570000000  0.5594530000000  0.4598260000000 1.0
C      1  0.5500220000000  0.4752650000000  0.4310550000000 1.0
C      1  0.5518010000000  0.4268120000000  0.4990260000000 1.0
C      1  0.5520780000000  0.4760110000000  0.5683980000000 1.0
C      1  0.5485360000000  0.5570570000000  0.5457180000000 1.0
C      1  0.5493110000000  0.5645090000000  0.4613150000000 1.0
C      1  0.4990760000000  0.5832000000000  0.5503310000000 1.0
C      1  0.5006230000000  0.4787110000000  0.5928070000000 1.0
C      1  0.4989900000000  0.5738600000000  0.4437130000000 1.0
C      1  0.5019790000000  0.4591260000000  0.4119490000000 1.0
C      1  0.4986130000000  0.4090310000000  0.5058510000000 1.0
C      1  0.5935430000000  0.5033620000000  0.4980530000000 1.0
C      1  0.4102710000000  0.5054370000000  0.5054510000000 1.0
END
