TITL C-2782238-9940-852 -0.00167824461355266 125000 -665.987902784188 0 0 112 (C1) n - 1
REM
REM in /home/nfs/bkarasulu/CARBON/AIRSS/Generating-Clusters/REBO/Higher-Symm/SD-CG/HFTN-CG
REM
REM
REM
REM
REM
REM ./C.cell (12c818d87b63d06a65506943cc24bca4)
REM
REM compiler GCC version 9.2.1 20190827 (Red Hat 9.2.1-1)
REM options -cpp -mtune=generic -march=x86-64 -g -O0 -fpre-include=/usr/include/finclude/math-vector-fortran.h
REM seed -270640316 -1630621208 1755962283 -1512203101 1245279611 2002692689 260449871 290460204 483861788 1694976865 1037672442 1432902913 -882769592 1472823957 1659218837 -132989270 -1988235200 -1583698005 -383273035 -1888400922 -1937898065 -25284647 -1331115980 1255019672 1636807387 -973056300 -1918059844 2035791184 871087166 1694180658 1431106888 1649894572 -146997840
REM
CELL 1.54180   50.00000   50.00000   50.00000   90.00000   90.00000   90.00000
LATT -1
SFAC C  
C      1  0.5220320000000  0.4603980000000  0.5787970000000 1.0
C      1  0.5364430000000  0.4798320000000  0.5150290000000 1.0
C      1  0.4162850000000  0.5102910000000  0.4955010000000 1.0
C      1  0.5244210000000  0.5795050000000  0.5593330000000 1.0
C      1  0.5270960000000  0.4044090000000  0.4824180000000 1.0
C      1  0.5491080000000  0.4978720000000  0.4739740000000 1.0
C      1  0.4274920000000  0.4411970000000  0.5086040000000 1.0
C      1  0.5234940000000  0.5715310000000  0.5297690000000 1.0
C      1  0.4354370000000  0.4710170000000  0.4681250000000 1.0
C      1  0.4153640000000  0.4619750000000  0.4912300000000 1.0
C      1  0.5351890000000  0.5508920000000  0.4308180000000 1.0
C      1  0.4430800000000  0.4905920000000  0.4955250000000 1.0
C      1  0.4821640000000  0.4557160000000  0.5111540000000 1.0
C      1  0.5404020000000  0.5379750000000  0.5805390000000 1.0
C      1  0.5344460000000  0.4138230000000  0.5290880000000 1.0
C      1  0.5203170000000  0.4427270000000  0.5308750000000 1.0
C      1  0.4176830000000  0.5202350000000  0.4657140000000 1.0
C      1  0.5197650000000  0.4749860000000  0.5417610000000 1.0
C      1  0.4160090000000  0.5338950000000  0.5158630000000 1.0
C      1  0.4190420000000  0.4981400000000  0.5524320000000 1.0
C      1  0.5708930000000  0.4363730000000  0.4590050000000 1.0
C      1  0.5466460000000  0.5578510000000  0.5597040000000 1.0
C      1  0.4170890000000  0.5250580000000  0.5418550000000 1.0
C      1  0.5828480000000  0.5101650000000  0.4915770000000 1.0
C      1  0.5914900000000  0.4869440000000  0.4465550000000 1.0
C      1  0.4624440000000  0.5381860000000  0.5627450000000 1.0
C      1  0.4999860000000  0.4535640000000  0.4254640000000 1.0
C      1  0.5276290000000  0.5124330000000  0.5838060000000 1.0
C      1  0.4860530000000  0.4228160000000  0.5414050000000 1.0
C      1  0.5699360000000  0.4316270000000  0.4932000000000 1.0
C      1  0.4773520000000  0.4995670000000  0.5346880000000 1.0
C      1  0.4979460000000  0.5907210000000  0.5010820000000 1.0
C      1  0.4486430000000  0.4890160000000  0.4186030000000 1.0
C      1  0.4882390000000  0.4271960000000  0.5129000000000 1.0
C      1  0.4832390000000  0.5217290000000  0.5505510000000 1.0
C      1  0.4853000000000  0.5337420000000  0.4506410000000 1.0
C      1  0.5701010000000  0.5169240000000  0.5373140000000 1.0
C      1  0.4382160000000  0.4833500000000  0.5698900000000 1.0
C      1  0.5207480000000  0.5770350000000  0.4904700000000 1.0
C      1  0.4583580000000  0.5741340000000  0.5284910000000 1.0
C      1  0.5043160000000  0.4117150000000  0.4955590000000 1.0
C      1  0.5312480000000  0.4439860000000  0.4985670000000 1.0
C      1  0.4464700000000  0.5326920000000  0.4601620000000 1.0
C      1  0.5035020000000  0.5283770000000  0.4765700000000 1.0
C      1  0.4052440000000  0.4833700000000  0.5062320000000 1.0
C      1  0.5660140000000  0.4848190000000  0.5640670000000 1.0
C      1  0.5282370000000  0.4630410000000  0.4254840000000 1.0
C      1  0.4681680000000  0.4695570000000  0.4918790000000 1.0
C      1  0.5510680000000  0.4128340000000  0.4737750000000 1.0
C      1  0.4966470000000  0.5666360000000  0.5585220000000 1.0
C      1  0.5355210000000  0.4946910000000  0.5585250000000 1.0
C      1  0.4458750000000  0.4271520000000  0.4909520000000 1.0
C      1  0.4745590000000  0.4642460000000  0.4639030000000 1.0
C      1  0.5355760000000  0.4928730000000  0.4207010000000 1.0
C      1  0.4718710000000  0.4499450000000  0.5563550000000 1.0
C      1  0.5505150000000  0.5216110000000  0.4264650000000 1.0
C      1  0.5375610000000  0.5223050000000  0.5439190000000 1.0
C      1  0.4510560000000  0.5914120000000  0.4835260000000 1.0
C      1  0.5128710000000  0.5161420000000  0.4146140000000 1.0
C      1  0.5404320000000  0.5253000000000  0.4938430000000 1.0
C      1  0.4350090000000  0.4959920000000  0.4491810000000 1.0
C      1  0.4515270000000  0.5258320000000  0.5856250000000 1.0
C      1  0.5561550000000  0.4600840000000  0.5348970000000 1.0
C      1  0.4888350000000  0.4720420000000  0.5375700000000 1.0
C      1  0.5436050000000  0.4509820000000  0.4489430000000 1.0
C      1  0.5751180000000  0.5369660000000  0.5098520000000 1.0
C      1  0.5202380000000  0.4411680000000  0.4684220000000 1.0
C      1  0.5602810000000  0.5417990000000  0.4504970000000 1.0
C      1  0.4255280000000  0.4524370000000  0.5362370000000 1.0
C      1  0.5509000000000  0.4643370000000  0.4793640000000 1.0
C      1  0.4193970000000  0.5486300000000  0.4847770000000 1.0
C      1  0.4496740000000  0.5175060000000  0.4102540000000 1.0
C      1  0.5146130000000  0.5568670000000  0.4717450000000 1.0
C      1  0.5777400000000  0.5058000000000  0.4610140000000 1.0
C      1  0.4697290000000  0.5897980000000  0.5050670000000 1.0
C      1  0.4658020000000  0.5092480000000  0.4481990000000 1.0
C      1  0.5177100000000  0.5027190000000  0.4699840000000 1.0
C      1  0.4589420000000  0.5439490000000  0.4853690000000 1.0
C      1  0.5804490000000  0.4843060000000  0.5347380000000 1.0
C      1  0.5176690000000  0.4818490000000  0.4926780000000 1.0
C      1  0.4790860000000  0.5270250000000  0.4950060000000 1.0
C      1  0.5084500000000  0.5386410000000  0.5468350000000 1.0
C      1  0.4681170000000  0.5054160000000  0.5091490000000 1.0
C      1  0.5831100000000  0.4607150000000  0.4879800000000 1.0
C      1  0.4093330000000  0.4776880000000  0.5338390000000 1.0
C      1  0.4438160000000  0.5593530000000  0.5062500000000 1.0
C      1  0.5102000000000  0.4946460000000  0.4419810000000 1.0
C      1  0.4738070000000  0.4706410000000  0.4157430000000 1.0
C      1  0.5924750000000  0.4615400000000  0.4565460000000 1.0
C      1  0.5263510000000  0.5397290000000  0.5178610000000 1.0
C      1  0.5486620000000  0.4583850000000  0.5681990000000 1.0
C      1  0.5597280000000  0.5553550000000  0.5333940000000 1.0
C      1  0.5044500000000  0.4436710000000  0.5610360000000 1.0
C      1  0.4991670000000  0.4365080000000  0.4500870000000 1.0
C      1  0.5903490000000  0.4839790000000  0.5057620000000 1.0
C      1  0.5630790000000  0.5421150000000  0.4781920000000 1.0
C      1  0.4820490000000  0.4844360000000  0.4433560000000 1.0
C      1  0.4963520000000  0.5371950000000  0.4189100000000 1.0
C      1  0.4678700000000  0.5659470000000  0.5541760000000 1.0
C      1  0.4825110000000  0.4887880000000  0.5926140000000 1.0
C      1  0.5107480000000  0.4858960000000  0.5885790000000 1.0
C      1  0.4436470000000  0.4572660000000  0.5584390000000 1.0
C      1  0.5466940000000  0.5726280000000  0.5078170000000 1.0
C      1  0.4478580000000  0.5396100000000  0.4275160000000 1.0
C      1  0.4522880000000  0.4425020000000  0.4671620000000 1.0
C      1  0.5127810000000  0.5631500000000  0.4441060000000 1.0
C      1  0.4798370000000  0.5624180000000  0.4349260000000 1.0
C      1  0.4371000000000  0.5722780000000  0.4676250000000 1.0
C      1  0.5537170000000  0.5036010000000  0.5126020000000 1.0
C      1  0.4558800000000  0.4976280000000  0.5871260000000 1.0
C      1  0.5575510000000  0.4328190000000  0.5207940000000 1.0
C      1  0.4488420000000  0.5679790000000  0.4418620000000 1.0
END
