TITL C-2782226-7400-1321 0.000175047272490764 125000 -231.490889260222 0 0 38 (C1) n - 1
REM
REM in /home/nfs/bkarasulu/CARBON/AIRSS/Generating-Clusters/REBO/Higher-Symm/SD-CG/HFTN-CG
REM
REM
REM
REM
REM
REM ./C.cell (12c818d87b63d06a65506943cc24bca4)
REM
REM compiler GCC version 9.2.1 20190827 (Red Hat 9.2.1-1)
REM options -cpp -mtune=generic -march=x86-64 -g -O0 -fpre-include=/usr/include/finclude/math-vector-fortran.h
REM seed -330884751 -1939319198 723547142 1690558287 -40725272 184941662 1054086695 -28930023 -292444234 1324394394 231658747 98344897 360735304 313547572 -1327952595 1858574091 659934663 -1670487726 -1692787351 576310524 903338385 -906506269 -1683566351 146095963 -905354970 877338642 1388904535 -978187189 -1764986926 1827994094 -651328215 -925575595 875255244
REM
CELL 1.54180   50.00000   50.00000   50.00000   90.00000   90.00000   90.00000
LATT -1
SFAC C  
C      1  0.4753430000000  0.5453020000000  0.5107960000000 1.0
C      1  0.4787440000000  0.5139990000000  0.5351840000000 1.0
C      1  0.4767210000000  0.4409460000000  0.5140270000000 1.0
C      1  0.4760440000000  0.4713210000000  0.4587310000000 1.0
C      1  0.4783620000000  0.5295880000000  0.4742070000000 1.0
C      1  0.5261730000000  0.4539660000000  0.5159380000000 1.0
C      1  0.5235360000000  0.4966640000000  0.5413530000000 1.0
C      1  0.5254230000000  0.5583880000000  0.5168400000000 1.0
C      1  0.5273160000000  0.5383270000000  0.4548880000000 1.0
C      1  0.5251860000000  0.4693070000000  0.4603840000000 1.0
C      1  0.5661110000000  0.5243090000000  0.5074440000000 1.0
C      1  0.5686920000000  0.5003420000000  0.5243380000000 1.0
C      1  0.5700100000000  0.4765560000000  0.5067200000000 1.0
C      1  0.5687430000000  0.4863950000000  0.4790150000000 1.0
C      1  0.5671040000000  0.5156550000000  0.4795020000000 1.0
C      1  0.4359090000000  0.4765600000000  0.5073560000000 1.0
C      1  0.4334580000000  0.5007170000000  0.5241850000000 1.0
C      1  0.4298750000000  0.5243340000000  0.5068130000000 1.0
C      1  0.4314980000000  0.5147160000000  0.4791260000000 1.0
C      1  0.4329320000000  0.4853630000000  0.4794490000000 1.0
C      1  0.4534220000000  0.5050300000000  0.5438420000000 1.0
C      1  0.4534790000000  0.4549060000000  0.5127840000000 1.0
C      1  0.4489880000000  0.4726290000000  0.4600120000000 1.0
C      1  0.4518810000000  0.5280540000000  0.4642750000000 1.0
C      1  0.4468630000000  0.5470390000000  0.5127850000000 1.0
C      1  0.5512490000000  0.4989120000000  0.5467540000000 1.0
C      1  0.5493800000000  0.5460380000000  0.5144240000000 1.0
C      1  0.5524990000000  0.5303630000000  0.4604850000000 1.0
C      1  0.5521410000000  0.4723340000000  0.4609740000000 1.0
C      1  0.5546380000000  0.4530840000000  0.5133880000000 1.0
C      1  0.4983530000000  0.5607070000000  0.5159220000000 1.0
C      1  0.5010020000000  0.5381780000000  0.4604030000000 1.0
C      1  0.5037590000000  0.4364220000000  0.5144160000000 1.0
C      1  0.5004330000000  0.4766760000000  0.4715350000000 1.0
C      1  0.5022760000000  0.5127080000000  0.5506210000000 1.0
C      1  0.5169180000000  0.4813340000000  0.5177430000000 1.0
C      1  0.4838630000000  0.5146480000000  0.5024670000000 1.0
C      1  0.5004720000000  0.4902810000000  0.4967700000000 1.0
END
