TITL C-2782235-7892-1370 -2.02274670462469e-07 125000 -64.5114695751828 0 0 11 (Cs) n - 1
REM
REM in /home/nfs/bkarasulu/CARBON/AIRSS/Generating-Clusters/REBO/Higher-Symm/SD-CG/HFTN-CG
REM
REM
REM
REM
REM
REM ./C.cell (12c818d87b63d06a65506943cc24bca4)
REM
REM compiler GCC version 9.2.1 20190827 (Red Hat 9.2.1-1)
REM options -cpp -mtune=generic -march=x86-64 -g -O0 -fpre-include=/usr/include/finclude/math-vector-fortran.h
REM seed -1120242158 -444437521 -1728892222 885490804 -1915797552 1126105681 1996731827 -643689082 310073447 -520756853 -1632463077 1803374464 -88782071 -1017719506 194549766 -1075427234 659597598 1280798623 158532394 -1687214077 1732218503 -2112182104 -1339677745 455552754 1720828616 445727448 73364762 -1496459919 -648411860 2066903037 -1637807675 785357460 532169262
REM
CELL 1.54180   50.00000   50.00000   50.00000   90.00000   90.00000   90.00000
LATT -1
SFAC C  
C      1  0.5000000000000  0.4837810000000  0.4549650000000 1.0
C      1  0.5000000000000  0.5107030000000  0.4533460000000 1.0
C      1  0.5000000000000  0.5342270000000  0.4665390000000 1.0
C      1  0.5000000000000  0.5468840000000  0.4903550000000 1.0
C      1  0.5000000000000  0.5446560000000  0.5172340000000 1.0
C      1  0.5000000000000  0.5282500000000  0.5386410000000 1.0
C      1  0.5000000000000  0.5028740000000  0.5477800000000 1.0
C      1  0.5000000000000  0.4765860000000  0.5417490000000 1.0
C      1  0.5000000000000  0.4577320000000  0.5224630000000 1.0
C      1  0.5000000000000  0.4522980000000  0.4960450000000 1.0
C      1  0.5000000000000  0.4620080000000  0.4708830000000 1.0
END
