TITL C-2782235-7892-701 -0.0010409474582761 125000 -263.756241100757 0 0 45 (C1) n - 1
REM
REM in /home/nfs/bkarasulu/CARBON/AIRSS/Generating-Clusters/REBO/Higher-Symm/SD-CG/HFTN-CG
REM
REM
REM
REM
REM
REM ./C.cell (12c818d87b63d06a65506943cc24bca4)
REM
REM compiler GCC version 9.2.1 20190827 (Red Hat 9.2.1-1)
REM options -cpp -mtune=generic -march=x86-64 -g -O0 -fpre-include=/usr/include/finclude/math-vector-fortran.h
REM seed -1557998144 -189911431 1372879954 -949343399 1016336489 -760272355 -2030961165 2110475699 -1605257623 -391594495 -1651819083 -1885153068 1460838346 927350152 651532373 1522805621 -1556343337 766201539 1931651818 899221637 980316738 1173532524 -547668373 -869303797 149434293 -1655096247 -1345773759 284906100 -1779734433 -658448750 -100942121 960574425 860512368
REM
CELL 1.54180   50.00000   50.00000   50.00000   90.00000   90.00000   90.00000
LATT -1
SFAC C  
C      1  0.5434790000000  0.5325560000000  0.4732340000000 1.0
C      1  0.4917320000000  0.4623140000000  0.5534600000000 1.0
C      1  0.4374650000000  0.5172700000000  0.4863740000000 1.0
C      1  0.5495800000000  0.5040790000000  0.4705900000000 1.0
C      1  0.4911080000000  0.4998670000000  0.4189550000000 1.0
C      1  0.4461810000000  0.5417970000000  0.5012860000000 1.0
C      1  0.5475330000000  0.5042290000000  0.5197580000000 1.0
C      1  0.4275950000000  0.4961160000000  0.5055540000000 1.0
C      1  0.4547190000000  0.5093320000000  0.4649780000000 1.0
C      1  0.5248880000000  0.5363480000000  0.5260990000000 1.0
C      1  0.4924790000000  0.5231730000000  0.5833300000000 1.0
C      1  0.4593530000000  0.4370400000000  0.4830390000000 1.0
C      1  0.4352910000000  0.5219450000000  0.5260260000000 1.0
C      1  0.5088670000000  0.4510780000000  0.5354150000000 1.0
C      1  0.4528930000000  0.4943990000000  0.5362300000000 1.0
C      1  0.4465120000000  0.4737600000000  0.5121340000000 1.0
C      1  0.4832710000000  0.5120260000000  0.4701760000000 1.0
C      1  0.5356870000000  0.4443740000000  0.4910780000000 1.0
C      1  0.4733850000000  0.4826170000000  0.5574920000000 1.0
C      1  0.4474750000000  0.5002790000000  0.4389940000000 1.0
C      1  0.5393550000000  0.4850940000000  0.4516180000000 1.0
C      1  0.4989130000000  0.5152230000000  0.4464290000000 1.0
C      1  0.4729420000000  0.5509000000000  0.5055060000000 1.0
C      1  0.4728150000000  0.5104170000000  0.5674510000000 1.0
C      1  0.5127070000000  0.4548310000000  0.5077100000000 1.0
C      1  0.5163320000000  0.5416710000000  0.4731970000000 1.0
C      1  0.5397150000000  0.4167100000000  0.4926970000000 1.0
C      1  0.4653120000000  0.4600930000000  0.4962120000000 1.0
C      1  0.4599890000000  0.5287340000000  0.5464340000000 1.0
C      1  0.4936490000000  0.5493560000000  0.4861110000000 1.0
C      1  0.5514320000000  0.4907310000000  0.5438400000000 1.0
C      1  0.5545920000000  0.5373740000000  0.5195140000000 1.0
C      1  0.4633450000000  0.4952520000000  0.4168930000000 1.0
C      1  0.5690150000000  0.4443490000000  0.4690300000000 1.0
C      1  0.4922110000000  0.4709870000000  0.4958190000000 1.0
C      1  0.5082410000000  0.5428550000000  0.5717840000000 1.0
C      1  0.5601900000000  0.5458340000000  0.4927690000000 1.0
C      1  0.4965220000000  0.4995640000000  0.4932830000000 1.0
C      1  0.5057490000000  0.5477610000000  0.5437190000000 1.0
C      1  0.5586800000000  0.4913660000000  0.4946160000000 1.0
C      1  0.4793510000000  0.5474780000000  0.5332620000000 1.0
C      1  0.5412420000000  0.4581280000000  0.4602930000000 1.0
C      1  0.5201270000000  0.4952730000000  0.4337200000000 1.0
C      1  0.5627050000000  0.4639360000000  0.4934330000000 1.0
C      1  0.5153800000000  0.5114820000000  0.5104590000000 1.0
END
