TITL C-2782239-8622-1135 -0.0436235361246999 125000 -580.320299226424 0 0 104 (C1) n - 1
REM
REM in /home/nfs/bkarasulu/CARBON/AIRSS/Generating-Clusters/REBO/Higher-Symm/SD-CG/HFTN-CG
REM
REM
REM
REM
REM
REM ./C.cell (12c818d87b63d06a65506943cc24bca4)
REM
REM compiler GCC version 9.2.1 20190827 (Red Hat 9.2.1-1)
REM options -cpp -mtune=generic -march=x86-64 -g -O0 -fpre-include=/usr/include/finclude/math-vector-fortran.h
REM seed -1044979171 -1252159838 81430708 -1303589912 -547257622 -180282814 983447828 -720227939 1909335185 1156438509 685817996 -1937337447 -1089591301 1293019259 180828022 1763574039 1548505612 -842992031 1091718371 801242435 -1966585234 1677394752 -1584207820 -643783934 -2141102332 2030850524 2041574069 2135729405 757605016 451122946 -182417862 -1210661203 -871405633
REM
CELL 1.54180   50.00000   50.00000   50.00000   90.00000   90.00000   90.00000
LATT -1
SFAC C  
C      1  0.4666320000000  0.4755790000000  0.5326200000000 1.0
C      1  0.4824690000000  0.5236960000000  0.5274680000000 1.0
C      1  0.5234960000000  0.5320340000000  0.5289830000000 1.0
C      1  0.5393340000000  0.4893660000000  0.5296460000000 1.0
C      1  0.4999200000000  0.4688730000000  0.5291960000000 1.0
C      1  0.4257260000000  0.4777410000000  0.5581420000000 1.0
C      1  0.4597010000000  0.5593520000000  0.5583220000000 1.0
C      1  0.5462090000000  0.5627410000000  0.5600000000000 1.0
C      1  0.5750090000000  0.4759100000000  0.5612490000000 1.0
C      1  0.5040380000000  0.4292070000000  0.5608220000000 1.0
C      1  0.4119280000000  0.4906370000000  0.5128160000000 1.0
C      1  0.4586910000000  0.5793560000000  0.5134770000000 1.0
C      1  0.5608640000000  0.5621970000000  0.5133020000000 1.0
C      1  0.5827600000000  0.4615670000000  0.5150010000000 1.0
C      1  0.4842000000000  0.4213130000000  0.5149390000000 1.0
C      1  0.5587340000000  0.4916680000000  0.5045010000000 1.0
C      1  0.5132020000000  0.4425270000000  0.5114870000000 1.0
C      1  0.4464400000000  0.4651990000000  0.5067510000000 1.0
C      1  0.4657530000000  0.5333670000000  0.4994470000000 1.0
C      1  0.5228410000000  0.5532180000000  0.5027120000000 1.0
C      1  0.4617990000000  0.4695060000000  0.4640490000000 1.0
C      1  0.4491900000000  0.5278420000000  0.4619560000000 1.0
C      1  0.5126560000000  0.5581580000000  0.4601510000000 1.0
C      1  0.5458390000000  0.5034990000000  0.4685950000000 1.0
C      1  0.5169910000000  0.4559320000000  0.4657690000000 1.0
C      1  0.5193880000000  0.4786310000000  0.5781290000000 1.0
C      1  0.4855960000000  0.4760590000000  0.5798620000000 1.0
C      1  0.4730940000000  0.5061950000000  0.5776250000000 1.0
C      1  0.4994930000000  0.5273520000000  0.5776210000000 1.0
C      1  0.5281280000000  0.5104150000000  0.5777360000000 1.0
C      1  0.4533150000000  0.5286900000000  0.4319760000000 1.0
C      1  0.5113260000000  0.5524140000000  0.4306900000000 1.0
C      1  0.5471300000000  0.5033660000000  0.4375600000000 1.0
C      1  0.5152510000000  0.4545910000000  0.4344330000000 1.0
C      1  0.4585990000000  0.4702100000000  0.4339010000000 1.0
C      1  0.4750250000000  0.4239260000000  0.4743400000000 1.0
C      1  0.4139270000000  0.4933240000000  0.4704880000000 1.0
C      1  0.4684830000000  0.5794560000000  0.4665710000000 1.0
C      1  0.5654830000000  0.5476750000000  0.4674640000000 1.0
C      1  0.5691310000000  0.4523590000000  0.4668220000000 1.0
C      1  0.5429120000000  0.4568910000000  0.5365370000000 1.0
C      1  0.4612420000000  0.4360840000000  0.5294920000000 1.0
C      1  0.4466680000000  0.5003560000000  0.5298050000000 1.0
C      1  0.4871590000000  0.5563130000000  0.5294330000000 1.0
C      1  0.5563810000000  0.5310420000000  0.5378850000000 1.0
C      1  0.5361910000000  0.4106750000000  0.5255980000000 1.0
C      1  0.4167050000000  0.4441040000000  0.5241570000000 1.0
C      1  0.4285570000000  0.5441300000000  0.5271060000000 1.0
C      1  0.5222210000000  0.5870150000000  0.5274540000000 1.0
C      1  0.5944210000000  0.5057320000000  0.5293680000000 1.0
C      1  0.5014290000000  0.5750010000000  0.5436760000000 1.0
C      1  0.5807750000000  0.5238130000000  0.5472110000000 1.0
C      1  0.5415170000000  0.4315110000000  0.5470730000000 1.0
C      1  0.4369670000000  0.4313600000000  0.5389750000000 1.0
C      1  0.4335550000000  0.5204880000000  0.5433370000000 1.0
C      1  0.4857460000000  0.5672420000000  0.5004240000000 1.0
C      1  0.5553470000000  0.5311350000000  0.5049460000000 1.0
C      1  0.5513130000000  0.4528290000000  0.5058200000000 1.0
C      1  0.4758960000000  0.4522710000000  0.5023790000000 1.0
C      1  0.4395060000000  0.5036910000000  0.4994280000000 1.0
C      1  0.5459080000000  0.4373810000000  0.4694630000000 1.0
C      1  0.4522200000000  0.4405870000000  0.4728320000000 1.0
C      1  0.4187530000000  0.5201130000000  0.4697070000000 1.0
C      1  0.4958850000000  0.5851140000000  0.4665460000000 1.0
C      1  0.5724900000000  0.5210420000000  0.4706340000000 1.0
C      1  0.4739230000000  0.5319040000000  0.5578390000000 1.0
C      1  0.5257470000000  0.5391140000000  0.5613880000000 1.0
C      1  0.5464610000000  0.4880220000000  0.5611480000000 1.0
C      1  0.5030120000000  0.4577610000000  0.5592090000000 1.0
C      1  0.4566610000000  0.4808290000000  0.5631740000000 1.0
C      1  0.4123990000000  0.4709000000000  0.5333390000000 1.0
C      1  0.4448150000000  0.5661820000000  0.5347610000000 1.0
C      1  0.5475940000000  0.5761110000000  0.5343560000000 1.0
C      1  0.5900400000000  0.4782820000000  0.5366780000000 1.0
C      1  0.5071310000000  0.4149200000000  0.5352480000000 1.0
C      1  0.5127600000000  0.5852030000000  0.4961470000000 1.0
C      1  0.5837620000000  0.5129330000000  0.5002020000000 1.0
C      1  0.5412290000000  0.4234480000000  0.4978560000000 1.0
C      1  0.4249560000000  0.4414380000000  0.4932290000000 1.0
C      1  0.4317470000000  0.5355670000000  0.4971080000000 1.0
C      1  0.5410440000000  0.5570510000000  0.4741210000000 1.0
C      1  0.5795950000000  0.4716090000000  0.4851430000000 1.0
C      1  0.5015510000000  0.4304900000000  0.4809970000000 1.0
C      1  0.4254300000000  0.4716430000000  0.4804380000000 1.0
C      1  0.4565640000000  0.5564700000000  0.4752710000000 1.0
C      1  0.4791130000000  0.5313330000000  0.4202380000000 1.0
C      1  0.5217970000000  0.5285860000000  0.4199270000000 1.0
C      1  0.5309510000000  0.4881350000000  0.4199350000000 1.0
C      1  0.4950950000000  0.4669100000000  0.4185340000000 1.0
C      1  0.4644870000000  0.4932540000000  0.4178210000000 1.0
C      1  0.4871200000000  0.5600980000000  0.4158550000000 1.0
C      1  0.5522940000000  0.5286940000000  0.4231340000000 1.0
C      1  0.5404600000000  0.4590450000000  0.4188230000000 1.0
C      1  0.4704870000000  0.4485410000000  0.4166760000000 1.0
C      1  0.4389550000000  0.5098830000000  0.4136680000000 1.0
C      1  0.4626070000000  0.5004590000000  0.4772890000000 1.0
C      1  0.4927630000000  0.5408430000000  0.4798960000000 1.0
C      1  0.5261310000000  0.5213700000000  0.4899150000000 1.0
C      1  0.5399080000000  0.4747340000000  0.4824340000000 1.0
C      1  0.4915230000000  0.4734300000000  0.4806470000000 1.0
C      1  0.5083710000000  0.5017320000000  0.5254890000000 1.0
C      1  0.5011930000000  0.4969220000000  0.4499330000000 1.0
C      1  0.4951390000000  0.5071430000000  0.4861040000000 1.0
C      1  0.4984730000000  0.5022880000000  0.4180810000000 1.0
END
