TITL C-2782233-7966-1192 -7.78545553256782e-05 125000 -390.155816653881 0 0 68 (C1) n - 1
REM
REM in /home/nfs/bkarasulu/CARBON/AIRSS/Generating-Clusters/REBO/Higher-Symm/SD-CG/HFTN-CG
REM
REM
REM
REM
REM
REM ./C.cell (12c818d87b63d06a65506943cc24bca4)
REM
REM compiler GCC version 9.2.1 20190827 (Red Hat 9.2.1-1)
REM options -cpp -mtune=generic -march=x86-64 -g -O0 -fpre-include=/usr/include/finclude/math-vector-fortran.h
REM seed 1856249248 -123395989 -1498592866 2005953396 2109760312 298357420 556673454 -147746881 -582035800 -1193859166 866263810 -314263036 607413769 -627970208 1594609296 980576938 1836874644 -66418600 -1236866586 1873424122 -1673402218 -689210562 895209647 -1655276462 -265148056 1310038405 -1913526254 -2004317073 1971590264 1856772414 -456091961 601018932 -563155541
REM
CELL 1.54180   50.00000   50.00000   50.00000   90.00000   90.00000   90.00000
LATT -1
SFAC C  
C      1  0.5400360000000  0.5774190000000  0.5286000000000 1.0
C      1  0.5067610000000  0.4365330000000  0.4980850000000 1.0
C      1  0.5475130000000  0.5481880000000  0.4910830000000 1.0
C      1  0.5253210000000  0.5399560000000  0.4420030000000 1.0
C      1  0.4835540000000  0.5091510000000  0.5561900000000 1.0
C      1  0.4998130000000  0.4826050000000  0.4503630000000 1.0
C      1  0.5529210000000  0.5542310000000  0.5177990000000 1.0
C      1  0.4873250000000  0.4559100000000  0.5515450000000 1.0
C      1  0.5446350000000  0.5189670000000  0.5552680000000 1.0
C      1  0.4150880000000  0.4947950000000  0.4506870000000 1.0
C      1  0.4604470000000  0.5118460000000  0.4345770000000 1.0
C      1  0.4299770000000  0.5022850000000  0.5410730000000 1.0
C      1  0.5541650000000  0.4928230000000  0.5588290000000 1.0
C      1  0.4792190000000  0.5205890000000  0.5131650000000 1.0
C      1  0.4720130000000  0.5533910000000  0.5056690000000 1.0
C      1  0.5760140000000  0.4699060000000  0.4742210000000 1.0
C      1  0.4508120000000  0.4407840000000  0.5052970000000 1.0
C      1  0.4851650000000  0.5247250000000  0.4482480000000 1.0
C      1  0.5226580000000  0.5090950000000  0.5233630000000 1.0
C      1  0.4321070000000  0.4458840000000  0.4772790000000 1.0
C      1  0.5598790000000  0.5312420000000  0.5337560000000 1.0
C      1  0.4820720000000  0.4597950000000  0.4916660000000 1.0
C      1  0.4336780000000  0.5161490000000  0.4476820000000 1.0
C      1  0.5111660000000  0.4733330000000  0.4802070000000 1.0
C      1  0.5380000000000  0.4420780000000  0.5031550000000 1.0
C      1  0.5053420000000  0.5521190000000  0.5499230000000 1.0
C      1  0.4643640000000  0.4820650000000  0.4329820000000 1.0
C      1  0.4312500000000  0.4728680000000  0.4985330000000 1.0
C      1  0.5055920000000  0.4582900000000  0.5236730000000 1.0
C      1  0.4259950000000  0.4989500000000  0.5128360000000 1.0
C      1  0.5463200000000  0.4504320000000  0.5304950000000 1.0
C      1  0.5079840000000  0.5533570000000  0.4884230000000 1.0
C      1  0.5054360000000  0.4862070000000  0.5101910000000 1.0
C      1  0.5372020000000  0.4506900000000  0.4518440000000 1.0
C      1  0.4635090000000  0.5284330000000  0.5639310000000 1.0
C      1  0.4616750000000  0.4718200000000  0.5144300000000 1.0
C      1  0.4951870000000  0.5753110000000  0.5098920000000 1.0
C      1  0.5309440000000  0.5542270000000  0.4645270000000 1.0
C      1  0.5065210000000  0.5381630000000  0.5188230000000 1.0
C      1  0.4634260000000  0.4649170000000  0.5577060000000 1.0
C      1  0.5116920000000  0.5760900000000  0.5333360000000 1.0
C      1  0.4726590000000  0.4949630000000  0.5310920000000 1.0
C      1  0.5080690000000  0.5228920000000  0.4737240000000 1.0
C      1  0.4414800000000  0.4806570000000  0.5554500000000 1.0
C      1  0.5391780000000  0.5187240000000  0.4809740000000 1.0
C      1  0.5129120000000  0.5086260000000  0.4368090000000 1.0
C      1  0.4179030000000  0.4739150000000  0.4672400000000 1.0
C      1  0.5201100000000  0.4490120000000  0.5523680000000 1.0
C      1  0.4361020000000  0.5212910000000  0.4992310000000 1.0
C      1  0.4416270000000  0.5294480000000  0.5452980000000 1.0
C      1  0.4956230000000  0.4328870000000  0.4660980000000 1.0
C      1  0.5585470000000  0.5105480000000  0.4584570000000 1.0
C      1  0.5812420000000  0.4980570000000  0.4713360000000 1.0
C      1  0.4642090000000  0.4366610000000  0.4740510000000 1.0
C      1  0.5476890000000  0.4638190000000  0.5618300000000 1.0
C      1  0.4529110000000  0.5179380000000  0.4733860000000 1.0
C      1  0.5892050000000  0.5106460000000  0.4959130000000 1.0
C      1  0.4702480000000  0.4894960000000  0.4659950000000 1.0
C      1  0.5094730000000  0.4507190000000  0.4474880000000 1.0
C      1  0.5605940000000  0.4806720000000  0.5281320000000 1.0
C      1  0.4739210000000  0.5422940000000  0.4751430000000 1.0
C      1  0.4875360000000  0.5042800000000  0.4879540000000 1.0
C      1  0.5442740000000  0.4653290000000  0.4816570000000 1.0
C      1  0.4453670000000  0.5410080000000  0.5182790000000 1.0
C      1  0.5747360000000  0.5101820000000  0.5202630000000 1.0
C      1  0.5127630000000  0.5206350000000  0.5539050000000 1.0
C      1  0.5451710000000  0.5060810000000  0.4350540000000 1.0
C      1  0.5436740000000  0.4936010000000  0.5015150000000 1.0
END
