TITL C-2782227-3064-1071 0.00567064232284919 125000 -838.583647818233 0 0 149 (C1) n - 1
REM
REM in /home/nfs/bkarasulu/CARBON/AIRSS/Generating-Clusters/REBO/Higher-Symm/SD-CG/HFTN-CG
REM
REM
REM
REM
REM
REM ./C.cell (12c818d87b63d06a65506943cc24bca4)
REM
REM compiler GCC version 9.2.1 20190827 (Red Hat 9.2.1-1)
REM options -cpp -mtune=generic -march=x86-64 -g -O0 -fpre-include=/usr/include/finclude/math-vector-fortran.h
REM seed 1502600317 1152855261 -1026884614 1706743012 -924493548 183519678 2093615016 1441160344 -1266342524 -892298892 -696169454 -204134760 -778891372 -2062991579 397138572 219158944 1306579762 -1385289935 -516916486 278126350 -950217901 -1645864581 -1256947076 -1553373962 -1111827364 970017832 1594330642 -375136978 560306859 -877688314 -1909101167 318064827 1686983337
REM
CELL 1.54180   50.00000   50.00000   50.00000   90.00000   90.00000   90.00000
LATT -1
SFAC C  
C      1  0.4930470000000  0.4998480000000  0.4013430000000 1.0
C      1  0.4913020000000  0.4162440000000  0.4643150000000 1.0
C      1  0.4888570000000  0.4444570000000  0.5713420000000 1.0
C      1  0.4956340000000  0.5515620000000  0.5768350000000 1.0
C      1  0.4831170000000  0.5908100000000  0.4683330000000 1.0
C      1  0.5102140000000  0.5021760000000  0.5986060000000 1.0
C      1  0.5052050000000  0.4111510000000  0.5296300000000 1.0
C      1  0.5136230000000  0.4372970000000  0.4188950000000 1.0
C      1  0.5060430000000  0.5545110000000  0.4241360000000 1.0
C      1  0.5114280000000  0.5857360000000  0.5317790000000 1.0
C      1  0.4921050000000  0.5898770000000  0.5526140000000 1.0
C      1  0.4882040000000  0.5758850000000  0.4316820000000 1.0
C      1  0.4962320000000  0.4537320000000  0.4025680000000 1.0
C      1  0.4895280000000  0.4018870000000  0.5079790000000 1.0
C      1  0.4925010000000  0.4796420000000  0.6010280000000 1.0
C      1  0.5056910000000  0.5937470000000  0.4493420000000 1.0
C      1  0.5116710000000  0.5749930000000  0.5701410000000 1.0
C      1  0.5064390000000  0.4573810000000  0.5892830000000 1.0
C      1  0.5059540000000  0.4032920000000  0.4849700000000 1.0
C      1  0.5114950000000  0.4780330000000  0.3967650000000 1.0
C      1  0.5114480000000  0.4702720000000  0.5468330000000 1.0
C      1  0.5176970000000  0.5387590000000  0.5461050000000 1.0
C      1  0.5132620000000  0.5558300000000  0.4814680000000 1.0
C      1  0.5185920000000  0.4969990000000  0.4410060000000 1.0
C      1  0.5130120000000  0.4440730000000  0.4833620000000 1.0
C      1  0.4861260000000  0.4683830000000  0.4478480000000 1.0
C      1  0.4840900000000  0.5357350000000  0.4517910000000 1.0
C      1  0.4760930000000  0.5548030000000  0.5173500000000 1.0
C      1  0.4853150000000  0.4985360000000  0.5589840000000 1.0
C      1  0.4854270000000  0.4420150000000  0.5120770000000 1.0
C      1  0.5891440000000  0.4704790000000  0.4737260000000 1.0
C      1  0.5837030000000  0.4801910000000  0.5284430000000 1.0
C      1  0.5868640000000  0.5141040000000  0.5235630000000 1.0
C      1  0.5769300000000  0.5395120000000  0.5049380000000 1.0
C      1  0.5905510000000  0.5018160000000  0.4663530000000 1.0
C      1  0.4075580000000  0.4691900000000  0.5098170000000 1.0
C      1  0.4100200000000  0.4705460000000  0.4787680000000 1.0
C      1  0.4116630000000  0.5024740000000  0.4720250000000 1.0
C      1  0.4206000000000  0.5324480000000  0.5045760000000 1.0
C      1  0.4152450000000  0.5116200000000  0.5361460000000 1.0
C      1  0.5379030000000  0.5288140000000  0.5939420000000 1.0
C      1  0.5301780000000  0.6036730000000  0.5019200000000 1.0
C      1  0.5333700000000  0.5320580000000  0.4096570000000 1.0
C      1  0.5347750000000  0.4185770000000  0.4382320000000 1.0
C      1  0.5251940000000  0.4171460000000  0.5565350000000 1.0
C      1  0.4657050000000  0.5256950000000  0.4080220000000 1.0
C      1  0.4681620000000  0.5955730000000  0.4981240000000 1.0
C      1  0.4701400000000  0.5342750000000  0.5994620000000 1.0
C      1  0.4659710000000  0.4234590000000  0.5573490000000 1.0
C      1  0.4728500000000  0.4121370000000  0.4372030000000 1.0
C      1  0.4437520000000  0.5303700000000  0.4801680000000 1.0
C      1  0.4435120000000  0.4913460000000  0.4721120000000 1.0
C      1  0.4459590000000  0.4613490000000  0.5022220000000 1.0
C      1  0.4434150000000  0.4927360000000  0.5411800000000 1.0
C      1  0.4486300000000  0.5257570000000  0.5195100000000 1.0
C      1  0.5531220000000  0.5394580000000  0.5280350000000 1.0
C      1  0.5532060000000  0.4942410000000  0.5315660000000 1.0
C      1  0.5489270000000  0.4557780000000  0.4959840000000 1.0
C      1  0.5495740000000  0.4848880000000  0.4687480000000 1.0
C      1  0.5571900000000  0.5391830000000  0.4798460000000 1.0
C      1  0.5382480000000  0.4108690000000  0.5250950000000 1.0
C      1  0.5422410000000  0.4949080000000  0.5909530000000 1.0
C      1  0.5419870000000  0.5914150000000  0.5316730000000 1.0
C      1  0.5388530000000  0.5593880000000  0.4296360000000 1.0
C      1  0.5440670000000  0.4489570000000  0.4239450000000 1.0
C      1  0.4584560000000  0.4137720000000  0.4686680000000 1.0
C      1  0.4611140000000  0.4917930000000  0.4089970000000 1.0
C      1  0.4509900000000  0.5841490000000  0.4696460000000 1.0
C      1  0.4618430000000  0.5551260000000  0.5736130000000 1.0
C      1  0.4571060000000  0.4531180000000  0.5730790000000 1.0
C      1  0.5278650000000  0.5225090000000  0.5191720000000 1.0
C      1  0.5276870000000  0.5282360000000  0.4879230000000 1.0
C      1  0.5225860000000  0.5011750000000  0.4735640000000 1.0
C      1  0.5208320000000  0.4749020000000  0.4946390000000 1.0
C      1  0.5223080000000  0.4891480000000  0.5228360000000 1.0
C      1  0.4728060000000  0.5182130000000  0.4756140000000 1.0
C      1  0.4772630000000  0.5235880000000  0.5061280000000 1.0
C      1  0.4754820000000  0.4973400000000  0.5276720000000 1.0
C      1  0.4765090000000  0.4740850000000  0.5050550000000 1.0
C      1  0.4762750000000  0.4859770000000  0.4732030000000 1.0
C      1  0.4510290000000  0.5856010000000  0.5215260000000 1.0
C      1  0.4488510000000  0.5381630000000  0.4292460000000 1.0
C      1  0.4544450000000  0.4373530000000  0.4256810000000 1.0
C      1  0.4474340000000  0.4237190000000  0.5319060000000 1.0
C      1  0.4507320000000  0.5117260000000  0.5905840000000 1.0
C      1  0.5479370000000  0.5902060000000  0.4807080000000 1.0
C      1  0.5542970000000  0.5423830000000  0.5724940000000 1.0
C      1  0.5460350000000  0.4421210000000  0.5632680000000 1.0
C      1  0.5520420000000  0.4185660000000  0.4648670000000 1.0
C      1  0.5508540000000  0.5090210000000  0.4186660000000 1.0
C      1  0.5778200000000  0.4386690000000  0.5689750000000 1.0
C      1  0.5756370000000  0.5547250000000  0.5499090000000 1.0
C      1  0.5659340000000  0.5674770000000  0.4628200000000 1.0
C      1  0.5650470000000  0.4879590000000  0.4414250000000 1.0
C      1  0.5686870000000  0.4280210000000  0.4934150000000 1.0
C      1  0.4288660000000  0.4432190000000  0.4348610000000 1.0
C      1  0.4299970000000  0.5490930000000  0.4553610000000 1.0
C      1  0.4199800000000  0.5935410000000  0.5275880000000 1.0
C      1  0.4312840000000  0.4898740000000  0.5732330000000 1.0
C      1  0.4282310000000  0.4319910000000  0.5046890000000 1.0
C      1  0.4849880000000  0.5313160000000  0.5520500000000 1.0
C      1  0.4794190000000  0.5601920000000  0.4833270000000 1.0
C      1  0.4876360000000  0.5064070000000  0.4347490000000 1.0
C      1  0.4811150000000  0.4463890000000  0.4715140000000 1.0
C      1  0.4804540000000  0.4569520000000  0.5409840000000 1.0
C      1  0.5172930000000  0.5304060000000  0.4460400000000 1.0
C      1  0.5048240000000  0.5679940000000  0.5117880000000 1.0
C      1  0.5161420000000  0.5109810000000  0.5657950000000 1.0
C      1  0.5156350000000  0.4434960000000  0.5280540000000 1.0
C      1  0.5143070000000  0.4506540000000  0.4502400000000 1.0
C      1  0.5288480000000  0.5751640000000  0.4581650000000 1.0
C      1  0.5351580000000  0.4796600000000  0.4168770000000 1.0
C      1  0.5321380000000  0.4171620000000  0.4921120000000 1.0
C      1  0.5313600000000  0.4672460000000  0.5743780000000 1.0
C      1  0.5373950000000  0.5655150000000  0.5541570000000 1.0
C      1  0.4674510000000  0.5727290000000  0.5450660000000 1.0
C      1  0.4674710000000  0.4833260000000  0.5834550000000 1.0
C      1  0.4634750000000  0.4176920000000  0.5023930000000 1.0
C      1  0.4716900000000  0.4622600000000  0.4195850000000 1.0
C      1  0.4643570000000  0.5631420000000  0.4463950000000 1.0
C      1  0.4246140000000  0.4530220000000  0.4615520000000 1.0
C      1  0.4229280000000  0.4485900000000  0.5320760000000 1.0
C      1  0.4303980000000  0.5221290000000  0.5649100000000 1.0
C      1  0.4243000000000  0.5650340000000  0.5135540000000 1.0
C      1  0.4274000000000  0.5170060000000  0.4463970000000 1.0
C      1  0.5707740000000  0.4543310000000  0.5417070000000 1.0
C      1  0.5737080000000  0.4458550000000  0.4663750000000 1.0
C      1  0.5762910000000  0.5181830000000  0.4401260000000 1.0
C      1  0.5732090000000  0.5722590000000  0.4952820000000 1.0
C      1  0.5760400000000  0.5216590000000  0.5549130000000 1.0
C      1  0.4528470000000  0.5356690000000  0.5470250000000 1.0
C      1  0.4461390000000  0.5601200000000  0.4911640000000 1.0
C      1  0.4553890000000  0.4995680000000  0.4413620000000 1.0
C      1  0.4500750000000  0.4446110000000  0.4760340000000 1.0
C      1  0.4482380000000  0.4619000000000  0.5434210000000 1.0
C      1  0.5508750000000  0.5353020000000  0.4488170000000 1.0
C      1  0.5643500000000  0.5714710000000  0.5252390000000 1.0
C      1  0.5487900000000  0.5048730000000  0.5600340000000 1.0
C      1  0.5491540000000  0.4413320000000  0.5234500000000 1.0
C      1  0.5458860000000  0.4567070000000  0.4555640000000 1.0
C      1  0.5006170000000  0.6066260000000  0.4997060000000 1.0
C      1  0.4942280000000  0.4064270000000  0.5663840000000 1.0
C      1  0.4994480000000  0.5308810000000  0.4041840000000 1.0
C      1  0.5054140000000  0.4022450000000  0.4316640000000 1.0
C      1  0.5045080000000  0.5335230000000  0.6008660000000 1.0
C      1  0.5961760000000  0.4922130000000  0.4989380000000 1.0
C      1  0.4037450000000  0.5028680000000  0.5053410000000 1.0
C      1  0.4424830000000  0.4950110000000  0.5056070000000 1.0
C      1  0.5583980000000  0.4869020000000  0.4992940000000 1.0
END
