TITL C-2782227-3064-715 0.0730001117474541 125000 -594.100154613237 0 0 105 (C1) n - 1
REM
REM in /home/nfs/bkarasulu/CARBON/AIRSS/Generating-Clusters/REBO/Higher-Symm/SD-CG/HFTN-CG
REM
REM
REM
REM
REM
REM ./C.cell (12c818d87b63d06a65506943cc24bca4)
REM
REM compiler GCC version 9.2.1 20190827 (Red Hat 9.2.1-1)
REM options -cpp -mtune=generic -march=x86-64 -g -O0 -fpre-include=/usr/include/finclude/math-vector-fortran.h
REM seed 1787245278 -598137647 23279510 -1999950706 -232285470 -1959225112 959944998 808583373 1049490423 1672954248 855760926 1772299634 147011027 1297264622 1011764203 1768649640 1893606087 61241327 1533314599 2051050397 -1851244337 1011118258 1408272100 655170183 -1107662883 -1737572919 -1222407289 577876729 474684817 -495323422 -834291107 515803252 -1893677754
REM
CELL 1.54180   50.00000   50.00000   50.00000   90.00000   90.00000   90.00000
LATT -1
SFAC C  
C      1  0.5535050000000  0.5397960000000  0.4659010000000 1.0
C      1  0.4451940000000  0.5429340000000  0.5360580000000 1.0
C      1  0.4625690000000  0.5369420000000  0.4204410000000 1.0
C      1  0.5342960000000  0.5384700000000  0.5777710000000 1.0
C      1  0.5262500000000  0.5537200000000  0.4345060000000 1.0
C      1  0.4714460000000  0.5553930000000  0.5670480000000 1.0
C      1  0.5914810000000  0.5203610000000  0.4906300000000 1.0
C      1  0.4085160000000  0.5216570000000  0.5106680000000 1.0
C      1  0.5372680000000  0.4908010000000  0.4557150000000 1.0
C      1  0.4620930000000  0.4954570000000  0.5477640000000 1.0
C      1  0.5284480000000  0.5714050000000  0.4572120000000 1.0
C      1  0.4701220000000  0.5731650000000  0.5440070000000 1.0
C      1  0.4655090000000  0.4613480000000  0.4627590000000 1.0
C      1  0.5340390000000  0.4621200000000  0.5285080000000 1.0
C      1  0.5785780000000  0.4842800000000  0.5253590000000 1.0
C      1  0.4238580000000  0.4862400000000  0.4757500000000 1.0
C      1  0.4871600000000  0.5876550000000  0.5224240000000 1.0
C      1  0.5128180000000  0.5868990000000  0.4790700000000 1.0
C      1  0.5216230000000  0.4571320000000  0.5772390000000 1.0
C      1  0.4909050000000  0.4681810000000  0.4080890000000 1.0
C      1  0.4880840000000  0.4919690000000  0.5677610000000 1.0
C      1  0.5164250000000  0.4877110000000  0.4318860000000 1.0
C      1  0.5142650000000  0.5094490000000  0.5391930000000 1.0
C      1  0.4885370000000  0.5084250000000  0.4572360000000 1.0
C      1  0.4998850000000  0.4797080000000  0.4706480000000 1.0
C      1  0.5030100000000  0.4845400000000  0.5184750000000 1.0
C      1  0.5629990000000  0.4468250000000  0.4785120000000 1.0
C      1  0.4384340000000  0.4488160000000  0.5231480000000 1.0
C      1  0.5170030000000  0.5883370000000  0.5109640000000 1.0
C      1  0.4831060000000  0.5882060000000  0.4905290000000 1.0
C      1  0.4808540000000  0.4126430000000  0.4860460000000 1.0
C      1  0.5188420000000  0.4220720000000  0.5216030000000 1.0
C      1  0.4734660000000  0.5436060000000  0.4969420000000 1.0
C      1  0.5254510000000  0.5441560000000  0.5049000000000 1.0
C      1  0.5290450000000  0.5560080000000  0.5491100000000 1.0
C      1  0.4714230000000  0.5556420000000  0.4537260000000 1.0
C      1  0.4976860000000  0.5369400000000  0.4568370000000 1.0
C      1  0.5027270000000  0.5371860000000  0.5423830000000 1.0
C      1  0.5103270000000  0.4299420000000  0.4834330000000 1.0
C      1  0.4882730000000  0.4365390000000  0.5167470000000 1.0
C      1  0.5314860000000  0.4425440000000  0.4378560000000 1.0
C      1  0.4729320000000  0.4472240000000  0.5637650000000 1.0
C      1  0.5366410000000  0.5760670000000  0.5260040000000 1.0
C      1  0.4635100000000  0.5756960000000  0.4755220000000 1.0
C      1  0.5408920000000  0.4279180000000  0.4966240000000 1.0
C      1  0.4594900000000  0.4286280000000  0.5052600000000 1.0
C      1  0.4321760000000  0.4401920000000  0.4919740000000 1.0
C      1  0.5696370000000  0.4377530000000  0.5091330000000 1.0
C      1  0.5270560000000  0.5006150000000  0.5676500000000 1.0
C      1  0.4791230000000  0.5010910000000  0.4266940000000 1.0
C      1  0.4135310000000  0.4923710000000  0.5013860000000 1.0
C      1  0.5892250000000  0.4905230000000  0.4997650000000 1.0
C      1  0.5647430000000  0.5066610000000  0.5404380000000 1.0
C      1  0.4365790000000  0.5053650000000  0.4582090000000 1.0
C      1  0.5194290000000  0.5028070000000  0.4818040000000 1.0
C      1  0.4785990000000  0.5044880000000  0.5218010000000 1.0
C      1  0.5884030000000  0.5033130000000  0.4623100000000 1.0
C      1  0.4115730000000  0.5047740000000  0.5389830000000 1.0
C      1  0.4384710000000  0.5180840000000  0.5484140000000 1.0
C      1  0.5601930000000  0.5148040000000  0.4542390000000 1.0
C      1  0.4397260000000  0.5089480000000  0.5797730000000 1.0
C      1  0.5587880000000  0.5062750000000  0.4227370000000 1.0
C      1  0.4187180000000  0.4734190000000  0.5292020000000 1.0
C      1  0.5836470000000  0.4714420000000  0.4721210000000 1.0
C      1  0.5744660000000  0.4809700000000  0.4398240000000 1.0
C      1  0.4263140000000  0.4830220000000  0.5617460000000 1.0
C      1  0.5070200000000  0.5174980000000  0.4231540000000 1.0
C      1  0.5024900000000  0.5156200000000  0.5851780000000 1.0
C      1  0.4888560000000  0.4629630000000  0.5826470000000 1.0
C      1  0.5202810000000  0.4714500000000  0.4020920000000 1.0
C      1  0.5165070000000  0.4590430000000  0.5004280000000 1.0
C      1  0.4837270000000  0.4584990000000  0.4910500000000 1.0
C      1  0.4754940000000  0.5364580000000  0.5294990000000 1.0
C      1  0.5232160000000  0.5349260000000  0.4724300000000 1.0
C      1  0.4512160000000  0.4632850000000  0.5497510000000 1.0
C      1  0.5507020000000  0.4610010000000  0.4525350000000 1.0
C      1  0.5557100000000  0.5344730000000  0.5513060000000 1.0
C      1  0.4448240000000  0.5348400000000  0.4495300000000 1.0
C      1  0.5453640000000  0.5650500000000  0.4860970000000 1.0
C      1  0.4543870000000  0.5665610000000  0.5143890000000 1.0
C      1  0.4913340000000  0.4658610000000  0.4407450000000 1.0
C      1  0.5083730000000  0.4712610000000  0.5491480000000 1.0
C      1  0.5338190000000  0.5116250000000  0.5987460000000 1.0
C      1  0.4575510000000  0.5194100000000  0.3987940000000 1.0
C      1  0.5722930000000  0.5444020000000  0.4932930000000 1.0
C      1  0.4270050000000  0.5460830000000  0.5080930000000 1.0
C      1  0.4437270000000  0.5483480000000  0.4807350000000 1.0
C      1  0.5554770000000  0.5482270000000  0.5206530000000 1.0
C      1  0.5403040000000  0.4791180000000  0.5904670000000 1.0
C      1  0.4701110000000  0.4902630000000  0.3979770000000 1.0
C      1  0.5006690000000  0.5457080000000  0.5747500000000 1.0
C      1  0.4946220000000  0.5479170000000  0.4243790000000 1.0
C      1  0.4827850000000  0.3830160000000  0.4924570000000 1.0
C      1  0.5158890000000  0.3911510000000  0.5231400000000 1.0
C      1  0.4619430000000  0.4906220000000  0.4514180000000 1.0
C      1  0.5400210000000  0.4930700000000  0.5310160000000 1.0
C      1  0.4356280000000  0.4599700000000  0.4722000000000 1.0
C      1  0.5651360000000  0.4589470000000  0.5277260000000 1.0
C      1  0.4843300000000  0.4201340000000  0.4548690000000 1.0
C      1  0.5203400000000  0.4336180000000  0.5537520000000 1.0
C      1  0.4527080000000  0.5369370000000  0.5804710000000 1.0
C      1  0.5439230000000  0.5332380000000  0.4228670000000 1.0
C      1  0.5105630000000  0.4316260000000  0.4501430000000 1.0
C      1  0.4903040000000  0.4329620000000  0.5471230000000 1.0
C      1  0.4996550000000  0.5221880000000  0.5015560000000 1.0
END
