TITL C-2782230-7391-1384 0.0180923364985119 125000 -903.832476782741 0 0 169 (C1) n - 1
REM
REM in /home/nfs/bkarasulu/CARBON/AIRSS/Generating-Clusters/REBO/Higher-Symm/SD-CG/HFTN-CG
REM
REM
REM
REM
REM
REM ./C.cell (12c818d87b63d06a65506943cc24bca4)
REM
REM compiler GCC version 9.2.1 20190827 (Red Hat 9.2.1-1)
REM options -cpp -mtune=generic -march=x86-64 -g -O0 -fpre-include=/usr/include/finclude/math-vector-fortran.h
REM seed 9924883 -1525813333 -928485161 1055679238 2038631556 1171594779 1461990910 -1831667953 1634156568 1746840182 -575499556 -1958770693 -812800636 1084836011 769155976 -1079672241 -2106336883 -1310182213 -2013409722 831786321 -2085339701 -167574416 -1095288605 2019731516 1014589935 985711209 2080120758 2095541888 -2017004121 142078269 2117261244 -381301106 268382731
REM
CELL 1.54180   50.00000   50.00000   50.00000   90.00000   90.00000   90.00000
LATT -1
SFAC C  
C      1  0.4206770000000  0.5559920000000  0.4852520000000 1.0
C      1  0.4843390000000  0.4119800000000  0.5482810000000 1.0
C      1  0.5552650000000  0.4797820000000  0.4163590000000 1.0
C      1  0.5898290000000  0.5535770000000  0.5227930000000 1.0
C      1  0.4206940000000  0.4429390000000  0.5141080000000 1.0
C      1  0.5874160000000  0.4448330000000  0.4777740000000 1.0
C      1  0.5206850000000  0.4160910000000  0.4443040000000 1.0
C      1  0.4890670000000  0.5817600000000  0.4397880000000 1.0
C      1  0.5160520000000  0.5792190000000  0.5522500000000 1.0
C      1  0.4475300000000  0.4854610000000  0.5787660000000 1.0
C      1  0.5528310000000  0.5084890000000  0.5849440000000 1.0
C      1  0.4389570000000  0.5189850000000  0.4140670000000 1.0
C      1  0.4131600000000  0.4423250000000  0.4805120000000 1.0
C      1  0.4819160000000  0.5844960000000  0.5535860000000 1.0
C      1  0.5515940000000  0.5135970000000  0.4206190000000 1.0
C      1  0.5862150000000  0.4474760000000  0.5119190000000 1.0
C      1  0.4170580000000  0.5566520000000  0.5192110000000 1.0
C      1  0.5832930000000  0.5552190000000  0.4889920000000 1.0
C      1  0.5228790000000  0.5880640000000  0.4384350000000 1.0
C      1  0.4868510000000  0.4205680000000  0.4434940000000 1.0
C      1  0.5180960000000  0.4217360000000  0.5524760000000 1.0
C      1  0.4435620000000  0.5194470000000  0.5823630000000 1.0
C      1  0.5520290000000  0.4749070000000  0.5923180000000 1.0
C      1  0.4397120000000  0.4846980000000  0.4193980000000 1.0
C      1  0.5303230000000  0.5195590000000  0.6081570000000 1.0
C      1  0.6135980000000  0.5308440000000  0.5176550000000 1.0
C      1  0.5188410000000  0.6046730000000  0.5298730000000 1.0
C      1  0.4590420000000  0.5100010000000  0.3892510000000 1.0
C      1  0.5278270000000  0.4804910000000  0.3962650000000 1.0
C      1  0.4632870000000  0.4897010000000  0.6084620000000 1.0
C      1  0.3950810000000  0.5346410000000  0.4904110000000 1.0
C      1  0.6066740000000  0.4709760000000  0.4852340000000 1.0
C      1  0.3962010000000  0.4614460000000  0.5286600000000 1.0
C      1  0.4798520000000  0.6049820000000  0.4631540000000 1.0
C      1  0.5264080000000  0.3961890000000  0.4711170000000 1.0
C      1  0.4863380000000  0.3875070000000  0.5252590000000 1.0
C      1  0.5297140000000  0.4859150000000  0.6146980000000 1.0
C      1  0.6082470000000  0.4707050000000  0.5193510000000 1.0
C      1  0.5183290000000  0.3973880000000  0.5301280000000 1.0
C      1  0.4629760000000  0.4765650000000  0.3957570000000 1.0
C      1  0.5294770000000  0.5147410000000  0.3947910000000 1.0
C      1  0.4684110000000  0.5232770000000  0.6049850000000 1.0
C      1  0.3922430000000  0.4631070000000  0.4945370000000 1.0
C      1  0.6064440000000  0.5305630000000  0.4840310000000 1.0
C      1  0.3971050000000  0.5297730000000  0.5244000000000 1.0
C      1  0.4932370000000  0.3940450000000  0.4632440000000 1.0
C      1  0.5133840000000  0.6114710000000  0.4599290000000 1.0
C      1  0.4845390000000  0.6056950000000  0.5273690000000 1.0
C      1  0.4295200000000  0.5537680000000  0.4534290000000 1.0
C      1  0.4526190000000  0.4234210000000  0.5397960000000 1.0
C      1  0.5456000000000  0.4489090000000  0.4280770000000 1.0
C      1  0.5752300000000  0.5464550000000  0.5531520000000 1.0
C      1  0.4320840000000  0.4504690000000  0.5459640000000 1.0
C      1  0.5728390000000  0.4539000000000  0.4482210000000 1.0
C      1  0.5510380000000  0.4279650000000  0.4553000000000 1.0
C      1  0.4577500000000  0.5727660000000  0.4509460000000 1.0
C      1  0.5481040000000  0.5673730000000  0.5519510000000 1.0
C      1  0.4564570000000  0.4537710000000  0.5696170000000 1.0
C      1  0.5477110000000  0.5403750000000  0.5730060000000 1.0
C      1  0.4492800000000  0.5499820000000  0.4259090000000 1.0
C      1  0.4242330000000  0.4560520000000  0.4511350000000 1.0
C      1  0.4505450000000  0.5723560000000  0.5451480000000 1.0
C      1  0.5518490000000  0.5457560000000  0.4303860000000 1.0
C      1  0.5774400000000  0.4546720000000  0.5443720000000 1.0
C      1  0.4285820000000  0.5457680000000  0.5497180000000 1.0
C      1  0.5730330000000  0.5473560000000  0.4571020000000 1.0
C      1  0.5523370000000  0.5740200000000  0.4495010000000 1.0
C      1  0.4550010000000  0.4282240000000  0.4531990000000 1.0
C      1  0.5503340000000  0.4343110000000  0.5510770000000 1.0
C      1  0.4551060000000  0.5502920000000  0.5712890000000 1.0
C      1  0.5378740000000  0.4462310000000  0.5804180000000 1.0
C      1  0.4513620000000  0.4537500000000  0.4304560000000 1.0
C      1  0.5079920000000  0.4849530000000  0.5368620000000 1.0
C      1  0.5496850000000  0.5120300000000  0.4890560000000 1.0
C      1  0.4768960000000  0.5561960000000  0.5177350000000 1.0
C      1  0.4848750000000  0.4866060000000  0.4511110000000 1.0
C      1  0.5229580000000  0.5280990000000  0.4516170000000 1.0
C      1  0.4813520000000  0.5256280000000  0.5539980000000 1.0
C      1  0.4460660000000  0.5181050000000  0.5238110000000 1.0
C      1  0.5451470000000  0.4732230000000  0.5300610000000 1.0
C      1  0.4612660000000  0.4959770000000  0.4816140000000 1.0
C      1  0.5187130000000  0.5368120000000  0.4920060000000 1.0
C      1  0.4728460000000  0.4586900000000  0.4785340000000 1.0
C      1  0.5115330000000  0.4545390000000  0.5074860000000 1.0
C      1  0.5123620000000  0.5139480000000  0.5531350000000 1.0
C      1  0.5551460000000  0.4816690000000  0.4761470000000 1.0
C      1  0.4909110000000  0.4745060000000  0.4976910000000 1.0
C      1  0.4921220000000  0.5179250000000  0.4626860000000 1.0
C      1  0.5179410000000  0.4760210000000  0.4452990000000 1.0
C      1  0.4785910000000  0.4707990000000  0.5395680000000 1.0
C      1  0.4563030000000  0.4887580000000  0.5116710000000 1.0
C      1  0.5359350000000  0.5045250000000  0.5194860000000 1.0
C      1  0.4495630000000  0.5245980000000  0.4716480000000 1.0
C      1  0.5287130000000  0.4474270000000  0.4820590000000 1.0
C      1  0.4877810000000  0.5498600000000  0.4858380000000 1.0
C      1  0.5294540000000  0.5474460000000  0.5227380000000 1.0
C      1  0.4855300000000  0.4533040000000  0.4508440000000 1.0
C      1  0.4502920000000  0.4921070000000  0.4495120000000 1.0
C      1  0.4448200000000  0.4398810000000  0.4826510000000 1.0
C      1  0.5132600000000  0.4515180000000  0.5398470000000 1.0
C      1  0.4857690000000  0.5539990000000  0.5459150000000 1.0
C      1  0.5195300000000  0.5567590000000  0.4330600000000 1.0
C      1  0.5591420000000  0.4770690000000  0.5611050000000 1.0
C      1  0.4536180000000  0.5150580000000  0.5528190000000 1.0
C      1  0.5495980000000  0.5150240000000  0.4551190000000 1.0
C      1  0.5522520000000  0.4484370000000  0.5143210000000 1.0
C      1  0.4475480000000  0.5468710000000  0.5146770000000 1.0
C      1  0.5518560000000  0.5462480000000  0.4907540000000 1.0
C      1  0.4909640000000  0.5507320000000  0.4516640000000 1.0
C      1  0.4300870000000  0.5204140000000  0.4447250000000 1.0
C      1  0.4547340000000  0.5505560000000  0.4840520000000 1.0
C      1  0.5157680000000  0.5450950000000  0.5482190000000 1.0
C      1  0.4841110000000  0.4422830000000  0.5549610000000 1.0
C      1  0.5156820000000  0.4462760000000  0.4538570000000 1.0
C      1  0.5444250000000  0.5058280000000  0.5528550000000 1.0
C      1  0.4522970000000  0.4848270000000  0.5449240000000 1.0
C      1  0.5466760000000  0.4840620000000  0.4470470000000 1.0
C      1  0.5591760000000  0.5642560000000  0.5195740000000 1.0
C      1  0.4508260000000  0.4578970000000  0.5117040000000 1.0
C      1  0.5576170000000  0.4535960000000  0.4849240000000 1.0
C      1  0.4780550000000  0.4617860000000  0.5955050000000 1.0
C      1  0.5901560000000  0.4821860000000  0.4571660000000 1.0
C      1  0.4561970000000  0.5885980000000  0.4818570000000 1.0
C      1  0.5152530000000  0.4525100000000  0.4122870000000 1.0
C      1  0.4734360000000  0.5367960000000  0.4050570000000 1.0
C      1  0.5171470000000  0.5443020000000  0.5883260000000 1.0
C      1  0.4146980000000  0.4804980000000  0.5499190000000 1.0
C      1  0.5931320000000  0.5189310000000  0.5423790000000 1.0
C      1  0.3985090000000  0.5126010000000  0.4643950000000 1.0
C      1  0.5439360000000  0.5971250000000  0.5080150000000 1.0
C      1  0.4637800000000  0.4074700000000  0.5110080000000 1.0
C      1  0.5506660000000  0.4144430000000  0.4871490000000 1.0
C      1  0.4853300000000  0.5473340000000  0.5873190000000 1.0
C      1  0.5876480000000  0.5161160000000  0.4589700000000 1.0
C      1  0.4633900000000  0.4040460000000  0.4767950000000 1.0
C      1  0.5073080000000  0.5399400000000  0.4011200000000 1.0
C      1  0.4811330000000  0.4529470000000  0.4128080000000 1.0
C      1  0.5122890000000  0.4622830000000  0.5970000000000 1.0
C      1  0.4137090000000  0.5146640000000  0.5507040000000 1.0
C      1  0.5953050000000  0.4849040000000  0.5463450000000 1.0
C      1  0.4028660000000  0.4786870000000  0.4657910000000 1.0
C      1  0.5436100000000  0.4183450000000  0.5207070000000 1.0
C      1  0.4557360000000  0.5899720000000  0.5160080000000 1.0
C      1  0.5389920000000  0.5938170000000  0.4743590000000 1.0
C      1  0.4145640000000  0.4820030000000  0.5101590000000 1.0
C      1  0.5119090000000  0.4215680000000  0.4848900000000 1.0
C      1  0.4730490000000  0.5206620000000  0.4343890000000 1.0
C      1  0.5799140000000  0.4854600000000  0.4954190000000 1.0
C      1  0.4237550000000  0.5086290000000  0.4820460000000 1.0
C      1  0.5644990000000  0.5228210000000  0.5243670000000 1.0
C      1  0.4750900000000  0.4393320000000  0.5132780000000 1.0
C      1  0.5233980000000  0.5737500000000  0.5052450000000 1.0
C      1  0.4951430000000  0.5825280000000  0.4790130000000 1.0
C      1  0.5131210000000  0.5049590000000  0.5857360000000 1.0
C      1  0.4873870000000  0.4788570000000  0.5704590000000 1.0
C      1  0.5096450000000  0.4909350000000  0.4199940000000 1.0
C      1  0.4194720000000  0.5113910000000  0.5117080000000 1.0
C      1  0.5222310000000  0.5645200000000  0.4723140000000 1.0
C      1  0.4786990000000  0.4921110000000  0.4181440000000 1.0
C      1  0.5823680000000  0.5164850000000  0.4982310000000 1.0
C      1  0.4324730000000  0.4772450000000  0.4819640000000 1.0
C      1  0.5721390000000  0.4895060000000  0.5254890000000 1.0
C      1  0.4938120000000  0.5809970000000  0.5100500000000 1.0
C      1  0.5041770000000  0.4217340000000  0.5152340000000 1.0
C      1  0.4827100000000  0.4279800000000  0.4824540000000 1.0
C      1  0.5202630000000  0.4779830000000  0.5683650000000 1.0
C      1  0.4827090000000  0.5084730000000  0.5793960000000 1.0
C      1  0.5053000000000  0.5205340000000  0.4256060000000 1.0
C      1  0.4950550000000  0.5001730000000  0.5023030000000 1.0
END
