TITL C-2782240-8521-1181 0.00501752101131006 125000 -486.519986748468 0 0 86 (C1) n - 1
REM
REM in /home/nfs/bkarasulu/CARBON/AIRSS/Generating-Clusters/REBO/Higher-Symm/SD-CG/HFTN-CG
REM
REM
REM
REM
REM
REM ./C.cell (12c818d87b63d06a65506943cc24bca4)
REM
REM compiler GCC version 9.2.1 20190827 (Red Hat 9.2.1-1)
REM options -cpp -mtune=generic -march=x86-64 -g -O0 -fpre-include=/usr/include/finclude/math-vector-fortran.h
REM seed -1844871666 122610881 -1826141136 1862363093 354257704 188378498 -892028316 76875441 59743388 465939768 -2062155342 -33414195 1784754870 908276606 1503109178 -1146169245 157538840 2097064889 1972789264 115087540 -345065890 -916032544 741983007 164662985 -1672036980 88792335 1624713272 -170609298 347618071 -1700451757 400862777 1610587863 13202122
REM
CELL 1.54180   50.00000   50.00000   50.00000   90.00000   90.00000   90.00000
LATT -1
SFAC C  
C      1  0.4566010000000  0.4614660000000  0.5302250000000 1.0
C      1  0.4613040000000  0.5481540000000  0.5168150000000 1.0
C      1  0.4602290000000  0.4941530000000  0.4518730000000 1.0
C      1  0.5291980000000  0.4393840000000  0.5492500000000 1.0
C      1  0.5291400000000  0.5755360000000  0.5331330000000 1.0
C      1  0.5263150000000  0.4851510000000  0.4236000000000 1.0
C      1  0.4237410000000  0.5077890000000  0.5295540000000 1.0
C      1  0.4254870000000  0.5259460000000  0.4752720000000 1.0
C      1  0.4247710000000  0.4715830000000  0.4960240000000 1.0
C      1  0.5237990000000  0.5176460000000  0.4579000000000 1.0
C      1  0.5246160000000  0.4605360000000  0.5045950000000 1.0
C      1  0.5144890000000  0.5304990000000  0.5338100000000 1.0
C      1  0.5594590000000  0.5361260000000  0.5267550000000 1.0
C      1  0.5648000000000  0.5083580000000  0.4604860000000 1.0
C      1  0.5556510000000  0.4636860000000  0.5182400000000 1.0
C      1  0.4820460000000  0.5862370000000  0.5523600000000 1.0
C      1  0.4819330000000  0.5036980000000  0.4041650000000 1.0
C      1  0.4763500000000  0.4240600000000  0.5470350000000 1.0
C      1  0.4863320000000  0.4575810000000  0.4775680000000 1.0
C      1  0.4872060000000  0.5049490000000  0.5493740000000 1.0
C      1  0.4847530000000  0.5358900000000  0.4701430000000 1.0
C      1  0.5297660000000  0.5124880000000  0.4319230000000 1.0
C      1  0.5293400000000  0.4339690000000  0.5220740000000 1.0
C      1  0.5250530000000  0.5514340000000  0.5476970000000 1.0
C      1  0.4519520000000  0.5409460000000  0.4336090000000 1.0
C      1  0.4512040000000  0.4225060000000  0.4953800000000 1.0
C      1  0.4523120000000  0.5408140000000  0.5678400000000 1.0
C      1  0.4604380000000  0.4627880000000  0.4558570000000 1.0
C      1  0.4612040000000  0.4849930000000  0.5543360000000 1.0
C      1  0.4639300000000  0.5550820000000  0.4837240000000 1.0
C      1  0.5005710000000  0.5488380000000  0.4493120000000 1.0
C      1  0.5034470000000  0.4299660000000  0.4831930000000 1.0
C      1  0.5004440000000  0.5232050000000  0.5702620000000 1.0
C      1  0.5477140000000  0.4583760000000  0.5570790000000 1.0
C      1  0.5483650000000  0.5735540000000  0.5134590000000 1.0
C      1  0.5435890000000  0.4680150000000  0.4367750000000 1.0
C      1  0.5277060000000  0.4699410000000  0.4756710000000 1.0
C      1  0.5237480000000  0.5023260000000  0.5333890000000 1.0
C      1  0.5245560000000  0.5369220000000  0.4832490000000 1.0
C      1  0.4713960000000  0.5189440000000  0.5229150000000 1.0
C      1  0.4731350000000  0.5097060000000  0.4717710000000 1.0
C      1  0.4688920000000  0.4715520000000  0.5031180000000 1.0
C      1  0.4395710000000  0.4397480000000  0.5213370000000 1.0
C      1  0.4432040000000  0.5537370000000  0.5383690000000 1.0
C      1  0.4473260000000  0.5084350000000  0.4326360000000 1.0
C      1  0.5587680000000  0.4762580000000  0.4655890000000 1.0
C      1  0.5528560000000  0.4870670000000  0.5421950000000 1.0
C      1  0.5534180000000  0.5465700000000  0.4955680000000 1.0
C      1  0.4484840000000  0.5147020000000  0.5478150000000 1.0
C      1  0.4423830000000  0.5450740000000  0.4635860000000 1.0
C      1  0.4473610000000  0.4526440000000  0.4842960000000 1.0
C      1  0.5055020000000  0.4794390000000  0.5190480000000 1.0
C      1  0.5026670000000  0.5379190000000  0.5058430000000 1.0
C      1  0.5099850000000  0.4947220000000  0.4708010000000 1.0
C      1  0.5600480000000  0.4512540000000  0.4888350000000 1.0
C      1  0.5555270000000  0.5203630000000  0.5488490000000 1.0
C      1  0.5590210000000  0.5355490000000  0.4637800000000 1.0
C      1  0.5220450000000  0.4896990000000  0.5712740000000 1.0
C      1  0.5258450000000  0.5763870000000  0.4770640000000 1.0
C      1  0.5173250000000  0.4448910000000  0.4560330000000 1.0
C      1  0.4686480000000  0.4540180000000  0.5606300000000 1.0
C      1  0.4778770000000  0.5744080000000  0.5055110000000 1.0
C      1  0.4704670000000  0.4567610000000  0.4258320000000 1.0
C      1  0.4816050000000  0.5387070000000  0.5826100000000 1.0
C      1  0.4834980000000  0.5521340000000  0.4271420000000 1.0
C      1  0.4833040000000  0.4113500000000  0.4942370000000 1.0
C      1  0.5016190000000  0.4744770000000  0.5514220000000 1.0
C      1  0.5094230000000  0.5704970000000  0.4988200000000 1.0
C      1  0.4984520000000  0.4723640000000  0.4491640000000 1.0
C      1  0.4947220000000  0.4787160000000  0.4172840000000 1.0
C      1  0.5006070000000  0.4435270000000  0.5595710000000 1.0
C      1  0.5001780000000  0.5878750000000  0.5268810000000 1.0
C      1  0.5320050000000  0.5183550000000  0.5690110000000 1.0
C      1  0.5336020000000  0.5558920000000  0.4535090000000 1.0
C      1  0.5375880000000  0.4316970000000  0.4803080000000 1.0
C      1  0.4671650000000  0.5712730000000  0.5650000000000 1.0
C      1  0.4730690000000  0.5282030000000  0.4095020000000 1.0
C      1  0.4693870000000  0.4131450000000  0.5229730000000 1.0
C      1  0.5369800000000  0.4984350000000  0.5033060000000 1.0
C      1  0.5628040000000  0.4979240000000  0.4989620000000 1.0
C      1  0.4640360000000  0.5011170000000  0.4993620000000 1.0
C      1  0.5036810000000  0.5059050000000  0.4991410000000 1.0
C      1  0.6149060000000  0.4969160000000  0.4902170000000 1.0
C      1  0.5890650000000  0.4974160000000  0.4945550000000 1.0
C      1  0.4139190000000  0.4805590000000  0.5222130000000 1.0
C      1  0.4324980000000  0.5048010000000  0.4967300000000 1.0
END
