TITL C-2782229-3092-782 -0.000224466346364176 125000 -616.324882326235 0 0 106 (C1) n - 1
REM
REM in /home/nfs/bkarasulu/CARBON/AIRSS/Generating-Clusters/REBO/Higher-Symm/SD-CG/HFTN-CG
REM
REM
REM
REM
REM
REM ./C.cell (12c818d87b63d06a65506943cc24bca4)
REM
REM compiler GCC version 9.2.1 20190827 (Red Hat 9.2.1-1)
REM options -cpp -mtune=generic -march=x86-64 -g -O0 -fpre-include=/usr/include/finclude/math-vector-fortran.h
REM seed 2059251147 -497798675 -1567351958 -793348062 1999667985 -1486289189 1213588856 -2078793000 -710837754 1597418026 -1488238634 -480715514 -136859663 589078827 1460388616 634951739 -1531227467 -1552625729 -1505417280 789289454 1978623721 1195110562 541491486 -1566044137 1501449256 -77258836 -1817653443 1359119305 -604048502 2060072215 1387009436 -1506884742 -513932770
REM
CELL 1.54180   50.00000   50.00000   50.00000   90.00000   90.00000   90.00000
LATT -1
SFAC C  
C      1  0.4600400000000  0.5632700000000  0.4460680000000 1.0
C      1  0.5380510000000  0.5627030000000  0.4566690000000 1.0
C      1  0.5266580000000  0.5170590000000  0.4364580000000 1.0
C      1  0.4733960000000  0.5145520000000  0.4425190000000 1.0
C      1  0.5730590000000  0.5303210000000  0.5439080000000 1.0
C      1  0.4329420000000  0.5296390000000  0.5447900000000 1.0
C      1  0.5294620000000  0.4691820000000  0.4185670000000 1.0
C      1  0.4743020000000  0.4680000000000  0.4189710000000 1.0
C      1  0.5692550000000  0.4669420000000  0.5155320000000 1.0
C      1  0.4361510000000  0.4665160000000  0.5156050000000 1.0
C      1  0.4249650000000  0.4733580000000  0.4899900000000 1.0
C      1  0.5788140000000  0.4734540000000  0.4896960000000 1.0
C      1  0.5146830000000  0.4520220000000  0.3965480000000 1.0
C      1  0.4894370000000  0.4513340000000  0.3968370000000 1.0
C      1  0.5493270000000  0.4468910000000  0.5172430000000 1.0
C      1  0.4556850000000  0.4456040000000  0.5170880000000 1.0
C      1  0.5609420000000  0.4921200000000  0.5631870000000 1.0
C      1  0.4425970000000  0.4911480000000  0.5637950000000 1.0
C      1  0.5328820000000  0.5825630000000  0.5115810000000 1.0
C      1  0.4679690000000  0.5869510000000  0.5143150000000 1.0
C      1  0.5299400000000  0.5279450000000  0.5218700000000 1.0
C      1  0.4753130000000  0.5195400000000  0.5262250000000 1.0
C      1  0.5185770000000  0.4164100000000  0.4802510000000 1.0
C      1  0.4850250000000  0.4153200000000  0.4789060000000 1.0
C      1  0.5668370000000  0.4810270000000  0.4491160000000 1.0
C      1  0.4384990000000  0.4828130000000  0.4475910000000 1.0
C      1  0.4270750000000  0.5223320000000  0.4703680000000 1.0
C      1  0.5819060000000  0.5207400000000  0.4699690000000 1.0
C      1  0.4657640000000  0.4696730000000  0.5711000000000 1.0
C      1  0.5351350000000  0.4725430000000  0.5679570000000 1.0
C      1  0.4364270000000  0.4496800000000  0.4687200000000 1.0
C      1  0.5657110000000  0.4528820000000  0.4685770000000 1.0
C      1  0.5465330000000  0.5641090000000  0.5271110000000 1.0
C      1  0.4568450000000  0.5653940000000  0.5290420000000 1.0
C      1  0.5275840000000  0.4763170000000  0.4988830000000 1.0
C      1  0.4757220000000  0.4743020000000  0.4977510000000 1.0
C      1  0.4727940000000  0.5030750000000  0.5739800000000 1.0
C      1  0.5319320000000  0.5067040000000  0.5711520000000 1.0
C      1  0.4605780000000  0.4727130000000  0.4720560000000 1.0
C      1  0.5443620000000  0.4862060000000  0.4735030000000 1.0
C      1  0.5796410000000  0.5463690000000  0.4824010000000 1.0
C      1  0.4318550000000  0.5477250000000  0.4831380000000 1.0
C      1  0.5586660000000  0.5127100000000  0.4472300000000 1.0
C      1  0.4417100000000  0.5117810000000  0.4480820000000 1.0
C      1  0.5285190000000  0.5543470000000  0.5518590000000 1.0
C      1  0.4771490000000  0.5522370000000  0.5491360000000 1.0
C      1  0.4617890000000  0.5035450000000  0.4993690000000 1.0
C      1  0.5404090000000  0.5080090000000  0.4988680000000 1.0
C      1  0.5443150000000  0.4360490000000  0.4889750000000 1.0
C      1  0.4592490000000  0.4340590000000  0.4888620000000 1.0
C      1  0.4449930000000  0.5688730000000  0.4697390000000 1.0
C      1  0.5673490000000  0.5667490000000  0.4679270000000 1.0
C      1  0.4616160000000  0.5245140000000  0.5530160000000 1.0
C      1  0.5439540000000  0.5268910000000  0.5506490000000 1.0
C      1  0.4596630000000  0.5872750000000  0.4858180000000 1.0
C      1  0.5421820000000  0.5811080000000  0.4835970000000 1.0
C      1  0.4783490000000  0.4829040000000  0.4477060000000 1.0
C      1  0.5274110000000  0.4867620000000  0.4460780000000 1.0
C      1  0.4405670000000  0.4919540000000  0.5335380000000 1.0
C      1  0.5658200000000  0.4925280000000  0.5330970000000 1.0
C      1  0.4335200000000  0.5464900000000  0.5150860000000 1.0
C      1  0.5728800000000  0.5467200000000  0.5142150000000 1.0
C      1  0.4660770000000  0.5250630000000  0.4784820000000 1.0
C      1  0.5424910000000  0.5260670000000  0.4718380000000 1.0
C      1  0.4524780000000  0.4532190000000  0.4383710000000 1.0
C      1  0.5492050000000  0.4542550000000  0.4385250000000 1.0
C      1  0.5861940000000  0.5007160000000  0.4891080000000 1.0
C      1  0.4200370000000  0.5017650000000  0.4894250000000 1.0
C      1  0.5307060000000  0.4374290000000  0.4575830000000 1.0
C      1  0.4722030000000  0.4367060000000  0.4571760000000 1.0
C      1  0.5337570000000  0.4817290000000  0.5290860000000 1.0
C      1  0.4721040000000  0.4798400000000  0.5292980000000 1.0
C      1  0.4745760000000  0.4506780000000  0.5442570000000 1.0
C      1  0.5316750000000  0.4516780000000  0.5439610000000 1.0
C      1  0.5330380000000  0.5469560000000  0.4936170000000 1.0
C      1  0.4824050000000  0.5371460000000  0.4994660000000 1.0
C      1  0.5822420000000  0.5137830000000  0.5164530000000 1.0
C      1  0.4242060000000  0.5136890000000  0.5170500000000 1.0
C      1  0.5015070000000  0.4390040000000  0.4512570000000 1.0
C      1  0.5018760000000  0.5221460000000  0.4596110000000 1.0
C      1  0.5019080000000  0.5466720000000  0.5697770000000 1.0
C      1  0.4932750000000  0.5834850000000  0.4838170000000 1.0
C      1  0.4834400000000  0.5501310000000  0.4276520000000 1.0
C      1  0.4940180000000  0.4284060000000  0.5711650000000 1.0
C      1  0.4857350000000  0.4502300000000  0.6151780000000 1.0
C      1  0.5048760000000  0.5091660000000  0.5171150000000 1.0
C      1  0.5014470000000  0.4883270000000  0.4157480000000 1.0
C      1  0.5025690000000  0.5050380000000  0.4867610000000 1.0
C      1  0.4928620000000  0.4038050000000  0.5557570000000 1.0
C      1  0.5037530000000  0.4791370000000  0.4669050000000 1.0
C      1  0.5011840000000  0.3958920000000  0.4994990000000 1.0
C      1  0.5042540000000  0.4785100000000  0.5755100000000 1.0
C      1  0.4976840000000  0.5218870000000  0.4200470000000 1.0
C      1  0.4910670000000  0.5719830000000  0.4532960000000 1.0
C      1  0.5050200000000  0.4395410000000  0.5426580000000 1.0
C      1  0.5023950000000  0.4580610000000  0.4938860000000 1.0
C      1  0.4878200000000  0.4532200000000  0.5876500000000 1.0
C      1  0.4999110000000  0.5638970000000  0.5950300000000 1.0
C      1  0.5138200000000  0.5509800000000  0.4529070000000 1.0
C      1  0.5039360000000  0.5568580000000  0.5016540000000 1.0
C      1  0.5027480000000  0.4866760000000  0.5426020000000 1.0
C      1  0.5035750000000  0.5646080000000  0.5341040000000 1.0
C      1  0.5022870000000  0.5152200000000  0.5767590000000 1.0
C      1  0.5000480000000  0.4329810000000  0.5114440000000 1.0
C      1  0.5012950000000  0.5935540000000  0.5159990000000 1.0
C      1  0.4970040000000  0.4033670000000  0.5278720000000 1.0
END
