TITL C-2782225-7408-686 0.000865348899198475 125000 -660.118596163219 0 0 111 (C1) n - 1
REM
REM in /home/nfs/bkarasulu/CARBON/AIRSS/Generating-Clusters/REBO/Higher-Symm/SD-CG/HFTN-CG
REM
REM
REM
REM
REM
REM ./C.cell (12c818d87b63d06a65506943cc24bca4)
REM
REM compiler GCC version 9.2.1 20190827 (Red Hat 9.2.1-1)
REM options -cpp -mtune=generic -march=x86-64 -g -O0 -fpre-include=/usr/include/finclude/math-vector-fortran.h
REM seed -1407601282 -2122270911 691505699 -1709093093 -1720945433 -745837308 554572553 -1008528103 -1829075289 -552496160 509147918 -780387710 806834790 1627147222 1641661534 -2135993894 1367388738 134647285 -673411986 -1461578630 -337468451 -366646034 1879253057 2144601216 1712799648 864735239 1186756378 928790939 584221937 -875810323 1471110219 13084860 1309697149
REM
CELL 1.54180   50.00000   50.00000   50.00000   90.00000   90.00000   90.00000
LATT -1
SFAC C  
C      1  0.5147630000000  0.4879410000000  0.6006800000000 1.0
C      1  0.5164420000000  0.5223450000000  0.6005120000000 1.0
C      1  0.4863060000000  0.5155670000000  0.5966590000000 1.0
C      1  0.4816800000000  0.4852170000000  0.5985000000000 1.0
C      1  0.5148490000000  0.4839770000000  0.4061710000000 1.0
C      1  0.5173970000000  0.5173140000000  0.4005460000000 1.0
C      1  0.4872210000000  0.5127310000000  0.4054880000000 1.0
C      1  0.4812500000000  0.4824950000000  0.4048250000000 1.0
C      1  0.5242810000000  0.5209430000000  0.5299660000000 1.0
C      1  0.4716700000000  0.5304960000000  0.5251160000000 1.0
C      1  0.4670370000000  0.4694740000000  0.5279200000000 1.0
C      1  0.5201500000000  0.4696010000000  0.5257610000000 1.0
C      1  0.5282320000000  0.5224200000000  0.4717300000000 1.0
C      1  0.4726670000000  0.5297070000000  0.4754190000000 1.0
C      1  0.4674970000000  0.4716040000000  0.4707880000000 1.0
C      1  0.5229860000000  0.4681240000000  0.4763830000000 1.0
C      1  0.4391790000000  0.4550700000000  0.5325290000000 1.0
C      1  0.5415800000000  0.4477640000000  0.5343350000000 1.0
C      1  0.5499910000000  0.5388560000000  0.5328190000000 1.0
C      1  0.4582620000000  0.5583340000000  0.5324200000000 1.0
C      1  0.4403850000000  0.4556160000000  0.4664030000000 1.0
C      1  0.5433230000000  0.4467220000000  0.4662570000000 1.0
C      1  0.5537080000000  0.5400540000000  0.4693880000000 1.0
C      1  0.4591750000000  0.5578490000000  0.4662060000000 1.0
C      1  0.5366930000000  0.5318270000000  0.4197720000000 1.0
C      1  0.4767200000000  0.5341970000000  0.4219280000000 1.0
C      1  0.4598350000000  0.4695020000000  0.4210970000000 1.0
C      1  0.5336880000000  0.4590290000000  0.4197160000000 1.0
C      1  0.5385930000000  0.5352700000000  0.5857380000000 1.0
C      1  0.4715720000000  0.5347390000000  0.5782260000000 1.0
C      1  0.4630300000000  0.4684310000000  0.5786150000000 1.0
C      1  0.5296890000000  0.4649150000000  0.5805280000000 1.0
C      1  0.4363010000000  0.5428520000000  0.4856040000000 1.0
C      1  0.4369340000000  0.4326270000000  0.4867160000000 1.0
C      1  0.5652840000000  0.4435440000000  0.4879750000000 1.0
C      1  0.5448410000000  0.5660610000000  0.4875970000000 1.0
C      1  0.4359030000000  0.5430640000000  0.5123960000000 1.0
C      1  0.4357490000000  0.4324500000000  0.5115660000000 1.0
C      1  0.5637930000000  0.4443770000000  0.5127230000000 1.0
C      1  0.5436080000000  0.5656770000000  0.5146170000000 1.0
C      1  0.5870420000000  0.5095790000000  0.5842370000000 1.0
C      1  0.5056350000000  0.5689950000000  0.5756210000000 1.0
C      1  0.4326430000000  0.5103940000000  0.5779060000000 1.0
C      1  0.5026000000000  0.4239090000000  0.5816510000000 1.0
C      1  0.5604210000000  0.4892080000000  0.4087670000000 1.0
C      1  0.5122230000000  0.5741460000000  0.4242880000000 1.0
C      1  0.4316130000000  0.5110560000000  0.4221380000000 1.0
C      1  0.4920520000000  0.4341650000000  0.4074050000000 1.0
C      1  0.4218850000000  0.5022840000000  0.5385070000000 1.0
C      1  0.4965870000000  0.4216360000000  0.5422100000000 1.0
C      1  0.5800420000000  0.5017110000000  0.5456490000000 1.0
C      1  0.5016800000000  0.5815830000000  0.5379130000000 1.0
C      1  0.4221290000000  0.5019950000000  0.4599070000000 1.0
C      1  0.4998410000000  0.4220460000000  0.4548940000000 1.0
C      1  0.5813280000000  0.5009770000000  0.4583220000000 1.0
C      1  0.5030200000000  0.5808110000000  0.4626170000000 1.0
C      1  0.5184980000000  0.4896770000000  0.4401340000000 1.0
C      1  0.5072350000000  0.5241750000000  0.4457260000000 1.0
C      1  0.4812390000000  0.5021610000000  0.4453980000000 1.0
C      1  0.4918910000000  0.4695130000000  0.4470240000000 1.0
C      1  0.5336570000000  0.4974110000000  0.5745930000000 1.0
C      1  0.5134380000000  0.5155430000000  0.5587130000000 1.0
C      1  0.4861850000000  0.4952270000000  0.5600720000000 1.0
C      1  0.4891200000000  0.4636500000000  0.5533030000000 1.0
C      1  0.5388750000000  0.5515480000000  0.5623670000000 1.0
C      1  0.4520040000000  0.5401180000000  0.5595540000000 1.0
C      1  0.4540690000000  0.4458510000000  0.5592060000000 1.0
C      1  0.5528620000000  0.4599200000000  0.5602380000000 1.0
C      1  0.5399600000000  0.5502310000000  0.4403660000000 1.0
C      1  0.4557920000000  0.5373340000000  0.4399880000000 1.0
C      1  0.4565630000000  0.4487090000000  0.4399180000000 1.0
C      1  0.5530650000000  0.4591040000000  0.4402030000000 1.0
C      1  0.5729130000000  0.4787620000000  0.4452080000000 1.0
C      1  0.5293110000000  0.5704980000000  0.4612290000000 1.0
C      1  0.4344790000000  0.5272400000000  0.4593780000000 1.0
C      1  0.4763970000000  0.4292520000000  0.4438260000000 1.0
C      1  0.5722520000000  0.4786730000000  0.5574550000000 1.0
C      1  0.5278070000000  0.5709990000000  0.5406190000000 1.0
C      1  0.4328720000000  0.5282200000000  0.5389120000000 1.0
C      1  0.4731440000000  0.4266200000000  0.5547240000000 1.0
C      1  0.4998320000000  0.5423610000000  0.5702820000000 1.0
C      1  0.4551740000000  0.4988740000000  0.5721000000000 1.0
C      1  0.5069020000000  0.4476180000000  0.5708130000000 1.0
C      1  0.5602720000000  0.5132180000000  0.5831650000000 1.0
C      1  0.5012860000000  0.5505890000000  0.4302870000000 1.0
C      1  0.4547560000000  0.4986060000000  0.4300810000000 1.0
C      1  0.5049090000000  0.4505750000000  0.4255970000000 1.0
C      1  0.5440740000000  0.5024780000000  0.4261580000000 1.0
C      1  0.5009830000000  0.5360470000000  0.4853000000000 1.0
C      1  0.4586140000000  0.5018550000000  0.4837880000000 1.0
C      1  0.4958910000000  0.4600960000000  0.4857530000000 1.0
C      1  0.5341530000000  0.4938390000000  0.4873040000000 1.0
C      1  0.5018590000000  0.5360460000000  0.5137460000000 1.0
C      1  0.4595060000000  0.5001010000000  0.5146930000000 1.0
C      1  0.4950880000000  0.4612900000000  0.5140300000000 1.0
C      1  0.5314710000000  0.4942940000000  0.5158150000000 1.0
C      1  0.4761850000000  0.5811380000000  0.5257020000000 1.0
C      1  0.4189600000000  0.4772660000000  0.5259950000000 1.0
C      1  0.5194130000000  0.4260390000000  0.5267960000000 1.0
C      1  0.5752530000000  0.5231900000000  0.5282300000000 1.0
C      1  0.4769550000000  0.5807580000000  0.4734630000000 1.0
C      1  0.4193380000000  0.4771380000000  0.4726230000000 1.0
C      1  0.5213570000000  0.4250820000000  0.4723430000000 1.0
C      1  0.5777380000000  0.5232800000000  0.4752070000000 1.0
C      1  0.5196620000000  0.4182060000000  0.4996450000000 1.0
C      1  0.5858560000000  0.5238100000000  0.5021540000000 1.0
C      1  0.4735010000000  0.5912390000000  0.4994670000000 1.0
C      1  0.4094510000000  0.4765810000000  0.4992300000000 1.0
C      1  0.4888380000000  0.5025690000000  0.5301640000000 1.0
C      1  0.4969060000000  0.4981280000000  0.4739070000000 1.0
C      1  0.4958690000000  0.4980610000000  0.4983190000000 1.0
END
