TITL C-2782238-9940-608 -0.00248751644006966 125000 -1152.39489949415 0 0 195 (C1) n - 1
REM
REM in /home/nfs/bkarasulu/CARBON/AIRSS/Generating-Clusters/REBO/Higher-Symm/SD-CG/HFTN-CG
REM
REM
REM
REM
REM
REM ./C.cell (12c818d87b63d06a65506943cc24bca4)
REM
REM compiler GCC version 9.2.1 20190827 (Red Hat 9.2.1-1)
REM options -cpp -mtune=generic -march=x86-64 -g -O0 -fpre-include=/usr/include/finclude/math-vector-fortran.h
REM seed -995954212 -592171540 243677066 2075690790 714740990 -1869175524 1846750225 1861201903 1183044770 648932106 1446299891 -750819346 -461127237 633535339 2096548048 860985104 1427049251 1118708450 123190722 -293514350 -1482471428 -1224566926 2032897477 -1576392850 -802127640 -1787949602 463922102 1735975009 -1966740512 -753216367 -1030357664 -1469539500 -1747815529
REM
CELL 1.54180   50.00000   50.00000   50.00000   90.00000   90.00000   90.00000
LATT -1
SFAC C  
C      1  0.4079560000000  0.4463380000000  0.5048770000000 1.0
C      1  0.4080600000000  0.4912430000000  0.4447990000000 1.0
C      1  0.4007380000000  0.5530370000000  0.4983010000000 1.0
C      1  0.3721560000000  0.5386080000000  0.5504320000000 1.0
C      1  0.5925510000000  0.4397070000000  0.5049660000000 1.0
C      1  0.6164270000000  0.4581670000000  0.4347270000000 1.0
C      1  0.5876300000000  0.5531780000000  0.4941370000000 1.0
C      1  0.5950510000000  0.5063800000000  0.5540090000000 1.0
C      1  0.4031930000000  0.5146160000000  0.5197370000000 1.0
C      1  0.3917000000000  0.4883010000000  0.5150550000000 1.0
C      1  0.3814300000000  0.4828370000000  0.4859050000000 1.0
C      1  0.4005390000000  0.5066000000000  0.4806820000000 1.0
C      1  0.6096500000000  0.5162670000000  0.5121700000000 1.0
C      1  0.5987270000000  0.4859300000000  0.5073570000000 1.0
C      1  0.6067970000000  0.4843230000000  0.4750740000000 1.0
C      1  0.6097520000000  0.5140750000000  0.4815070000000 1.0
C      1  0.4843110000000  0.4583200000000  0.5068670000000 1.0
C      1  0.4967720000000  0.4992220000000  0.4535440000000 1.0
C      1  0.4852330000000  0.5428000000000  0.4956420000000 1.0
C      1  0.4868770000000  0.5061890000000  0.5334500000000 1.0
C      1  0.5128760000000  0.4495620000000  0.5040610000000 1.0
C      1  0.5084290000000  0.4938410000000  0.4808980000000 1.0
C      1  0.5130560000000  0.5420620000000  0.4948700000000 1.0
C      1  0.5198660000000  0.5072760000000  0.5317710000000 1.0
C      1  0.4521510000000  0.4247230000000  0.5635150000000 1.0
C      1  0.4543430000000  0.4368780000000  0.4296620000000 1.0
C      1  0.4477280000000  0.5684890000000  0.4365140000000 1.0
C      1  0.4529510000000  0.5673080000000  0.5757830000000 1.0
C      1  0.5519370000000  0.4205660000000  0.5658800000000 1.0
C      1  0.5491180000000  0.4335240000000  0.4314390000000 1.0
C      1  0.5445610000000  0.5747650000000  0.4355130000000 1.0
C      1  0.5435700000000  0.5620590000000  0.5684190000000 1.0
C      1  0.4792480000000  0.4101520000000  0.5286710000000 1.0
C      1  0.4722520000000  0.4728570000000  0.4107920000000 1.0
C      1  0.4707840000000  0.5952930000000  0.4711660000000 1.0
C      1  0.4679660000000  0.5301650000000  0.5887330000000 1.0
C      1  0.5292560000000  0.4072190000000  0.5285630000000 1.0
C      1  0.5390890000000  0.4646990000000  0.3914430000000 1.0
C      1  0.5300750000000  0.5941540000000  0.4705410000000 1.0
C      1  0.5247700000000  0.5284900000000  0.5862560000000 1.0
C      1  0.4922550000000  0.3656210000000  0.5070400000000 1.0
C      1  0.4876560000000  0.5028490000000  0.3692130000000 1.0
C      1  0.4895320000000  0.6401050000000  0.4884040000000 1.0
C      1  0.4836880000000  0.5105870000000  0.6328160000000 1.0
C      1  0.5176490000000  0.3642950000000  0.5067900000000 1.0
C      1  0.5117680000000  0.4996550000000  0.3631060000000 1.0
C      1  0.5144560000000  0.6406160000000  0.4857440000000 1.0
C      1  0.5090050000000  0.5097840000000  0.6320490000000 1.0
C      1  0.5180510000000  0.4362110000000  0.4245880000000 1.0
C      1  0.5119080000000  0.5786310000000  0.4260800000000 1.0
C      1  0.5171290000000  0.5676540000000  0.5836210000000 1.0
C      1  0.5188430000000  0.4191950000000  0.5749020000000 1.0
C      1  0.4847370000000  0.4355470000000  0.4176600000000 1.0
C      1  0.4778190000000  0.5774480000000  0.4267670000000 1.0
C      1  0.4863080000000  0.5737820000000  0.5724260000000 1.0
C      1  0.4845860000000  0.4240520000000  0.5752470000000 1.0
C      1  0.4773400000000  0.3926790000000  0.5019780000000 1.0
C      1  0.4734970000000  0.5015030000000  0.3963430000000 1.0
C      1  0.4685640000000  0.6164320000000  0.4951610000000 1.0
C      1  0.4661990000000  0.5052130000000  0.6078110000000 1.0
C      1  0.5343180000000  0.3903640000000  0.5030400000000 1.0
C      1  0.5353550000000  0.4951430000000  0.3831330000000 1.0
C      1  0.5345560000000  0.6159670000000  0.4934200000000 1.0
C      1  0.5245090000000  0.5023180000000  0.6061510000000 1.0
C      1  0.4567530000000  0.5324170000000  0.5403940000000 1.0
C      1  0.4455140000000  0.4551170000000  0.5150170000000 1.0
C      1  0.4452560000000  0.4851810000000  0.4581500000000 1.0
C      1  0.4383400000000  0.5447160000000  0.4878280000000 1.0
C      1  0.5586230000000  0.5128690000000  0.5391210000000 1.0
C      1  0.5546040000000  0.4496380000000  0.5267370000000 1.0
C      1  0.5537550000000  0.4806280000000  0.4551720000000 1.0
C      1  0.5507940000000  0.5437790000000  0.4818700000000 1.0
C      1  0.5165450000000  0.6176150000000  0.5182760000000 1.0
C      1  0.5092200000000  0.4787910000000  0.5945920000000 1.0
C      1  0.5220950000000  0.4043190000000  0.4793980000000 1.0
C      1  0.5231690000000  0.5131140000000  0.4055760000000 1.0
C      1  0.4874370000000  0.6165210000000  0.5206190000000 1.0
C      1  0.4779010000000  0.4806520000000  0.5944180000000 1.0
C      1  0.4915370000000  0.4040210000000  0.4773340000000 1.0
C      1  0.4948240000000  0.5075220000000  0.4202350000000 1.0
C      1  0.5611690000000  0.5876590000000  0.4628780000000 1.0
C      1  0.5569150000000  0.5332350000000  0.5807710000000 1.0
C      1  0.5678710000000  0.4132460000000  0.5366480000000 1.0
C      1  0.5610300000000  0.4615850000000  0.4153930000000 1.0
C      1  0.4397290000000  0.5821940000000  0.4666910000000 1.0
C      1  0.4371400000000  0.5374840000000  0.5823300000000 1.0
C      1  0.4400520000000  0.4123130000000  0.5339760000000 1.0
C      1  0.4401030000000  0.4650240000000  0.4164300000000 1.0
C      1  0.5877740000000  0.4731570000000  0.5541830000000 1.0
C      1  0.5863850000000  0.4390830000000  0.4715200000000 1.0
C      1  0.5795220000000  0.5342630000000  0.4431370000000 1.0
C      1  0.5823500000000  0.5564520000000  0.5276480000000 1.0
C      1  0.4186260000000  0.4671560000000  0.5547190000000 1.0
C      1  0.4170910000000  0.4433810000000  0.4727280000000 1.0
C      1  0.4129620000000  0.5248630000000  0.4474220000000 1.0
C      1  0.4129220000000  0.5623150000000  0.5287410000000 1.0
C      1  0.5652320000000  0.4723500000000  0.5780750000000 1.0
C      1  0.5716480000000  0.4105590000000  0.4740070000000 1.0
C      1  0.5653080000000  0.5264800000000  0.4188510000000 1.0
C      1  0.5695030000000  0.5868530000000  0.5282890000000 1.0
C      1  0.4300870000000  0.4706770000000  0.5866080000000 1.0
C      1  0.4338050000000  0.4156980000000  0.4741260000000 1.0
C      1  0.4302450000000  0.5270160000000  0.4181330000000 1.0
C      1  0.4325040000000  0.5874120000000  0.5274610000000 1.0
C      1  0.4803040000000  0.5443840000000  0.4046170000000 1.0
C      1  0.4819550000000  0.6046280000000  0.5475060000000 1.0
C      1  0.4848110000000  0.4488370000000  0.6040790000000 1.0
C      1  0.4830190000000  0.3947010000000  0.4464220000000 1.0
C      1  0.5071840000000  0.5426100000000  0.4055660000000 1.0
C      1  0.5159820000000  0.6040560000000  0.5455910000000 1.0
C      1  0.5184840000000  0.4469430000000  0.6009410000000 1.0
C      1  0.5166390000000  0.3934370000000  0.4480960000000 1.0
C      1  0.5115110000000  0.5485240000000  0.6078990000000 1.0
C      1  0.5192530000000  0.3952450000000  0.5522380000000 1.0
C      1  0.5159080000000  0.4494180000000  0.3964610000000 1.0
C      1  0.5159700000000  0.6045020000000  0.4463030000000 1.0
C      1  0.4830700000000  0.5540870000000  0.5985400000000 1.0
C      1  0.4902910000000  0.4011040000000  0.5535770000000 1.0
C      1  0.4870230000000  0.4533470000000  0.3903310000000 1.0
C      1  0.4857460000000  0.6017770000000  0.4455520000000 1.0
C      1  0.5955860000000  0.4607070000000  0.5233790000000 1.0
C      1  0.6054480000000  0.4618560000000  0.4597970000000 1.0
C      1  0.5947530000000  0.5360870000000  0.4708630000000 1.0
C      1  0.5982600000000  0.5272230000000  0.5353500000000 1.0
C      1  0.4041530000000  0.4647440000000  0.5252130000000 1.0
C      1  0.3997800000000  0.4710100000000  0.4628230000000 1.0
C      1  0.3991640000000  0.5358900000000  0.4771760000000 1.0
C      1  0.3941520000000  0.5365030000000  0.5339850000000 1.0
C      1  0.5272620000000  0.5246520000000  0.4370370000000 1.0
C      1  0.5363310000000  0.5623230000000  0.5292020000000 1.0
C      1  0.5262650000000  0.4700810000000  0.5694550000000 1.0
C      1  0.5373480000000  0.4308260000000  0.4716400000000 1.0
C      1  0.4754050000000  0.5220370000000  0.4422530000000 1.0
C      1  0.4634340000000  0.5612040000000  0.5277120000000 1.0
C      1  0.4645220000000  0.4750400000000  0.5666130000000 1.0
C      1  0.4742030000000  0.4284670000000  0.4658210000000 1.0
C      1  0.5623300000000  0.4084230000000  0.5066370000000 1.0
C      1  0.5586380000000  0.4949590000000  0.4079400000000 1.0
C      1  0.5602390000000  0.5942510000000  0.4964040000000 1.0
C      1  0.5524380000000  0.5001920000000  0.5867480000000 1.0
C      1  0.4480920000000  0.4095770000000  0.5040310000000 1.0
C      1  0.4416340000000  0.4977960000000  0.4074070000000 1.0
C      1  0.4412930000000  0.5967500000000  0.4976410000000 1.0
C      1  0.4382300000000  0.5038010000000  0.5880890000000 1.0
C      1  0.5465790000000  0.4468460000000  0.5830160000000 1.0
C      1  0.5482440000000  0.4066450000000  0.4496530000000 1.0
C      1  0.5393180000000  0.5482470000000  0.4156980000000 1.0
C      1  0.5429310000000  0.5876590000000  0.5483970000000 1.0
C      1  0.4553700000000  0.4485290000000  0.5870440000000 1.0
C      1  0.4529010000000  0.4104340000000  0.4481010000000 1.0
C      1  0.4544090000000  0.5481830000000  0.4128000000000 1.0
C      1  0.4571000000000  0.5866820000000  0.5485880000000 1.0
C      1  0.5106630000000  0.5253230000000  0.5591470000000 1.0
C      1  0.5261760000000  0.4378550000000  0.5285200000000 1.0
C      1  0.5233840000000  0.4669620000000  0.4810030000000 1.0
C      1  0.5246680000000  0.5618210000000  0.4725150000000 1.0
C      1  0.4785550000000  0.5225160000000  0.5613990000000 1.0
C      1  0.4713120000000  0.4396460000000  0.5298030000000 1.0
C      1  0.4750910000000  0.4765380000000  0.4441780000000 1.0
C      1  0.4731680000000  0.5618610000000  0.4745290000000 1.0
C      1  0.4880720000000  0.4480630000000  0.4480070000000 1.0
C      1  0.4817960000000  0.5505990000000  0.4473030000000 1.0
C      1  0.4907960000000  0.5662230000000  0.5425420000000 1.0
C      1  0.4810400000000  0.4509770000000  0.5553920000000 1.0
C      1  0.5195490000000  0.4502520000000  0.4546450000000 1.0
C      1  0.5135570000000  0.5518760000000  0.4460260000000 1.0
C      1  0.5135020000000  0.5491980000000  0.5386110000000 1.0
C      1  0.5125490000000  0.4460590000000  0.5558760000000 1.0
C      1  0.5724480000000  0.4438030000000  0.5511810000000 1.0
C      1  0.5681060000000  0.4543010000000  0.4479100000000 1.0
C      1  0.5633360000000  0.5563310000000  0.4567970000000 1.0
C      1  0.5637480000000  0.5415150000000  0.5495630000000 1.0
C      1  0.4333620000000  0.4431640000000  0.5419030000000 1.0
C      1  0.4342940000000  0.4571270000000  0.4483870000000 1.0
C      1  0.4309750000000  0.5503000000000  0.4583190000000 1.0
C      1  0.4330850000000  0.5526180000000  0.5521500000000 1.0
C      1  0.4540120000000  0.5670640000000  0.5007890000000 1.0
C      1  0.4402650000000  0.4924390000000  0.5559350000000 1.0
C      1  0.4616890000000  0.4382830000000  0.4912540000000 1.0
C      1  0.4488470000000  0.5087140000000  0.4386410000000 1.0
C      1  0.5485030000000  0.5640280000000  0.5043270000000 1.0
C      1  0.5393940000000  0.4942960000000  0.5556740000000 1.0
C      1  0.5539960000000  0.4392770000000  0.4948810000000 1.0
C      1  0.5438610000000  0.4978750000000  0.4361630000000 1.0
C      1  0.4413770000000  0.4832040000000  0.5091200000000 1.0
C      1  0.4311780000000  0.4945200000000  0.4818180000000 1.0
C      1  0.4303600000000  0.5206670000000  0.5027320000000 1.0
C      1  0.4436440000000  0.5071400000000  0.5302280000000 1.0
C      1  0.5619160000000  0.4708610000000  0.5038190000000 1.0
C      1  0.5562290000000  0.4896900000000  0.4801170000000 1.0
C      1  0.5592300000000  0.5176000000000  0.4887320000000 1.0
C      1  0.5708710000000  0.5022410000000  0.5147660000000 1.0
C      1  0.4730610000000  0.5198670000000  0.5063160000000 1.0
C      1  0.5216880000000  0.5152280000000  0.5014650000000 1.0
C      1  0.4848420000000  0.4884550000000  0.5042500000000 1.0
END
