TITL C-2782231-7322-1417 0.00106323701420274 125000 -796.085638904371 0 0 139 (C1) n - 1
REM
REM in /home/nfs/bkarasulu/CARBON/AIRSS/Generating-Clusters/REBO/Higher-Symm/SD-CG/HFTN-CG
REM
REM
REM
REM
REM
REM ./C.cell (12c818d87b63d06a65506943cc24bca4)
REM
REM compiler GCC version 9.2.1 20190827 (Red Hat 9.2.1-1)
REM options -cpp -mtune=generic -march=x86-64 -g -O0 -fpre-include=/usr/include/finclude/math-vector-fortran.h
REM seed -1636846052 -117667969 753684281 1946643666 -1437035700 -1763069110 726843615 -1197622651 -103083827 -1359544568 670042744 566536474 -671796947 1538980053 1669996729 222598638 761576411 -264198274 1423863703 1889287510 -1076275181 -1108790823 1860130926 945381491 936775121 1562805276 1738054640 -1406178454 889762851 -77714707 -196982063 1291386423 -1407242694
REM
CELL 1.54180   50.00000   50.00000   50.00000   90.00000   90.00000   90.00000
LATT -1
SFAC C  
C      1  0.5326560000000  0.5015970000000  0.5476470000000 1.0
C      1  0.4603350000000  0.5122720000000  0.5331310000000 1.0
C      1  0.4785830000000  0.5079760000000  0.4847290000000 1.0
C      1  0.5043470000000  0.5113760000000  0.4492740000000 1.0
C      1  0.5226940000000  0.5129950000000  0.5107000000000 1.0
C      1  0.5239360000000  0.4773710000000  0.5404260000000 1.0
C      1  0.4599060000000  0.4831680000000  0.5331610000000 1.0
C      1  0.4791880000000  0.4814610000000  0.4799850000000 1.0
C      1  0.5047200000000  0.4848510000000  0.4495600000000 1.0
C      1  0.5293250000000  0.4844870000000  0.5015060000000 1.0
C      1  0.4311210000000  0.5178830000000  0.4972250000000 1.0
C      1  0.4608780000000  0.5171510000000  0.4391560000000 1.0
C      1  0.5550880000000  0.5118200000000  0.4467410000000 1.0
C      1  0.5699310000000  0.5156140000000  0.5470440000000 1.0
C      1  0.4894330000000  0.5188750000000  0.5696020000000 1.0
C      1  0.4300940000000  0.4882020000000  0.4921510000000 1.0
C      1  0.4618440000000  0.4903640000000  0.4336420000000 1.0
C      1  0.5552740000000  0.4849590000000  0.4475100000000 1.0
C      1  0.5685050000000  0.4840080000000  0.5467870000000 1.0
C      1  0.4804730000000  0.4902280000000  0.5664940000000 1.0
C      1  0.4720720000000  0.5475530000000  0.5089660000000 1.0
C      1  0.4804560000000  0.5524850000000  0.4692930000000 1.0
C      1  0.5228980000000  0.5409470000000  0.4936090000000 1.0
C      1  0.5201770000000  0.5500470000000  0.5254920000000 1.0
C      1  0.4939560000000  0.5645160000000  0.5246620000000 1.0
C      1  0.4795450000000  0.4479390000000  0.5015380000000 1.0
C      1  0.4827360000000  0.4395180000000  0.4694200000000 1.0
C      1  0.5337370000000  0.4553650000000  0.4890690000000 1.0
C      1  0.5464180000000  0.4387050000000  0.5114140000000 1.0
C      1  0.4818410000000  0.4499470000000  0.5306660000000 1.0
C      1  0.4182410000000  0.5615190000000  0.4864090000000 1.0
C      1  0.4733830000000  0.5618830000000  0.4306310000000 1.0
C      1  0.5589360000000  0.5597920000000  0.4571150000000 1.0
C      1  0.5683930000000  0.5647960000000  0.5434220000000 1.0
C      1  0.4800350000000  0.5668390000000  0.5645980000000 1.0
C      1  0.4235620000000  0.4397170000000  0.4970290000000 1.0
C      1  0.4742520000000  0.4405510000000  0.4304570000000 1.0
C      1  0.5700460000000  0.4403200000000  0.4543780000000 1.0
C      1  0.5695110000000  0.4304840000000  0.5424170000000 1.0
C      1  0.4695380000000  0.4331380000000  0.5676690000000 1.0
C      1  0.4784250000000  0.5363000000000  0.4088380000000 1.0
C      1  0.5798160000000  0.5429720000000  0.4465810000000 1.0
C      1  0.5726550000000  0.5463490000000  0.5721290000000 1.0
C      1  0.4689370000000  0.5493100000000  0.5844550000000 1.0
C      1  0.3984980000000  0.5407820000000  0.4942080000000 1.0
C      1  0.4716180000000  0.4609620000000  0.4087670000000 1.0
C      1  0.5901210000000  0.4681890000000  0.4566770000000 1.0
C      1  0.5751500000000  0.4514330000000  0.5684150000000 1.0
C      1  0.4623270000000  0.4596440000000  0.5838500000000 1.0
C      1  0.4012260000000  0.4610020000000  0.4945160000000 1.0
C      1  0.5554950000000  0.5209810000000  0.5758430000000 1.0
C      1  0.4552460000000  0.5207340000000  0.5718600000000 1.0
C      1  0.4042080000000  0.5149690000000  0.4777520000000 1.0
C      1  0.4945710000000  0.5134920000000  0.4065520000000 1.0
C      1  0.5921210000000  0.5243030000000  0.4649430000000 1.0
C      1  0.5551370000000  0.4744030000000  0.5747560000000 1.0
C      1  0.4471780000000  0.4874560000000  0.5708150000000 1.0
C      1  0.4057220000000  0.4821490000000  0.4703960000000 1.0
C      1  0.4932340000000  0.4809530000000  0.4064210000000 1.0
C      1  0.5952960000000  0.4923380000000  0.4692210000000 1.0
C      1  0.4184870000000  0.5402070000000  0.5404640000000 1.0
C      1  0.4260410000000  0.5365730000000  0.4384750000000 1.0
C      1  0.5368630000000  0.5274900000000  0.4150030000000 1.0
C      1  0.5826070000000  0.5353680000000  0.5148010000000 1.0
C      1  0.5207100000000  0.5274320000000  0.5926860000000 1.0
C      1  0.4118210000000  0.4882540000000  0.5374350000000 1.0
C      1  0.4244580000000  0.4765510000000  0.4358160000000 1.0
C      1  0.5395870000000  0.4662430000000  0.4159810000000 1.0
C      1  0.5879660000000  0.4825020000000  0.5121000000000 1.0
C      1  0.5170570000000  0.4677700000000  0.5833670000000 1.0
C      1  0.5179910000000  0.4451520000000  0.5629160000000 1.0
C      1  0.4318500000000  0.4393610000000  0.5283590000000 1.0
C      1  0.4374600000000  0.4617760000000  0.4571900000000 1.0
C      1  0.5304280000000  0.4439920000000  0.4406840000000 1.0
C      1  0.5896020000000  0.4582910000000  0.4953730000000 1.0
C      1  0.5275850000000  0.5556080000000  0.5752240000000 1.0
C      1  0.4356520000000  0.5676600000000  0.5325050000000 1.0
C      1  0.4339730000000  0.5594900000000  0.4577200000000 1.0
C      1  0.5262670000000  0.5522450000000  0.4364020000000 1.0
C      1  0.5645180000000  0.5589490000000  0.5043500000000 1.0
C      1  0.4329410000000  0.5811830000000  0.5063340000000 1.0
C      1  0.4628200000000  0.5787870000000  0.4587710000000 1.0
C      1  0.5288420000000  0.5770310000000  0.4598290000000 1.0
C      1  0.5485900000000  0.5826910000000  0.5222480000000 1.0
C      1  0.5083070000000  0.5752020000000  0.5612830000000 1.0
C      1  0.4466870000000  0.4168890000000  0.5089440000000 1.0
C      1  0.4609200000000  0.4193520000000  0.4534630000000 1.0
C      1  0.5427290000000  0.4220100000000  0.4620980000000 1.0
C      1  0.5491920000000  0.4095390000000  0.5246920000000 1.0
C      1  0.4956850000000  0.4239620000000  0.5473600000000 1.0
C      1  0.4547090000000  0.5918930000000  0.4897530000000 1.0
C      1  0.4969070000000  0.5883530000000  0.4630370000000 1.0
C      1  0.5413700000000  0.5886970000000  0.4894140000000 1.0
C      1  0.5210180000000  0.5904570000000  0.5372500000000 1.0
C      1  0.4990290000000  0.5937950000000  0.5139650000000 1.0
C      1  0.4639850000000  0.4072540000000  0.4829200000000 1.0
C      1  0.5178580000000  0.4078930000000  0.4807850000000 1.0
C      1  0.5474880000000  0.4046980000000  0.4912810000000 1.0
C      1  0.5219200000000  0.4034140000000  0.5402090000000 1.0
C      1  0.4786170000000  0.4116270000000  0.5198020000000 1.0
C      1  0.5512470000000  0.5253380000000  0.5213050000000 1.0
C      1  0.5189530000000  0.5205920000000  0.5596430000000 1.0
C      1  0.4404730000000  0.5266710000000  0.5213830000000 1.0
C      1  0.4687210000000  0.5237200000000  0.4645540000000 1.0
C      1  0.5312390000000  0.5249560000000  0.4542970000000 1.0
C      1  0.5565410000000  0.4929970000000  0.5168940000000 1.0
C      1  0.4948680000000  0.4753090000000  0.5416940000000 1.0
C      1  0.4335190000000  0.4720710000000  0.5182210000000 1.0
C      1  0.4656700000000  0.4733220000000  0.4568000000000 1.0
C      1  0.5314390000000  0.4733250000000  0.4541660000000 1.0
C      1  0.5481190000000  0.5501390000000  0.4825860000000 1.0
C      1  0.5383900000000  0.5531130000000  0.5470460000000 1.0
C      1  0.4646480000000  0.5630240000000  0.5381360000000 1.0
C      1  0.4513580000000  0.5521860000000  0.4863100000000 1.0
C      1  0.4970910000000  0.5422550000000  0.4435710000000 1.0
C      1  0.5657400000000  0.4461190000000  0.4853770000000 1.0
C      1  0.5411430000000  0.4501990000000  0.5408400000000 1.0
C      1  0.4534710000000  0.4518500000000  0.5459200000000 1.0
C      1  0.4515500000000  0.4457770000000  0.4819240000000 1.0
C      1  0.4990120000000  0.4517920000000  0.4469980000000 1.0
C      1  0.3930950000000  0.5393000000000  0.5217100000000 1.0
C      1  0.4473180000000  0.5347180000000  0.4169750000000 1.0
C      1  0.5685960000000  0.5274290000000  0.4217150000000 1.0
C      1  0.5927500000000  0.5410010000000  0.5449930000000 1.0
C      1  0.4896520000000  0.5321180000000  0.6013230000000 1.0
C      1  0.3936600000000  0.4734960000000  0.5186750000000 1.0
C      1  0.4435940000000  0.4762340000000  0.4108700000000 1.0
C      1  0.5708000000000  0.4629040000000  0.4291350000000 1.0
C      1  0.5874960000000  0.4590540000000  0.5371070000000 1.0
C      1  0.4897410000000  0.4722550000000  0.5916940000000 1.0
C      1  0.5351340000000  0.4966450000000  0.5872520000000 1.0
C      1  0.5237940000000  0.4960820000000  0.4111580000000 1.0
C      1  0.4270860000000  0.5106930000000  0.5554050000000 1.0
C      1  0.4129360000000  0.5064710000000  0.4466480000000 1.0
C      1  0.5931120000000  0.5125240000000  0.4969140000000 1.0
C      1  0.4936060000000  0.5257820000000  0.5032010000000 1.0
C      1  0.5037290000000  0.4663570000000  0.4902140000000 1.0
C      1  0.4846680000000  0.5970580000000  0.4893560000000 1.0
C      1  0.4932000000000  0.4057820000000  0.4924990000000 1.0
END
