TITL C-2782238-9940-1429 -0.000188918834546434 125000 -245.074499253163 0 0 43 (C1) n - 1
REM
REM in /home/nfs/bkarasulu/CARBON/AIRSS/Generating-Clusters/REBO/Higher-Symm/SD-CG/HFTN-CG
REM
REM
REM
REM
REM
REM ./C.cell (12c818d87b63d06a65506943cc24bca4)
REM
REM compiler GCC version 9.2.1 20190827 (Red Hat 9.2.1-1)
REM options -cpp -mtune=generic -march=x86-64 -g -O0 -fpre-include=/usr/include/finclude/math-vector-fortran.h
REM seed 1512387688 -1569283144 -386370842 -1176441179 476534824 -1841242110 1880689338 1849755761 -587274500 -1471729203 -29667776 869721658 -615066669 -1052332123 1392022619 647300211 522304774 -298989762 749798933 668970200 1368179324 1687373539 -151742871 -1786152586 -281615782 2026284841 1365726293 -1402522795 -1616655467 -1748720522 -532973644 -602998117 -1704719927
REM
CELL 1.54180   50.00000   50.00000   50.00000   90.00000   90.00000   90.00000
LATT -1
SFAC C  
C      1  0.5408590000000  0.4717810000000  0.5203580000000 1.0
C      1  0.5037710000000  0.4567180000000  0.5567060000000 1.0
C      1  0.4557260000000  0.4538430000000  0.5353320000000 1.0
C      1  0.4468970000000  0.4524370000000  0.4865830000000 1.0
C      1  0.4625580000000  0.4469090000000  0.4502380000000 1.0
C      1  0.5086170000000  0.4669060000000  0.4518850000000 1.0
C      1  0.5545000000000  0.4513380000000  0.4752760000000 1.0
C      1  0.4468510000000  0.4782400000000  0.5400130000000 1.0
C      1  0.4386920000000  0.4770960000000  0.4831630000000 1.0
C      1  0.4612680000000  0.4741730000000  0.4484510000000 1.0
C      1  0.5309290000000  0.4834220000000  0.4384780000000 1.0
C      1  0.5628950000000  0.4774660000000  0.4772760000000 1.0
C      1  0.5473750000000  0.4902540000000  0.5444950000000 1.0
C      1  0.5019620000000  0.4806220000000  0.5680710000000 1.0
C      1  0.4643890000000  0.4348840000000  0.5093650000000 1.0
C      1  0.4687130000000  0.4279120000000  0.4776170000000 1.0
C      1  0.4939860000000  0.4365250000000  0.4577990000000 1.0
C      1  0.5227430000000  0.4433670000000  0.4707010000000 1.0
C      1  0.5349880000000  0.4439150000000  0.5014300000000 1.0
C      1  0.5179600000000  0.4487350000000  0.5281950000000 1.0
C      1  0.4862370000000  0.4410590000000  0.5333390000000 1.0
C      1  0.5037930000000  0.5590630000000  0.5424110000000 1.0
C      1  0.4720990000000  0.5559340000000  0.5300900000000 1.0
C      1  0.4746000000000  0.5543920000000  0.4960670000000 1.0
C      1  0.4901550000000  0.5465770000000  0.4691330000000 1.0
C      1  0.5192520000000  0.5562320000000  0.4660260000000 1.0
C      1  0.5362670000000  0.5510600000000  0.4911010000000 1.0
C      1  0.5263520000000  0.5650860000000  0.5176170000000 1.0
C      1  0.4848150000000  0.4868920000000  0.4546180000000 1.0
C      1  0.5359420000000  0.5071680000000  0.4449260000000 1.0
C      1  0.5505660000000  0.4914820000000  0.4975610000000 1.0
C      1  0.5441400000000  0.5151160000000  0.5453610000000 1.0
C      1  0.4991300000000  0.5065030000000  0.5617420000000 1.0
C      1  0.4508060000000  0.5043670000000  0.5356240000000 1.0
C      1  0.4433520000000  0.5035460000000  0.4838650000000 1.0
C      1  0.5216330000000  0.5223350000000  0.4677400000000 1.0
C      1  0.5369910000000  0.5178560000000  0.4959960000000 1.0
C      1  0.5269100000000  0.5318050000000  0.5246150000000 1.0
C      1  0.4975120000000  0.5263980000000  0.5385980000000 1.0
C      1  0.4699620000000  0.5240550000000  0.5218850000000 1.0
C      1  0.4678250000000  0.5214650000000  0.4901410000000 1.0
C      1  0.4900760000000  0.5129480000000  0.4679290000000 1.0
C      1  0.4946140000000  0.5755570000000  0.5136860000000 1.0
END
