TITL C-2782235-7892-652 0.000438021284173564 125000 -431.936541541316 0 0 75 (C1) n - 1
REM
REM in /home/nfs/bkarasulu/CARBON/AIRSS/Generating-Clusters/REBO/Higher-Symm/SD-CG/HFTN-CG
REM
REM
REM
REM
REM
REM ./C.cell (12c818d87b63d06a65506943cc24bca4)
REM
REM compiler GCC version 9.2.1 20190827 (Red Hat 9.2.1-1)
REM options -cpp -mtune=generic -march=x86-64 -g -O0 -fpre-include=/usr/include/finclude/math-vector-fortran.h
REM seed 777031424 1240605122 1311344433 33321837 -1610579897 1692746755 -454861965 -974068969 -52802412 1862017900 -195845475 774986334 -1532264010 750255525 -855755899 -761948747 -1411645373 930798642 1095777196 1111531222 -41104710 1864688186 -646918392 2108186090 -1732921904 1760340487 1513655303 1745870795 318250969 -1773808942 -2099279904 1051477086 -2078675806
REM
CELL 1.54180   50.00000   50.00000   50.00000   90.00000   90.00000   90.00000
LATT -1
SFAC C  
C      1  0.4654750000000  0.5473370000000  0.4941110000000 1.0
C      1  0.5289030000000  0.4762030000000  0.5119330000000 1.0
C      1  0.4613650000000  0.4275190000000  0.4897650000000 1.0
C      1  0.4432080000000  0.5532750000000  0.4758080000000 1.0
C      1  0.4339110000000  0.5077510000000  0.4791940000000 1.0
C      1  0.5598900000000  0.4992130000000  0.5498230000000 1.0
C      1  0.5543280000000  0.4237960000000  0.4840480000000 1.0
C      1  0.5360740000000  0.4649140000000  0.4364730000000 1.0
C      1  0.5188150000000  0.4954780000000  0.4754640000000 1.0
C      1  0.4882790000000  0.4313360000000  0.4860280000000 1.0
C      1  0.5493160000000  0.5499390000000  0.5059530000000 1.0
C      1  0.4957370000000  0.4876720000000  0.4225350000000 1.0
C      1  0.5248050000000  0.4852400000000  0.4199630000000 1.0
C      1  0.5329580000000  0.4091650000000  0.4999090000000 1.0
C      1  0.4770360000000  0.4486530000000  0.5528750000000 1.0
C      1  0.5618300000000  0.5206460000000  0.4938810000000 1.0
C      1  0.4663100000000  0.4981970000000  0.4738860000000 1.0
C      1  0.5109200000000  0.4723190000000  0.5375830000000 1.0
C      1  0.4650050000000  0.5498290000000  0.4542150000000 1.0
C      1  0.4993380000000  0.5150390000000  0.4596950000000 1.0
C      1  0.4682650000000  0.5284150000000  0.5657680000000 1.0
C      1  0.4310120000000  0.4609460000000  0.4620780000000 1.0
C      1  0.5509450000000  0.4506220000000  0.4633550000000 1.0
C      1  0.5265990000000  0.5349030000000  0.4250960000000 1.0
C      1  0.5404360000000  0.5100240000000  0.4204440000000 1.0
C      1  0.4841050000000  0.5246360000000  0.4860620000000 1.0
C      1  0.4962650000000  0.5709220000000  0.4847960000000 1.0
C      1  0.5364320000000  0.5212970000000  0.4723180000000 1.0
C      1  0.5889970000000  0.4643310000000  0.5365710000000 1.0
C      1  0.4388680000000  0.5083400000000  0.4468250000000 1.0
C      1  0.5255140000000  0.5080400000000  0.5792950000000 1.0
C      1  0.4931680000000  0.5568100000000  0.4610430000000 1.0
C      1  0.5361190000000  0.4487730000000  0.5003860000000 1.0
C      1  0.5278740000000  0.5635970000000  0.5264820000000 1.0
C      1  0.5089210000000  0.4301300000000  0.5082000000000 1.0
C      1  0.5220700000000  0.4662830000000  0.4656900000000 1.0
C      1  0.4720260000000  0.4689240000000  0.4874920000000 1.0
C      1  0.5543190000000  0.4969360000000  0.5171370000000 1.0
C      1  0.4263120000000  0.5157280000000  0.5400400000000 1.0
C      1  0.4498400000000  0.5065650000000  0.5092310000000 1.0
C      1  0.4395970000000  0.5376300000000  0.5527200000000 1.0
C      1  0.5344280000000  0.5244680000000  0.5227300000000 1.0
C      1  0.4854630000000  0.5525060000000  0.5494440000000 1.0
C      1  0.5288060000000  0.5274920000000  0.5526540000000 1.0
C      1  0.4978100000000  0.4439500000000  0.5331950000000 1.0
C      1  0.5782520000000  0.4733210000000  0.5124080000000 1.0
C      1  0.4640370000000  0.4950750000000  0.5632510000000 1.0
C      1  0.4688620000000  0.5610810000000  0.5226200000000 1.0
C      1  0.4945310000000  0.4550310000000  0.4660250000000 1.0
C      1  0.4422420000000  0.5609850000000  0.5385280000000 1.0
C      1  0.5758200000000  0.4737690000000  0.5601880000000 1.0
C      1  0.4860630000000  0.5130520000000  0.4351390000000 1.0
C      1  0.4769000000000  0.4766830000000  0.4487060000000 1.0
C      1  0.4452250000000  0.4796000000000  0.4454920000000 1.0
C      1  0.4824870000000  0.4741990000000  0.5656480000000 1.0
C      1  0.4967540000000  0.5003880000000  0.5356440000000 1.0
C      1  0.5664300000000  0.5143970000000  0.4607360000000 1.0
C      1  0.4189960000000  0.5193340000000  0.5078250000000 1.0
C      1  0.5047830000000  0.5225210000000  0.5108690000000 1.0
C      1  0.5440540000000  0.5602430000000  0.4756890000000 1.0
C      1  0.5141460000000  0.4781050000000  0.5696260000000 1.0
C      1  0.4182310000000  0.5439230000000  0.4858920000000 1.0
C      1  0.4383000000000  0.4913940000000  0.5498150000000 1.0
C      1  0.4977440000000  0.5165690000000  0.5619040000000 1.0
C      1  0.4604430000000  0.5260370000000  0.4380430000000 1.0
C      1  0.5225100000000  0.5465640000000  0.4542730000000 1.0
C      1  0.4998510000000  0.4845860000000  0.4992090000000 1.0
C      1  0.5468700000000  0.4824290000000  0.5759290000000 1.0
C      1  0.4549040000000  0.4335110000000  0.5564480000000 1.0
C      1  0.4454380000000  0.4517120000000  0.4848600000000 1.0
C      1  0.4730520000000  0.4986300000000  0.5142320000000 1.0
C      1  0.5107670000000  0.5629420000000  0.5500950000000 1.0
C      1  0.5659710000000  0.5085960000000  0.4342170000000 1.0
C      1  0.5687910000000  0.4536090000000  0.4922130000000 1.0
C      1  0.4998560000000  0.5559250000000  0.5122810000000 1.0
END
