TITL C-2782235-7892-554 0.000300687936159955 125000 -249.015142800602 0 0 44 (C1) n - 1
REM
REM in /home/nfs/bkarasulu/CARBON/AIRSS/Generating-Clusters/REBO/Higher-Symm/SD-CG/HFTN-CG
REM
REM
REM
REM
REM
REM ./C.cell (12c818d87b63d06a65506943cc24bca4)
REM
REM compiler GCC version 9.2.1 20190827 (Red Hat 9.2.1-1)
REM options -cpp -mtune=generic -march=x86-64 -g -O0 -fpre-include=/usr/include/finclude/math-vector-fortran.h
REM seed -1240303057 548269510 -1900419916 845430706 -1165331655 -1639841265 -233075512 1165746968 1690753091 510452870 -1096351103 1869383317 338645759 1294239407 -1023961172 -742855649 -748607599 1373707669 -1112858777 107686382 698162047 1627609937 1856247597 532049210 -2006822494 -1805775695 1803084486 -87362635 -1410996642 -657389045 1902400334 469109732 455106464
REM
CELL 1.54180   50.00000   50.00000   50.00000   90.00000   90.00000   90.00000
LATT -1
SFAC C  
C      1  0.4901200000000  0.4677830000000  0.5755810000000 1.0
C      1  0.4850310000000  0.4531190000000  0.4355650000000 1.0
C      1  0.4875250000000  0.5814070000000  0.4917620000000 1.0
C      1  0.5155270000000  0.4678620000000  0.5749030000000 1.0
C      1  0.5102590000000  0.4501930000000  0.4346510000000 1.0
C      1  0.5129070000000  0.5807160000000  0.4906820000000 1.0
C      1  0.4895910000000  0.4564760000000  0.5272520000000 1.0
C      1  0.4892990000000  0.5019010000000  0.4495020000000 1.0
C      1  0.4857320000000  0.5457040000000  0.5278410000000 1.0
C      1  0.5167220000000  0.4542400000000  0.5260310000000 1.0
C      1  0.5161690000000  0.4977750000000  0.4479530000000 1.0
C      1  0.5127860000000  0.5446250000000  0.5247520000000 1.0
C      1  0.4463290000000  0.5514490000000  0.5250410000000 1.0
C      1  0.4501830000000  0.4526910000000  0.5322940000000 1.0
C      1  0.4498410000000  0.5004740000000  0.4434910000000 1.0
C      1  0.5523040000000  0.5502380000000  0.5248260000000 1.0
C      1  0.5561820000000  0.4548100000000  0.5320780000000 1.0
C      1  0.5553730000000  0.4910750000000  0.4453100000000 1.0
C      1  0.4859040000000  0.4499320000000  0.4961090000000 1.0
C      1  0.4857050000000  0.5313370000000  0.4593630000000 1.0
C      1  0.4801690000000  0.5228140000000  0.5486400000000 1.0
C      1  0.5222470000000  0.4471970000000  0.4960730000000 1.0
C      1  0.5219130000000  0.5279400000000  0.4570700000000 1.0
C      1  0.5165050000000  0.5213530000000  0.5462070000000 1.0
C      1  0.4848550000000  0.4957700000000  0.5328710000000 1.0
C      1  0.4838900000000  0.4779220000000  0.4809520000000 1.0
C      1  0.4833000000000  0.5304630000000  0.4910270000000 1.0
C      1  0.5179110000000  0.4939100000000  0.5303720000000 1.0
C      1  0.5170580000000  0.4736100000000  0.4797990000000 1.0
C      1  0.5163980000000  0.5290590000000  0.4881080000000 1.0
C      1  0.4569180000000  0.5249140000000  0.4458690000000 1.0
C      1  0.4509880000000  0.5362170000000  0.5450100000000 1.0
C      1  0.4566400000000  0.4426790000000  0.5095760000000 1.0
C      1  0.5514830000000  0.5162390000000  0.4484960000000 1.0
C      1  0.5459060000000  0.5361070000000  0.5452380000000 1.0
C      1  0.5515560000000  0.4444500000000  0.5092060000000 1.0
C      1  0.5322990000000  0.4702840000000  0.5485520000000 1.0
C      1  0.5298120000000  0.4696730000000  0.4495500000000 1.0
C      1  0.5298370000000  0.5562670000000  0.5009070000000 1.0
C      1  0.4724940000000  0.4705760000000  0.5496730000000 1.0
C      1  0.4705510000000  0.4760600000000  0.4512090000000 1.0
C      1  0.4700460000000  0.5579940000000  0.5031190000000 1.0
C      1  0.5231570000000  0.4991790000000  0.4994570000000 1.0
C      1  0.4775230000000  0.5010330000000  0.5015970000000 1.0
END
