TITL C-2782225-7408-665 0.00076225241445414 125000 -235.836456457387 0 0 44 (C1) n - 1
REM
REM in /home/nfs/bkarasulu/CARBON/AIRSS/Generating-Clusters/REBO/Higher-Symm/SD-CG/HFTN-CG
REM
REM
REM
REM
REM
REM ./C.cell (12c818d87b63d06a65506943cc24bca4)
REM
REM compiler GCC version 9.2.1 20190827 (Red Hat 9.2.1-1)
REM options -cpp -mtune=generic -march=x86-64 -g -O0 -fpre-include=/usr/include/finclude/math-vector-fortran.h
REM seed 1815245737 308300116 -738508415 940719189 343821977 1391740907 1930645338 4443677 -420854325 -1564379802 -1912123877 778985216 918855855 145060419 -176366680 626866145 -2059946131 -1445315345 -1425098900 -1102301673 1733996598 495986112 -833841218 1230755318 880605739 424159985 -1721070741 1530693181 -1299651336 930784172 -2755559 -115017454 -404055610
REM
CELL 1.54180   50.00000   50.00000   50.00000   90.00000   90.00000   90.00000
LATT -1
SFAC C  
C      1  0.5166300000000  0.5254730000000  0.4817900000000 1.0
C      1  0.4832180000000  0.4807070000000  0.5452820000000 1.0
C      1  0.5170090000000  0.4993130000000  0.5117100000000 1.0
C      1  0.4198290000000  0.5660990000000  0.5072710000000 1.0
C      1  0.4586680000000  0.5391640000000  0.5254630000000 1.0
C      1  0.5124060000000  0.4256500000000  0.4883760000000 1.0
C      1  0.5446540000000  0.4900260000000  0.3922490000000 1.0
C      1  0.4922810000000  0.4640840000000  0.4528720000000 1.0
C      1  0.4697350000000  0.4547720000000  0.5357160000000 1.0
C      1  0.4660030000000  0.4437330000000  0.5066520000000 1.0
C      1  0.5147730000000  0.4821390000000  0.5365880000000 1.0
C      1  0.4680450000000  0.4791230000000  0.4660640000000 1.0
C      1  0.4740000000000  0.4497580000000  0.4750070000000 1.0
C      1  0.4901370000000  0.5189720000000  0.5112610000000 1.0
C      1  0.5073220000000  0.5574540000000  0.5368690000000 1.0
C      1  0.4577180000000  0.5241320000000  0.4884730000000 1.0
C      1  0.5349380000000  0.5179760000000  0.4602610000000 1.0
C      1  0.5347140000000  0.5266950000000  0.5104960000000 1.0
C      1  0.5508180000000  0.4580960000000  0.5053760000000 1.0
C      1  0.5337250000000  0.4663830000000  0.5679020000000 1.0
C      1  0.5066740000000  0.4811590000000  0.5698940000000 1.0
C      1  0.5203180000000  0.4716830000000  0.4600390000000 1.0
C      1  0.4519290000000  0.5233520000000  0.5520280000000 1.0
C      1  0.4835710000000  0.5571770000000  0.4643590000000 1.0
C      1  0.5637380000000  0.4610710000000  0.5625080000000 1.0
C      1  0.4241330000000  0.5172140000000  0.4883860000000 1.0
C      1  0.4859810000000  0.5353010000000  0.4817010000000 1.0
C      1  0.5294470000000  0.5463240000000  0.5328610000000 1.0
C      1  0.5619000000000  0.5234630000000  0.4691670000000 1.0
C      1  0.4904360000000  0.4230700000000  0.4995780000000 1.0
C      1  0.4460900000000  0.4940140000000  0.4802130000000 1.0
C      1  0.5354960000000  0.4586760000000  0.5346360000000 1.0
C      1  0.4352400000000  0.5436100000000  0.5053940000000 1.0
C      1  0.5307750000000  0.4948590000000  0.4440240000000 1.0
C      1  0.4717200000000  0.5059630000000  0.5343390000000 1.0
C      1  0.5323460000000  0.4474600000000  0.4803790000000 1.0
C      1  0.5378960000000  0.4923790000000  0.4174600000000 1.0
C      1  0.4804330000000  0.5763580000000  0.4992930000000 1.0
C      1  0.4838840000000  0.5544750000000  0.5184500000000 1.0
C      1  0.5633500000000  0.5270880000000  0.4967050000000 1.0
C      1  0.5277880000000  0.4793580000000  0.4919640000000 1.0
C      1  0.4432400000000  0.4652260000000  0.4947560000000 1.0
C      1  0.5695760000000  0.4555060000000  0.5336190000000 1.0
C      1  0.4774200000000  0.5954630000000  0.4825700000000 1.0
END
