TITL C-2782234-8014-455 -0.0041556509153479 125000 -684.131405613369 0 0 118 (C1) n - 1
REM
REM in /home/nfs/bkarasulu/CARBON/AIRSS/Generating-Clusters/REBO/Higher-Symm/SD-CG/HFTN-CG
REM
REM
REM
REM
REM
REM ./C.cell (12c818d87b63d06a65506943cc24bca4)
REM
REM compiler GCC version 9.2.1 20190827 (Red Hat 9.2.1-1)
REM options -cpp -mtune=generic -march=x86-64 -g -O0 -fpre-include=/usr/include/finclude/math-vector-fortran.h
REM seed -1280855668 -144129974 -1204874642 -38861810 1655684225 283761315 1967182689 -426962536 1194354326 -2126429253 1887022655 -1431538576 1510842064 -925630416 999034297 -45761927 1614441456 -900321502 -1423719762 2054174203 -245287071 1978282200 -2131683261 -273523405 508785541 -1018614425 -103646955 -751067379 914717961 -182331327 -1622535670 -376837283 774234001
REM
CELL 1.54180   50.00000   50.00000   50.00000   90.00000   90.00000   90.00000
LATT -1
SFAC C  
C      1  0.5578250000000  0.5673970000000  0.5341360000000 1.0
C      1  0.5707760000000  0.5222180000000  0.5543630000000 1.0
C      1  0.4278170000000  0.5379300000000  0.5056670000000 1.0
C      1  0.5533380000000  0.4115230000000  0.4975490000000 1.0
C      1  0.5464760000000  0.4291010000000  0.4737180000000 1.0
C      1  0.4922640000000  0.3979200000000  0.5054490000000 1.0
C      1  0.4486140000000  0.5661260000000  0.5443250000000 1.0
C      1  0.4241140000000  0.5051920000000  0.5396200000000 1.0
C      1  0.4292780000000  0.5582930000000  0.5247960000000 1.0
C      1  0.4656680000000  0.4668960000000  0.5142260000000 1.0
C      1  0.5007940000000  0.5258860000000  0.4540970000000 1.0
C      1  0.5056220000000  0.5068780000000  0.5559230000000 1.0
C      1  0.4746860000000  0.4404350000000  0.5240870000000 1.0
C      1  0.5795110000000  0.4704050000000  0.4421560000000 1.0
C      1  0.5228800000000  0.4399980000000  0.4428260000000 1.0
C      1  0.4741150000000  0.4916310000000  0.4811460000000 1.0
C      1  0.4026660000000  0.4818000000000  0.4977120000000 1.0
C      1  0.5820050000000  0.4947960000000  0.5110260000000 1.0
C      1  0.5053720000000  0.4637040000000  0.5150070000000 1.0
C      1  0.5714200000000  0.4910760000000  0.4777210000000 1.0
C      1  0.4689770000000  0.5209170000000  0.5291500000000 1.0
C      1  0.5203150000000  0.5427800000000  0.4705400000000 1.0
C      1  0.5342980000000  0.5887810000000  0.5263140000000 1.0
C      1  0.5973680000000  0.5411460000000  0.5164510000000 1.0
C      1  0.4425580000000  0.4996540000000  0.4312990000000 1.0
C      1  0.4760390000000  0.5692860000000  0.5327560000000 1.0
C      1  0.4646380000000  0.5740670000000  0.4549200000000 1.0
C      1  0.5136690000000  0.4740910000000  0.4112650000000 1.0
C      1  0.5662890000000  0.5569430000000  0.4861450000000 1.0
C      1  0.4837430000000  0.4338660000000  0.4766570000000 1.0
C      1  0.4622410000000  0.5261780000000  0.4388330000000 1.0
C      1  0.4516080000000  0.5461460000000  0.5673370000000 1.0
C      1  0.4462400000000  0.4188340000000  0.5068580000000 1.0
C      1  0.4626040000000  0.4822090000000  0.5598730000000 1.0
C      1  0.4407770000000  0.5093110000000  0.5035350000000 1.0
C      1  0.5626140000000  0.4537890000000  0.4663570000000 1.0
C      1  0.5270770000000  0.4659500000000  0.4356400000000 1.0
C      1  0.4110590000000  0.4978820000000  0.4430450000000 1.0
C      1  0.5134220000000  0.5875330000000  0.4704310000000 1.0
C      1  0.5883010000000  0.5173360000000  0.5333980000000 1.0
C      1  0.5300860000000  0.5633370000000  0.4460760000000 1.0
C      1  0.5057390000000  0.4974160000000  0.5881520000000 1.0
C      1  0.5779270000000  0.5457820000000  0.4603210000000 1.0
C      1  0.5769800000000  0.5607840000000  0.5117530000000 1.0
C      1  0.5156850000000  0.5848920000000  0.5036560000000 1.0
C      1  0.4738290000000  0.5170800000000  0.4698540000000 1.0
C      1  0.5238100000000  0.5352970000000  0.5191810000000 1.0
C      1  0.4730780000000  0.5481410000000  0.4837290000000 1.0
C      1  0.5479570000000  0.5287600000000  0.4804400000000 1.0
C      1  0.5356020000000  0.5775240000000  0.5583880000000 1.0
C      1  0.5143370000000  0.5266250000000  0.4132510000000 1.0
C      1  0.4288730000000  0.4373000000000  0.4892360000000 1.0
C      1  0.4829730000000  0.5802540000000  0.4813830000000 1.0
C      1  0.5512010000000  0.5138170000000  0.4517810000000 1.0
C      1  0.5760610000000  0.4653790000000  0.5224990000000 1.0
C      1  0.5010800000000  0.5311790000000  0.5879810000000 1.0
C      1  0.4520220000000  0.4238580000000  0.5385460000000 1.0
C      1  0.4438400000000  0.5265730000000  0.5443180000000 1.0
C      1  0.4807270000000  0.4695670000000  0.4485740000000 1.0
C      1  0.5252410000000  0.4411210000000  0.5748490000000 1.0
C      1  0.5335090000000  0.4718800000000  0.5076440000000 1.0
C      1  0.5497380000000  0.4356740000000  0.5544490000000 1.0
C      1  0.5763140000000  0.4953590000000  0.4380810000000 1.0
C      1  0.4666410000000  0.4939140000000  0.4092580000000 1.0
C      1  0.4970700000000  0.5720180000000  0.4448840000000 1.0
C      1  0.5979210000000  0.5180460000000  0.4949200000000 1.0
C      1  0.5153780000000  0.5355500000000  0.5487450000000 1.0
C      1  0.4720750000000  0.4458080000000  0.4257710000000 1.0
C      1  0.4354570000000  0.5002540000000  0.4757190000000 1.0
C      1  0.4012700000000  0.4831070000000  0.4659460000000 1.0
C      1  0.4608040000000  0.4935880000000  0.5188160000000 1.0
C      1  0.4890650000000  0.5443440000000  0.4280530000000 1.0
C      1  0.5487810000000  0.5414080000000  0.5494840000000 1.0
C      1  0.4695350000000  0.4342180000000  0.5630190000000 1.0
C      1  0.5063260000000  0.5834890000000  0.5740450000000 1.0
C      1  0.5789110000000  0.4608370000000  0.4921200000000 1.0
C      1  0.5241400000000  0.5557250000000  0.5821290000000 1.0
C      1  0.4274110000000  0.5316980000000  0.4738630000000 1.0
C      1  0.4512820000000  0.4748680000000  0.4505490000000 1.0
C      1  0.4492370000000  0.5466360000000  0.4593010000000 1.0
C      1  0.5343480000000  0.5245650000000  0.5843920000000 1.0
C      1  0.4788970000000  0.4792120000000  0.5898270000000 1.0
C      1  0.4712550000000  0.4126440000000  0.4949590000000 1.0
C      1  0.4962670000000  0.4927750000000  0.4471770000000 1.0
C      1  0.4844400000000  0.4617200000000  0.4885720000000 1.0
C      1  0.4820770000000  0.4238330000000  0.4463230000000 1.0
C      1  0.4913670000000  0.5057180000000  0.4209910000000 1.0
C      1  0.4976000000000  0.5611930000000  0.5530730000000 1.0
C      1  0.4316780000000  0.4300930000000  0.4576180000000 1.0
C      1  0.4135890000000  0.4572200000000  0.5078490000000 1.0
C      1  0.5875550000000  0.5193730000000  0.4673210000000 1.0
C      1  0.4302070000000  0.4669440000000  0.4728550000000 1.0
C      1  0.5429400000000  0.5168460000000  0.5091110000000 1.0
C      1  0.5228600000000  0.4982230000000  0.3979740000000 1.0
C      1  0.4845560000000  0.4684400000000  0.4087850000000 1.0
C      1  0.4357100000000  0.4798360000000  0.5467610000000 1.0
C      1  0.5100160000000  0.5531800000000  0.4980130000000 1.0
C      1  0.5142260000000  0.4265210000000  0.4696380000000 1.0
C      1  0.5201680000000  0.4132950000000  0.4993050000000 1.0
C      1  0.4895430000000  0.4530240000000  0.5628770000000 1.0
C      1  0.5517510000000  0.5076920000000  0.5707350000000 1.0
C      1  0.4842010000000  0.5903000000000  0.5122330000000 1.0
C      1  0.5372740000000  0.5340070000000  0.4306090000000 1.0
C      1  0.5599210000000  0.4602130000000  0.5440270000000 1.0
C      1  0.5062670000000  0.4311310000000  0.5227000000000 1.0
C      1  0.5170200000000  0.4718430000000  0.5713990000000 1.0
C      1  0.5620310000000  0.5544140000000  0.4385230000000 1.0
C      1  0.5198780000000  0.4243990000000  0.5483930000000 1.0
C      1  0.4815670000000  0.5440650000000  0.5143820000000 1.0
C      1  0.4697540000000  0.5316350000000  0.5844560000000 1.0
C      1  0.4916170000000  0.4798210000000  0.5416920000000 1.0
C      1  0.4233010000000  0.4578590000000  0.5345260000000 1.0
C      1  0.4444360000000  0.4332820000000  0.4367950000000 1.0
C      1  0.4041730000000  0.5028160000000  0.5180880000000 1.0
C      1  0.4606860000000  0.5047920000000  0.5853800000000 1.0
C      1  0.5413570000000  0.4843510000000  0.5550320000000 1.0
C      1  0.5446610000000  0.4815810000000  0.4579590000000 1.0
C      1  0.5438170000000  0.4921350000000  0.5225260000000 1.0
END
