TITL C-2782233-7966-1283 -0.00350136433946118 125000 -760.688758902049 0 0 126 (C1) n - 1
REM
REM in /home/nfs/bkarasulu/CARBON/AIRSS/Generating-Clusters/REBO/Higher-Symm/SD-CG/HFTN-CG
REM
REM
REM
REM
REM
REM ./C.cell (12c818d87b63d06a65506943cc24bca4)
REM
REM compiler GCC version 9.2.1 20190827 (Red Hat 9.2.1-1)
REM options -cpp -mtune=generic -march=x86-64 -g -O0 -fpre-include=/usr/include/finclude/math-vector-fortran.h
REM seed 2141283912 1453634593 354734713 -346064053 1757980188 -321500280 1913048717 -937123198 -1964534346 397016422 -589058336 -561633908 1999510813 1506477123 1512077499 -1176438811 1911104196 1357966979 -1582721760 -662111344 873741124 -840666691 -1528046071 1556110621 443557185 1613386093 1088777133 757107952 366691316 353842180 2007688225 -1526287129 106955854
REM
CELL 1.54180   50.00000   50.00000   50.00000   90.00000   90.00000   90.00000
LATT -1
SFAC C  
C      1  0.4753440000000  0.4992490000000  0.4698710000000 1.0
C      1  0.4991650000000  0.4769450000000  0.4723000000000 1.0
C      1  0.4719830000000  0.4749170000000  0.5013010000000 1.0
C      1  0.5382920000000  0.5079930000000  0.4686720000000 1.0
C      1  0.4731920000000  0.5016450000000  0.5307980000000 1.0
C      1  0.5347830000000  0.4969510000000  0.5311220000000 1.0
C      1  0.5044020000000  0.5373690000000  0.4679800000000 1.0
C      1  0.4992090000000  0.5314700000000  0.5293440000000 1.0
C      1  0.5099470000000  0.4659370000000  0.5339340000000 1.0
C      1  0.5347390000000  0.5287700000000  0.4941360000000 1.0
C      1  0.4749690000000  0.5343380000000  0.5072460000000 1.0
C      1  0.5348980000000  0.4686310000000  0.5028810000000 1.0
C      1  0.5552220000000  0.4999630000000  0.4467510000000 1.0
C      1  0.4861740000000  0.4529290000000  0.5465560000000 1.0
C      1  0.4560400000000  0.5533190000000  0.4984640000000 1.0
C      1  0.4534470000000  0.5018850000000  0.4511980000000 1.0
C      1  0.5434220000000  0.5244500000000  0.5402270000000 1.0
C      1  0.4540520000000  0.4834710000000  0.5471490000000 1.0
C      1  0.5010530000000  0.5497730000000  0.5510420000000 1.0
C      1  0.4763850000000  0.5441750000000  0.4597980000000 1.0
C      1  0.5074530000000  0.4552510000000  0.4561670000000 1.0
C      1  0.5401610000000  0.4562590000000  0.4758870000000 1.0
C      1  0.4580320000000  0.4537920000000  0.5208010000000 1.0
C      1  0.5525150000000  0.5500390000000  0.5006060000000 1.0
C      1  0.5547060000000  0.4547170000000  0.5218280000000 1.0
C      1  0.4611000000000  0.5223500000000  0.5533390000000 1.0
C      1  0.5218030000000  0.5589780000000  0.4545280000000 1.0
C      1  0.4264120000000  0.5566780000000  0.5392970000000 1.0
C      1  0.5687720000000  0.5497550000000  0.4571380000000 1.0
C      1  0.4506500000000  0.4626310000000  0.4785650000000 1.0
C      1  0.5436540000000  0.4768560000000  0.5532020000000 1.0
C      1  0.4510290000000  0.4573790000000  0.4314860000000 1.0
C      1  0.5557290000000  0.5370120000000  0.4316950000000 1.0
C      1  0.4632800000000  0.4312570000000  0.4450540000000 1.0
C      1  0.5238070000000  0.4397690000000  0.5461850000000 1.0
C      1  0.4558100000000  0.5684600000000  0.5509190000000 1.0
C      1  0.4704130000000  0.4110810000000  0.4647240000000 1.0
C      1  0.4236940000000  0.4696440000000  0.4812200000000 1.0
C      1  0.4690910000000  0.4718370000000  0.4141130000000 1.0
C      1  0.5199480000000  0.5835640000000  0.4678580000000 1.0
C      1  0.4707560000000  0.5852030000000  0.5324060000000 1.0
C      1  0.5178790000000  0.4160710000000  0.5320520000000 1.0
C      1  0.5850070000000  0.5309350000000  0.4723640000000 1.0
C      1  0.4091750000000  0.5349400000000  0.5286890000000 1.0
C      1  0.5802050000000  0.4669050000000  0.5204230000000 1.0
C      1  0.5339630000000  0.5249510000000  0.4179750000000 1.0
C      1  0.4673780000000  0.5202490000000  0.5804190000000 1.0
C      1  0.5275860000000  0.4783330000000  0.5763340000000 1.0
C      1  0.5110830000000  0.4891100000000  0.4004730000000 1.0
C      1  0.4845440000000  0.3952850000000  0.5089490000000 1.0
C      1  0.4002440000000  0.5085010000000  0.4902560000000 1.0
C      1  0.4920480000000  0.5098980000000  0.4015580000000 1.0
C      1  0.5064840000000  0.5103300000000  0.6005990000000 1.0
C      1  0.4890170000000  0.4873330000000  0.6009860000000 1.0
C      1  0.5085460000000  0.5987090000000  0.5091280000000 1.0
C      1  0.4868480000000  0.6032660000000  0.4911480000000 1.0
C      1  0.5068570000000  0.3967110000000  0.4910460000000 1.0
C      1  0.6022920000000  0.4887030000000  0.4877230000000 1.0
C      1  0.3973210000000  0.4900080000000  0.5118700000000 1.0
C      1  0.5993880000000  0.5070790000000  0.5094030000000 1.0
C      1  0.5268910000000  0.4504950000000  0.4294870000000 1.0
C      1  0.4446070000000  0.4229510000000  0.5244170000000 1.0
C      1  0.4318040000000  0.5265810000000  0.4557370000000 1.0
C      1  0.4750410000000  0.5507750000000  0.4275880000000 1.0
C      1  0.5243940000000  0.5490860000000  0.5740450000000 1.0
C      1  0.4699470000000  0.4479940000000  0.5740570000000 1.0
C      1  0.5467740000000  0.5703670000000  0.5260260000000 1.0
C      1  0.4489070000000  0.5748450000000  0.4741750000000 1.0
C      1  0.5485930000000  0.4245410000000  0.4760450000000 1.0
C      1  0.5744940000000  0.4724620000000  0.4506410000000 1.0
C      1  0.4218560000000  0.4748420000000  0.5532870000000 1.0
C      1  0.5739850000000  0.5233050000000  0.5517030000000 1.0
C      1  0.4365650000000  0.5727990000000  0.5163340000000 1.0
C      1  0.5808640000000  0.5185410000000  0.4348190000000 1.0
C      1  0.5210440000000  0.4391680000000  0.5736670000000 1.0
C      1  0.5543280000000  0.4274800000000  0.5210280000000 1.0
C      1  0.4614610000000  0.4379280000000  0.4919460000000 1.0
C      1  0.5550140000000  0.5669550000000  0.4752290000000 1.0
C      1  0.4354870000000  0.4768070000000  0.4444000000000 1.0
C      1  0.5707600000000  0.4771240000000  0.5576460000000 1.0
C      1  0.4359160000000  0.5101770000000  0.5421280000000 1.0
C      1  0.4751030000000  0.5567600000000  0.5676900000000 1.0
C      1  0.5196000000000  0.5607930000000  0.4273980000000 1.0
C      1  0.4880820000000  0.4427310000000  0.4335740000000 1.0
C      1  0.4631100000000  0.4945780000000  0.5920830000000 1.0
C      1  0.4937460000000  0.5941950000000  0.4655600000000 1.0
C      1  0.5910870000000  0.4638970000000  0.4945200000000 1.0
C      1  0.5308830000000  0.5034910000000  0.5887170000000 1.0
C      1  0.4674170000000  0.5008330000000  0.4122330000000 1.0
C      1  0.5352560000000  0.4971320000000  0.4122310000000 1.0
C      1  0.4996520000000  0.4068890000000  0.4656230000000 1.0
C      1  0.4912930000000  0.4065930000000  0.5338230000000 1.0
C      1  0.4996270000000  0.5873660000000  0.5336280000000 1.0
C      1  0.4087540000000  0.5341260000000  0.4991200000000 1.0
C      1  0.5879750000000  0.5316740000000  0.5010770000000 1.0
C      1  0.4104640000000  0.4659080000000  0.5056810000000 1.0
C      1  0.5025620000000  0.5376730000000  0.4123880000000 1.0
C      1  0.5338620000000  0.4092800000000  0.5026520000000 1.0
C      1  0.4056350000000  0.5021860000000  0.5397440000000 1.0
C      1  0.5009550000000  0.4607350000000  0.4095270000000 1.0
C      1  0.4995520000000  0.4607760000000  0.5855760000000 1.0
C      1  0.4950850000000  0.5384260000000  0.5886670000000 1.0
C      1  0.4590580000000  0.5929630000000  0.5014030000000 1.0
C      1  0.5371830000000  0.5865200000000  0.4971520000000 1.0
C      1  0.4579760000000  0.4071330000000  0.4967370000000 1.0
C      1  0.5880500000000  0.4958970000000  0.5371040000000 1.0
C      1  0.4159130000000  0.4973390000000  0.4636600000000 1.0
C      1  0.5926200000000  0.4999110000000  0.4602620000000 1.0
C      1  0.5487340000000  0.4724480000000  0.4283130000000 1.0
C      1  0.4688280000000  0.4250610000000  0.5482560000000 1.0
C      1  0.4297270000000  0.5468080000000  0.4785600000000 1.0
C      1  0.4532370000000  0.5262510000000  0.4290400000000 1.0
C      1  0.5470540000000  0.5260480000000  0.5731070000000 1.0
C      1  0.4471830000000  0.4709750000000  0.5763640000000 1.0
C      1  0.5251790000000  0.5716230000000  0.5481320000000 1.0
C      1  0.4718210000000  0.5758640000000  0.4509390000000 1.0
C      1  0.5233750000000  0.4262500000000  0.4536410000000 1.0
C      1  0.5724900000000  0.4491330000000  0.4727040000000 1.0
C      1  0.4262130000000  0.4518730000000  0.5287460000000 1.0
C      1  0.5715890000000  0.5465450000000  0.5269470000000 1.0
C      1  0.5031890000000  0.4703760000000  0.5029800000000 1.0
C      1  0.4662330000000  0.5061050000000  0.4996500000000 1.0
C      1  0.5077330000000  0.5068520000000  0.4624670000000 1.0
C      1  0.5063170000000  0.5379370000000  0.4987970000000 1.0
C      1  0.5427690000000  0.4982130000000  0.5005140000000 1.0
C      1  0.5038380000000  0.4987690000000  0.5338280000000 1.0
END
