TITL C-2782236-320-473 -0.000872464588849721 125000 -686.010226194866 0 0 122 (C2) n - 1
REM
REM in /home/nfs/bkarasulu/CARBON/AIRSS/Generating-Clusters/REBO/Higher-Symm/SD-CG/HFTN-CG
REM
REM
REM
REM
REM
REM ./C.cell (12c818d87b63d06a65506943cc24bca4)
REM
REM compiler GCC version 9.2.1 20190827 (Red Hat 9.2.1-1)
REM options -cpp -mtune=generic -march=x86-64 -g -O0 -fpre-include=/usr/include/finclude/math-vector-fortran.h
REM seed -1322234406 150735620 -242428402 407072009 -1681616594 -2113763809 -1032843726 1615702806 -1820904747 -1793458728 1688257567 186334409 -2128443520 -1650576258 -1788542610 -824267574 150840062 -922253291 132347436 944586139 -1352559895 -1460130657 -1324511792 199390481 371321314 531885351 -815955780 -1307766418 -934078744 -2072227584 -1706533006 8944377 -1184442055
REM
CELL 1.54180   50.00000   50.00000   50.00000   90.00000   90.00000   90.00000
LATT -1
SFAC C  
C      1  0.4503270000000  0.5184430000000  0.5713770000000 1.0
C      1  0.4490110000000  0.4215640000000  0.4838220000000 1.0
C      1  0.4520300000000  0.5552110000000  0.4426580000000 1.0
C      1  0.5500240000000  0.4816170000000  0.5713910000000 1.0
C      1  0.5513640000000  0.5784930000000  0.4838350000000 1.0
C      1  0.5483560000000  0.4448460000000  0.4426720000000 1.0
C      1  0.5132260000000  0.4788270000000  0.4323710000000 1.0
C      1  0.5200460000000  0.5705430000000  0.5090860000000 1.0
C      1  0.5207260000000  0.4585450000000  0.5557210000000 1.0
C      1  0.4871640000000  0.5212300000000  0.4323670000000 1.0
C      1  0.4803220000000  0.4295150000000  0.5090810000000 1.0
C      1  0.4796290000000  0.5415140000000  0.5557150000000 1.0
C      1  0.4164940000000  0.4630120000000  0.5291400000000 1.0
C      1  0.4195510000000  0.4951300000000  0.4616300000000 1.0
C      1  0.4198160000000  0.5381310000000  0.5167680000000 1.0
C      1  0.5838680000000  0.5370470000000  0.5291620000000 1.0
C      1  0.5808300000000  0.5049270000000  0.4616520000000 1.0
C      1  0.5805500000000  0.4619280000000  0.5167910000000 1.0
C      1  0.5118020000000  0.5163080000000  0.4190600000000 1.0
C      1  0.5010540000000  0.5605680000000  0.5494440000000 1.0
C      1  0.5047320000000  0.4281700000000  0.5251170000000 1.0
C      1  0.4885920000000  0.4837490000000  0.4190570000000 1.0
C      1  0.4993030000000  0.4394910000000  0.5494450000000 1.0
C      1  0.4956320000000  0.5718880000000  0.5251140000000 1.0
C      1  0.4685780000000  0.5645500000000  0.5138670000000 1.0
C      1  0.4707800000000  0.4467540000000  0.5525380000000 1.0
C      1  0.4634100000000  0.4816170000000  0.4332610000000 1.0
C      1  0.5317890000000  0.4355090000000  0.5138770000000 1.0
C      1  0.5295760000000  0.5533050000000  0.5525450000000 1.0
C      1  0.5369790000000  0.5184390000000  0.4332710000000 1.0
C      1  0.5380700000000  0.5378340000000  0.5233690000000 1.0
C      1  0.5313290000000  0.4680410000000  0.5162500000000 1.0
C      1  0.5388250000000  0.4977120000000  0.4578330000000 1.0
C      1  0.4622950000000  0.4622250000000  0.5233590000000 1.0
C      1  0.4690370000000  0.5320170000000  0.5162400000000 1.0
C      1  0.4615580000000  0.5023450000000  0.4578230000000 1.0
C      1  0.4210710000000  0.5630700000000  0.4860370000000 1.0
C      1  0.4302970000000  0.4868600000000  0.5572080000000 1.0
C      1  0.4168760000000  0.4565250000000  0.4532800000000 1.0
C      1  0.5793040000000  0.4369870000000  0.4860600000000 1.0
C      1  0.5700580000000  0.5131990000000  0.5572270000000 1.0
C      1  0.5835080000000  0.5435330000000  0.4533020000000 1.0
C      1  0.5207300000000  0.5427790000000  0.4958920000000 1.0
C      1  0.5138260000000  0.4846740000000  0.5391330000000 1.0
C      1  0.5111440000000  0.4830880000000  0.4636540000000 1.0
C      1  0.4796420000000  0.4572790000000  0.4958870000000 1.0
C      1  0.4865340000000  0.5153850000000  0.5391290000000 1.0
C      1  0.4892360000000  0.5169690000000  0.4636510000000 1.0
C      1  0.5068700000000  0.5553380000000  0.4262070000000 1.0
C      1  0.5004600000000  0.5374420000000  0.5894270000000 1.0
C      1  0.5031180000000  0.4037500000000  0.4891740000000 1.0
C      1  0.4935220000000  0.4447190000000  0.4262070000000 1.0
C      1  0.4998860000000  0.4626180000000  0.5894270000000 1.0
C      1  0.4972550000000  0.5963080000000  0.4891720000000 1.0
C      1  0.5252050000000  0.4505500000000  0.4213110000000 1.0
C      1  0.5288250000000  0.6000150000000  0.4974360000000 1.0
C      1  0.5316510000000  0.4575160000000  0.5869660000000 1.0
C      1  0.4751880000000  0.5495070000000  0.4213030000000 1.0
C      1  0.4715460000000  0.4000430000000  0.4974300000000 1.0
C      1  0.4686950000000  0.5425440000000  0.5869570000000 1.0
C      1  0.5597680000000  0.5497160000000  0.5000280000000 1.0
C      1  0.5536610000000  0.4827350000000  0.5373490000000 1.0
C      1  0.5573750000000  0.4728740000000  0.4594590000000 1.0
C      1  0.4406030000000  0.4503430000000  0.5000120000000 1.0
C      1  0.4466990000000  0.5173230000000  0.5373340000000 1.0
C      1  0.4430070000000  0.5271830000000  0.4594430000000 1.0
C      1  0.5493440000000  0.4430280000000  0.5615490000000 1.0
C      1  0.5447550000000  0.4788510000000  0.4219890000000 1.0
C      1  0.5461920000000  0.5845570000000  0.5228660000000 1.0
C      1  0.4510100000000  0.5570310000000  0.5615350000000 1.0
C      1  0.4556380000000  0.5212060000000  0.4219760000000 1.0
C      1  0.4541730000000  0.4155020000000  0.5228540000000 1.0
C      1  0.5753650000000  0.5312160000000  0.4827090000000 1.0
C      1  0.5741320000000  0.5047850000000  0.5245300000000 1.0
C      1  0.5742780000000  0.4698740000000  0.4842580000000 1.0
C      1  0.4250110000000  0.4688420000000  0.4826890000000 1.0
C      1  0.4262320000000  0.4952730000000  0.5245100000000 1.0
C      1  0.4260970000000  0.5301840000000  0.4842370000000 1.0
C      1  0.5088580000000  0.4335040000000  0.4753480000000 1.0
C      1  0.5139260000000  0.5538860000000  0.4581230000000 1.0
C      1  0.5094950000000  0.5116550000000  0.5716160000000 1.0
C      1  0.4915200000000  0.5665540000000  0.4753450000000 1.0
C      1  0.4864570000000  0.4461710000000  0.4581200000000 1.0
C      1  0.4908560000000  0.4884040000000  0.5716140000000 1.0
C      1  0.4626780000000  0.5752670000000  0.4617440000000 1.0
C      1  0.4604840000000  0.4927250000000  0.5820290000000 1.0
C      1  0.4585840000000  0.4296210000000  0.4568750000000 1.0
C      1  0.5377030000000  0.4247900000000  0.4617560000000 1.0
C      1  0.5398640000000  0.5073340000000  0.5820400000000 1.0
C      1  0.5417990000000  0.5704370000000  0.4568860000000 1.0
C      1  0.4638860000000  0.5897220000000  0.4918480000000 1.0
C      1  0.4665190000000  0.4592320000000  0.5832510000000 1.0
C      1  0.4596220000000  0.4483210000000  0.4289030000000 1.0
C      1  0.5364870000000  0.4103360000000  0.4918600000000 1.0
C      1  0.5338280000000  0.5408280000000  0.5832600000000 1.0
C      1  0.5407680000000  0.5517360000000  0.4289130000000 1.0
C      1  0.4324590000000  0.4681090000000  0.4315020000000 1.0
C      1  0.4373990000000  0.5759200000000  0.5064300000000 1.0
C      1  0.4406290000000  0.4600210000000  0.5611290000000 1.0
C      1  0.5679310000000  0.5319480000000  0.4315200000000 1.0
C      1  0.5629700000000  0.4241380000000  0.5064490000000 1.0
C      1  0.5597250000000  0.5400380000000  0.5611450000000 1.0
C      1  0.4323580000000  0.4375610000000  0.5369550000000 1.0
C      1  0.4292100000000  0.5019730000000  0.4318110000000 1.0
C      1  0.4312890000000  0.5617250000000  0.5347400000000 1.0
C      1  0.5680030000000  0.5624980000000  0.5369720000000 1.0
C      1  0.5711800000000  0.4980840000000  0.4318310000000 1.0
C      1  0.5690720000000  0.4383340000000  0.5347610000000 1.0
C      1  0.5758040000000  0.5787240000000  0.5078640000000 1.0
C      1  0.5750800000000  0.4641210000000  0.5562420000000 1.0
C      1  0.5741140000000  0.4640890000000  0.4309440000000 1.0
C      1  0.4245650000000  0.4213340000000  0.5078440000000 1.0
C      1  0.4252750000000  0.5359380000000  0.5562200000000 1.0
C      1  0.4262760000000  0.5359680000000  0.4309230000000 1.0
C      1  0.4798300000000  0.4834290000000  0.5397760000000 1.0
C      1  0.4798430000000  0.4770460000000  0.4694320000000 1.0
C      1  0.4885660000000  0.5363320000000  0.4894050000000 1.0
C      1  0.5205290000000  0.5166300000000  0.5397820000000 1.0
C      1  0.5205370000000  0.5230110000000  0.4694380000000 1.0
C      1  0.5118080000000  0.4637260000000  0.4894090000000 1.0
C      1  0.4213920000000  0.4997260000000  0.4953800000000 1.0
C      1  0.5789800000000  0.5003320000000  0.4954020000000 1.0
END
