TITL C-2782237-5345-833 0.000520081128769843 125000 -603.686666637286 0 0 107 (C1) n - 1
REM
REM in /home/nfs/bkarasulu/CARBON/AIRSS/Generating-Clusters/REBO/Higher-Symm/SD-CG/HFTN-CG
REM
REM
REM
REM
REM
REM ./C.cell (12c818d87b63d06a65506943cc24bca4)
REM
REM compiler GCC version 9.2.1 20190827 (Red Hat 9.2.1-1)
REM options -cpp -mtune=generic -march=x86-64 -g -O0 -fpre-include=/usr/include/finclude/math-vector-fortran.h
REM seed 343551767 -1107466724 489377029 122344649 -952712043 -1511785219 531447945 2068766624 -1503848490 -2079496623 -842989373 -181876870 1711510864 1853588929 1909086476 1884364304 521664026 1392413670 2086249578 -1721974012 2127460858 -1994528512 524866023 88940547 2037428142 1272598441 -1657760724 -1981959883 -1872358372 1436383236 -36101049 -237767722 200201738
REM
CELL 1.54180   50.00000   50.00000   50.00000   90.00000   90.00000   90.00000
LATT -1
SFAC C  
C      1  0.5714220000000  0.5323330000000  0.4774690000000 1.0
C      1  0.4347080000000  0.5337930000000  0.5185470000000 1.0
C      1  0.5665300000000  0.4676920000000  0.5239230000000 1.0
C      1  0.4317240000000  0.4680980000000  0.4756890000000 1.0
C      1  0.4796770000000  0.5343180000000  0.5637460000000 1.0
C      1  0.5183580000000  0.5360080000000  0.4359290000000 1.0
C      1  0.5241730000000  0.4691200000000  0.5671450000000 1.0
C      1  0.4771670000000  0.4667290000000  0.4289510000000 1.0
C      1  0.4858550000000  0.5309980000000  0.4268570000000 1.0
C      1  0.5116590000000  0.5323960000000  0.5727880000000 1.0
C      1  0.4923430000000  0.4707130000000  0.5712810000000 1.0
C      1  0.5092720000000  0.4707040000000  0.4269750000000 1.0
C      1  0.4218250000000  0.5312290000000  0.4876180000000 1.0
C      1  0.5755660000000  0.5303870000000  0.5106500000000 1.0
C      1  0.5716270000000  0.4683930000000  0.4923250000000 1.0
C      1  0.4262020000000  0.4692970000000  0.5072800000000 1.0
C      1  0.5289330000000  0.4466640000000  0.4977030000000 1.0
C      1  0.4735090000000  0.4471670000000  0.5058350000000 1.0
C      1  0.5267250000000  0.5491860000000  0.4937720000000 1.0
C      1  0.4742570000000  0.5434720000000  0.5027690000000 1.0
C      1  0.4975150000000  0.4480160000000  0.5375850000000 1.0
C      1  0.5032920000000  0.4466140000000  0.4672420000000 1.0
C      1  0.4946340000000  0.5477480000000  0.5265990000000 1.0
C      1  0.5014500000000  0.5484990000000  0.4740440000000 1.0
C      1  0.5260130000000  0.5088180000000  0.5433840000000 1.0
C      1  0.4767980000000  0.5049140000000  0.4557750000000 1.0
C      1  0.5149570000000  0.4900380000000  0.4617930000000 1.0
C      1  0.4790770000000  0.4902670000000  0.5383430000000 1.0
C      1  0.5436090000000  0.5074410000000  0.5174540000000 1.0
C      1  0.4520590000000  0.5112170000000  0.4709840000000 1.0
C      1  0.4601840000000  0.4894290000000  0.5131920000000 1.0
C      1  0.5407580000000  0.4904910000000  0.4798150000000 1.0
C      1  0.5467710000000  0.5469720000000  0.5213940000000 1.0
C      1  0.4502490000000  0.5498310000000  0.4794570000000 1.0
C      1  0.5482440000000  0.4517650000000  0.4734310000000 1.0
C      1  0.4494890000000  0.4522550000000  0.5256640000000 1.0
C      1  0.5236970000000  0.5484910000000  0.5443270000000 1.0
C      1  0.4739240000000  0.5459330000000  0.4561000000000 1.0
C      1  0.4698620000000  0.4517870000000  0.5487000000000 1.0
C      1  0.5281580000000  0.4532290000000  0.4498600000000 1.0
C      1  0.5188970000000  0.4202040000000  0.5560890000000 1.0
C      1  0.4837290000000  0.4188210000000  0.4465070000000 1.0
C      1  0.5164160000000  0.5802460000000  0.4550210000000 1.0
C      1  0.4842830000000  0.5795340000000  0.5511380000000 1.0
C      1  0.5510150000000  0.4204170000000  0.5179790000000 1.0
C      1  0.4514690000000  0.4214410000000  0.4848390000000 1.0
C      1  0.4533930000000  0.5786070000000  0.5121890000000 1.0
C      1  0.5552770000000  0.5774440000000  0.4863420000000 1.0
C      1  0.5113250000000  0.4780550000000  0.5353270000000 1.0
C      1  0.4847310000000  0.4736840000000  0.4616260000000 1.0
C      1  0.5034080000000  0.5193660000000  0.4604950000000 1.0
C      1  0.4962270000000  0.5166790000000  0.5397540000000 1.0
C      1  0.5357760000000  0.4759580000000  0.5109190000000 1.0
C      1  0.4628210000000  0.4709300000000  0.4865180000000 1.0
C      1  0.4564660000000  0.5159750000000  0.4997970000000 1.0
C      1  0.5424910000000  0.5222090000000  0.4902900000000 1.0
C      1  0.5030500000000  0.5801130000000  0.4850090000000 1.0
C      1  0.5038120000000  0.5805040000000  0.5248400000000 1.0
C      1  0.5014260000000  0.4176030000000  0.5277880000000 1.0
C      1  0.5009980000000  0.4152500000000  0.4748840000000 1.0
C      1  0.4777920000000  0.5867000000000  0.5038350000000 1.0
C      1  0.5296580000000  0.5810100000000  0.5056870000000 1.0
C      1  0.5211230000000  0.4161530000000  0.5023160000000 1.0
C      1  0.4810490000000  0.4160540000000  0.5007710000000 1.0
C      1  0.5557230000000  0.5574320000000  0.4668310000000 1.0
C      1  0.4478840000000  0.5575460000000  0.5310000000000 1.0
C      1  0.5552490000000  0.4414640000000  0.5360370000000 1.0
C      1  0.4469770000000  0.4410700000000  0.4653300000000 1.0
C      1  0.4663770000000  0.5582930000000  0.5528020000000 1.0
C      1  0.5334240000000  0.5589050000000  0.4487460000000 1.0
C      1  0.5364220000000  0.4421110000000  0.5573230000000 1.0
C      1  0.4661590000000  0.4405710000000  0.4444380000000 1.0
C      1  0.5802940000000  0.4501530000000  0.4660890000000 1.0
C      1  0.4182350000000  0.4540880000000  0.5352910000000 1.0
C      1  0.5766870000000  0.5492190000000  0.5366090000000 1.0
C      1  0.4197230000000  0.5537180000000  0.4647950000000 1.0
C      1  0.4669950000000  0.4531770000000  0.5800340000000 1.0
C      1  0.5384170000000  0.4567480000000  0.4190060000000 1.0
C      1  0.5355040000000  0.5537530000000  0.5758230000000 1.0
C      1  0.4600440000000  0.5498150000000  0.4255620000000 1.0
C      1  0.4822520000000  0.4983970000000  0.4170940000000 1.0
C      1  0.5178680000000  0.4997010000000  0.5810470000000 1.0
C      1  0.4845100000000  0.5035210000000  0.5756010000000 1.0
C      1  0.5150070000000  0.5041730000000  0.4245430000000 1.0
C      1  0.4163240000000  0.4980300000000  0.4813940000000 1.0
C      1  0.5820750000000  0.4974520000000  0.5175230000000 1.0
C      1  0.5790380000000  0.5007170000000  0.4842720000000 1.0
C      1  0.4222760000000  0.5022290000000  0.5147700000000 1.0
C      1  0.5794480000000  0.5341040000000  0.5621420000000 1.0
C      1  0.4123830000000  0.5403530000000  0.4392920000000 1.0
C      1  0.5888320000000  0.4667400000000  0.4430490000000 1.0
C      1  0.4137870000000  0.4729270000000  0.5576540000000 1.0
C      1  0.5607290000000  0.5404800000000  0.5845700000000 1.0
C      1  0.4349640000000  0.5349010000000  0.4204920000000 1.0
C      1  0.4447800000000  0.4699470000000  0.5895260000000 1.0
C      1  0.5605600000000  0.4762570000000  0.4157520000000 1.0
C      1  0.5464710000000  0.5132450000000  0.5702060000000 1.0
C      1  0.4530790000000  0.5085840000000  0.4313690000000 1.0
C      1  0.5410990000000  0.4907250000000  0.4398460000000 1.0
C      1  0.4576040000000  0.4889350000000  0.5651040000000 1.0
C      1  0.5658160000000  0.5097100000000  0.5433010000000 1.0
C      1  0.4256380000000  0.5120390000000  0.4517410000000 1.0
C      1  0.4389010000000  0.4880060000000  0.5400230000000 1.0
C      1  0.5667790000000  0.4867640000000  0.4574840000000 1.0
C      1  0.5005850000000  0.4633930000000  0.4968110000000 1.0
C      1  0.4963070000000  0.5177340000000  0.4998020000000 1.0
C      1  0.5008650000000  0.4937590000000  0.4990330000000 1.0
END
