TITL C-2782227-3064-853 0.000173530428090148 125000 -705.085201784762 0 0 123 (C1) n - 1
REM
REM in /home/nfs/bkarasulu/CARBON/AIRSS/Generating-Clusters/REBO/Higher-Symm/SD-CG/HFTN-CG
REM
REM
REM
REM
REM
REM ./C.cell (12c818d87b63d06a65506943cc24bca4)
REM
REM compiler GCC version 9.2.1 20190827 (Red Hat 9.2.1-1)
REM options -cpp -mtune=generic -march=x86-64 -g -O0 -fpre-include=/usr/include/finclude/math-vector-fortran.h
REM seed 855976117 -1018321182 1342021352 -1415314237 -489470921 -40950894 -2006812187 -2101285768 -1601900660 -905127166 -37309593 1144055355 -477357022 -554124949 1309559126 62016611 173429471 787233187 1268211255 1247779893 -575283154 -79874559 -1583822899 1176746280 2023212139 1389753502 526519300 -1350821391 -1924999710 1181439320 1958925342 -323710167 -1927529930
REM
CELL 1.54180   50.00000   50.00000   50.00000   90.00000   90.00000   90.00000
LATT -1
SFAC C  
C      1  0.5292930000000  0.4711790000000  0.5290970000000 1.0
C      1  0.4799700000000  0.4126990000000  0.4652180000000 1.0
C      1  0.4093190000000  0.4505120000000  0.4867920000000 1.0
C      1  0.5074210000000  0.4535860000000  0.4436020000000 1.0
C      1  0.4209700000000  0.5526760000000  0.4688180000000 1.0
C      1  0.5574640000000  0.5045630000000  0.4263830000000 1.0
C      1  0.5433360000000  0.5174670000000  0.5244720000000 1.0
C      1  0.4336580000000  0.5166420000000  0.4399640000000 1.0
C      1  0.4292030000000  0.4362980000000  0.4728470000000 1.0
C      1  0.5592480000000  0.4433150000000  0.5051290000000 1.0
C      1  0.5405040000000  0.4614660000000  0.4454360000000 1.0
C      1  0.5543530000000  0.5174500000000  0.4669160000000 1.0
C      1  0.4913520000000  0.5246460000000  0.5428960000000 1.0
C      1  0.5252450000000  0.4677370000000  0.5912370000000 1.0
C      1  0.5342130000000  0.5343070000000  0.5708250000000 1.0
C      1  0.4142230000000  0.4984990000000  0.4816570000000 1.0
C      1  0.5470200000000  0.5694410000000  0.5051850000000 1.0
C      1  0.4986300000000  0.5958700000000  0.5006840000000 1.0
C      1  0.5230270000000  0.5510260000000  0.5177820000000 1.0
C      1  0.5130560000000  0.6050260000000  0.4766070000000 1.0
C      1  0.4634020000000  0.4975000000000  0.4751000000000 1.0
C      1  0.4425570000000  0.4912870000000  0.4978560000000 1.0
C      1  0.5278060000000  0.5339290000000  0.4627140000000 1.0
C      1  0.5425900000000  0.5194700000000  0.5918330000000 1.0
C      1  0.4361990000000  0.5528960000000  0.4980120000000 1.0
C      1  0.5030450000000  0.4552880000000  0.5225170000000 1.0
C      1  0.5023430000000  0.4877340000000  0.5535240000000 1.0
C      1  0.4511510000000  0.5285290000000  0.5259860000000 1.0
C      1  0.4877060000000  0.5253420000000  0.4900790000000 1.0
C      1  0.4921380000000  0.4708140000000  0.4185300000000 1.0
C      1  0.5469210000000  0.4887040000000  0.4816890000000 1.0
C      1  0.4920330000000  0.4626640000000  0.5854510000000 1.0
C      1  0.5341950000000  0.4930250000000  0.4087370000000 1.0
C      1  0.4606360000000  0.5815090000000  0.4627430000000 1.0
C      1  0.4650470000000  0.4670190000000  0.5726950000000 1.0
C      1  0.5119030000000  0.5591790000000  0.4545430000000 1.0
C      1  0.5327470000000  0.4807930000000  0.5618200000000 1.0
C      1  0.5200370000000  0.5296490000000  0.4122850000000 1.0
C      1  0.5766390000000  0.5288900000000  0.4576240000000 1.0
C      1  0.5505490000000  0.5619270000000  0.4454120000000 1.0
C      1  0.4178020000000  0.4717130000000  0.5111330000000 1.0
C      1  0.4838790000000  0.5716750000000  0.5161720000000 1.0
C      1  0.5202970000000  0.5309580000000  0.5407550000000 1.0
C      1  0.5245580000000  0.4860270000000  0.4591340000000 1.0
C      1  0.5929670000000  0.5107670000000  0.5260000000000 1.0
C      1  0.4937460000000  0.4388140000000  0.4961640000000 1.0
C      1  0.5075250000000  0.4388910000000  0.5712120000000 1.0
C      1  0.5400550000000  0.4043630000000  0.5287220000000 1.0
C      1  0.5325260000000  0.4944980000000  0.5090160000000 1.0
C      1  0.5212330000000  0.5836820000000  0.5225950000000 1.0
C      1  0.5628330000000  0.4360160000000  0.4660510000000 1.0
C      1  0.3981870000000  0.4766090000000  0.4767410000000 1.0
C      1  0.4724190000000  0.4971590000000  0.4222970000000 1.0
C      1  0.4929520000000  0.5645270000000  0.5451200000000 1.0
C      1  0.4076250000000  0.5358460000000  0.4952730000000 1.0
C      1  0.5054280000000  0.4212000000000  0.4545470000000 1.0
C      1  0.4276340000000  0.5177810000000  0.5312410000000 1.0
C      1  0.5129620000000  0.4109550000000  0.5000550000000 1.0
C      1  0.4918830000000  0.4118680000000  0.5255440000000 1.0
C      1  0.4536540000000  0.4144880000000  0.4776110000000 1.0
C      1  0.5186970000000  0.5065540000000  0.4350800000000 1.0
C      1  0.3954100000000  0.4929350000000  0.5165020000000 1.0
C      1  0.4929460000000  0.4862440000000  0.5221290000000 1.0
C      1  0.4463810000000  0.5818970000000  0.5081490000000 1.0
C      1  0.5291070000000  0.5855490000000  0.4588890000000 1.0
C      1  0.4790470000000  0.5580090000000  0.4549540000000 1.0
C      1  0.5441450000000  0.4201400000000  0.5037820000000 1.0
C      1  0.4402340000000  0.5634760000000  0.4477370000000 1.0
C      1  0.5988680000000  0.4752110000000  0.4900420000000 1.0
C      1  0.4941880000000  0.5641360000000  0.4268090000000 1.0
C      1  0.4938920000000  0.5104190000000  0.4531510000000 1.0
C      1  0.5949950000000  0.4797820000000  0.5178990000000 1.0
C      1  0.5047600000000  0.5485640000000  0.5729000000000 1.0
C      1  0.4694640000000  0.4607890000000  0.4397280000000 1.0
C      1  0.5154180000000  0.4757620000000  0.3982660000000 1.0
C      1  0.4979570000000  0.4963180000000  0.5859770000000 1.0
C      1  0.5653410000000  0.4848800000000  0.4465030000000 1.0
C      1  0.4522320000000  0.4517680000000  0.4633630000000 1.0
C      1  0.4152910000000  0.5216420000000  0.4621800000000 1.0
C      1  0.5842710000000  0.5122420000000  0.4930060000000 1.0
C      1  0.4642330000000  0.5928600000000  0.4887350000000 1.0
C      1  0.4853680000000  0.4520350000000  0.4698050000000 1.0
C      1  0.4774200000000  0.5133990000000  0.5148140000000 1.0
C      1  0.4711560000000  0.5003750000000  0.5517730000000 1.0
C      1  0.5717700000000  0.5617820000000  0.5219650000000 1.0
C      1  0.5653490000000  0.5326050000000  0.5073930000000 1.0
C      1  0.5823690000000  0.5385380000000  0.5431310000000 1.0
C      1  0.4554390000000  0.5603130000000  0.5322570000000 1.0
C      1  0.4453300000000  0.4220610000000  0.5063960000000 1.0
C      1  0.4709980000000  0.5260710000000  0.4137140000000 1.0
C      1  0.5253730000000  0.5688300000000  0.5532670000000 1.0
C      1  0.4683960000000  0.5447790000000  0.5580580000000 1.0
C      1  0.5811960000000  0.4622830000000  0.5335860000000 1.0
C      1  0.4948700000000  0.5421790000000  0.4092310000000 1.0
C      1  0.4691750000000  0.5511690000000  0.4961780000000 1.0
C      1  0.5362100000000  0.4284170000000  0.4533810000000 1.0
C      1  0.4370780000000  0.4815240000000  0.5597300000000 1.0
C      1  0.5619640000000  0.4617580000000  0.4826740000000 1.0
C      1  0.5538560000000  0.4525710000000  0.5435400000000 1.0
C      1  0.4260150000000  0.4576310000000  0.5380560000000 1.0
C      1  0.5396100000000  0.4430500000000  0.5730540000000 1.0
C      1  0.4956020000000  0.4880780000000  0.4771360000000 1.0
C      1  0.5845110000000  0.4912910000000  0.4684910000000 1.0
C      1  0.4576780000000  0.4998450000000  0.5804530000000 1.0
C      1  0.4703300000000  0.5296300000000  0.4625460000000 1.0
C      1  0.5662440000000  0.5107150000000  0.5445190000000 1.0
C      1  0.5489700000000  0.5661680000000  0.4765070000000 1.0
C      1  0.5181020000000  0.3840360000000  0.5213430000000 1.0
C      1  0.5271610000000  0.4990880000000  0.6004540000000 1.0
C      1  0.5469950000000  0.5344560000000  0.4314860000000 1.0
C      1  0.4689980000000  0.4346350000000  0.5194450000000 1.0
C      1  0.4224020000000  0.4305690000000  0.5192150000000 1.0
C      1  0.4816620000000  0.5246410000000  0.5816470000000 1.0
C      1  0.5576220000000  0.4942220000000  0.5647040000000 1.0
C      1  0.4472730000000  0.5408520000000  0.4289350000000 1.0
C      1  0.5163390000000  0.5141120000000  0.4860290000000 1.0
C      1  0.4600270000000  0.4551830000000  0.5409310000000 1.0
C      1  0.4992240000000  0.4338600000000  0.5452640000000 1.0
C      1  0.5481720000000  0.4199740000000  0.5505000000000 1.0
C      1  0.4534020000000  0.4967380000000  0.4444250000000 1.0
C      1  0.3932380000000  0.5170930000000  0.5108700000000 1.0
C      1  0.4519660000000  0.4862000000000  0.5287380000000 1.0
C      1  0.5569510000000  0.5596750000000  0.5524990000000 1.0
END
