TITL C-2782237-5345-1428 -0.00444736464954148 125000 -725.413646763784 0 0 126 (C1) n - 1
REM
REM in /home/nfs/bkarasulu/CARBON/AIRSS/Generating-Clusters/REBO/Higher-Symm/SD-CG/HFTN-CG
REM
REM
REM
REM
REM
REM ./C.cell (12c818d87b63d06a65506943cc24bca4)
REM
REM compiler GCC version 9.2.1 20190827 (Red Hat 9.2.1-1)
REM options -cpp -mtune=generic -march=x86-64 -g -O0 -fpre-include=/usr/include/finclude/math-vector-fortran.h
REM seed -785291959 1904518071 -654641776 -1320299316 -1759939420 249867884 -972601839 -1669147288 1186571447 390253873 -734164699 31519989 869539327 260507064 1299004151 -18324534 1197362911 -1637878550 -1145159807 -1041134237 -552815091 658870598 -1266280089 1213248200 271178360 -1948124405 459122181 -157487586 -1112504029 -2065882635 1800645185 186796136 1773902434
REM
CELL 1.54180   50.00000   50.00000   50.00000   90.00000   90.00000   90.00000
LATT -1
SFAC C  
C      1  0.5108550000000  0.4453220000000  0.5195970000000 1.0
C      1  0.5323780000000  0.5334360000000  0.5153360000000 1.0
C      1  0.4441540000000  0.5010120000000  0.5185390000000 1.0
C      1  0.4166090000000  0.5536010000000  0.4853970000000 1.0
C      1  0.4979170000000  0.4011320000000  0.4801510000000 1.0
C      1  0.5922570000000  0.5423560000000  0.4824410000000 1.0
C      1  0.3982130000000  0.4977810000000  0.5110250000000 1.0
C      1  0.5533780000000  0.4233760000000  0.5058610000000 1.0
C      1  0.5468010000000  0.5853750000000  0.5013560000000 1.0
C      1  0.4515960000000  0.4792290000000  0.4348410000000 1.0
C      1  0.5451530000000  0.4707290000000  0.4300450000000 1.0
C      1  0.5125250000000  0.5633320000000  0.4359370000000 1.0
C      1  0.5045760000000  0.4001390000000  0.5089970000000 1.0
C      1  0.5867980000000  0.5481210000000  0.5121930000000 1.0
C      1  0.4127570000000  0.5522980000000  0.5147010000000 1.0
C      1  0.5528030000000  0.4265890000000  0.4765930000000 1.0
C      1  0.5445900000000  0.5797800000000  0.4737030000000 1.0
C      1  0.4065340000000  0.4942200000000  0.4830760000000 1.0
C      1  0.5231230000000  0.4689120000000  0.4756690000000 1.0
C      1  0.5173440000000  0.5365010000000  0.4737390000000 1.0
C      1  0.4582690000000  0.4929570000000  0.4717020000000 1.0
C      1  0.5702420000000  0.4475940000000  0.4649970000000 1.0
C      1  0.5196020000000  0.5798070000000  0.4608000000000 1.0
C      1  0.4240120000000  0.4701550000000  0.4741680000000 1.0
C      1  0.4828570000000  0.4073140000000  0.5256250000000 1.0
C      1  0.5903640000000  0.5287820000000  0.5314980000000 1.0
C      1  0.4304040000000  0.5669470000000  0.5300080000000 1.0
C      1  0.6120350000000  0.4663580000000  0.5205340000000 1.0
C      1  0.4721200000000  0.5978140000000  0.5154330000000 1.0
C      1  0.3928380000000  0.4266710000000  0.5280440000000 1.0
C      1  0.5370310000000  0.5425110000000  0.4244990000000 1.0
C      1  0.4473870000000  0.5115910000000  0.4246050000000 1.0
C      1  0.5174900000000  0.4517620000000  0.4240970000000 1.0
C      1  0.5750320000000  0.4769220000000  0.5578270000000 1.0
C      1  0.4819610000000  0.5820660000000  0.5539000000000 1.0
C      1  0.4508150000000  0.4480110000000  0.5418110000000 1.0
C      1  0.5290890000000  0.5310080000000  0.5780650000000 1.0
C      1  0.4511120000000  0.4926970000000  0.5699520000000 1.0
C      1  0.5135630000000  0.4570910000000  0.5796640000000 1.0
C      1  0.4697250000000  0.4312570000000  0.5291630000000 1.0
C      1  0.5722410000000  0.5055810000000  0.5425370000000 1.0
C      1  0.4612280000000  0.5721250000000  0.5315030000000 1.0
C      1  0.4520320000000  0.4681410000000  0.4934690000000 1.0
C      1  0.5466260000000  0.4805310000000  0.4932120000000 1.0
C      1  0.4928760000000  0.5501050000000  0.4869070000000 1.0
C      1  0.5159330000000  0.4400900000000  0.4865640000000 1.0
C      1  0.5473350000000  0.5421450000000  0.4866630000000 1.0
C      1  0.4405360000000  0.5139740000000  0.4896440000000 1.0
C      1  0.5664520000000  0.4861720000000  0.4349330000000 1.0
C      1  0.4785030000000  0.5622040000000  0.4362250000000 1.0
C      1  0.4557990000000  0.4540340000000  0.4429360000000 1.0
C      1  0.5621960000000  0.4520070000000  0.5517730000000 1.0
C      1  0.5091240000000  0.5810300000000  0.5499840000000 1.0
C      1  0.4386260000000  0.4747380000000  0.5365000000000 1.0
C      1  0.5671770000000  0.5590860000000  0.4661030000000 1.0
C      1  0.4139600000000  0.5226960000000  0.4711570000000 1.0
C      1  0.5242500000000  0.4164010000000  0.4647010000000 1.0
C      1  0.4908220000000  0.4844570000000  0.5549330000000 1.0
C      1  0.5212690000000  0.4964760000000  0.5594650000000 1.0
C      1  0.4962790000000  0.5180940000000  0.5544330000000 1.0
C      1  0.4190100000000  0.4867480000000  0.5615010000000 1.0
C      1  0.5370810000000  0.4432660000000  0.5623630000000 1.0
C      1  0.5288440000000  0.5594630000000  0.5622960000000 1.0
C      1  0.5873580000000  0.4583990000000  0.5113770000000 1.0
C      1  0.4957480000000  0.5950190000000  0.5017130000000 1.0
C      1  0.4071120000000  0.4468600000000  0.5190040000000 1.0
C      1  0.5079590000000  0.5149160000000  0.5923900000000 1.0
C      1  0.4781430000000  0.5005080000000  0.5891540000000 1.0
C      1  0.5051850000000  0.4827040000000  0.5932920000000 1.0
C      1  0.4971960000000  0.4533000000000  0.5479340000000 1.0
C      1  0.5353140000000  0.5237680000000  0.5451890000000 1.0
C      1  0.4630210000000  0.5141260000000  0.5510970000000 1.0
C      1  0.5038310000000  0.5379650000000  0.4159740000000 1.0
C      1  0.4713840000000  0.4907530000000  0.4120740000000 1.0
C      1  0.5244970000000  0.4844730000000  0.4109310000000 1.0
C      1  0.4935240000000  0.5476180000000  0.5705820000000 1.0
C      1  0.4688120000000  0.4654190000000  0.5729510000000 1.0
C      1  0.5422550000000  0.4849350000000  0.5792170000000 1.0
C      1  0.4934580000000  0.4150480000000  0.4499260000000 1.0
C      1  0.5824780000000  0.5338100000000  0.4507730000000 1.0
C      1  0.4249360000000  0.5490700000000  0.4527140000000 1.0
C      1  0.4835410000000  0.4363370000000  0.4920130000000 1.0
C      1  0.5655190000000  0.5155300000000  0.4941640000000 1.0
C      1  0.4541620000000  0.5421600000000  0.4926000000000 1.0
C      1  0.5740200000000  0.4696160000000  0.4877600000000 1.0
C      1  0.4953160000000  0.5879420000000  0.4742950000000 1.0
C      1  0.4261760000000  0.4457150000000  0.4962720000000 1.0
C      1  0.5562790000000  0.5121290000000  0.5700630000000 1.0
C      1  0.4667900000000  0.5424320000000  0.5659600000000 1.0
C      1  0.4847560000000  0.4392370000000  0.5763150000000 1.0
C      1  0.4811620000000  0.5017490000000  0.4491930000000 1.0
C      1  0.5093110000000  0.4826940000000  0.4478490000000 1.0
C      1  0.5117980000000  0.5168130000000  0.4488900000000 1.0
C      1  0.4057680000000  0.4757060000000  0.5315140000000 1.0
C      1  0.5689970000000  0.4410370000000  0.5249030000000 1.0
C      1  0.5195670000000  0.5873310000000  0.5188050000000 1.0
C      1  0.5524670000000  0.5104670000000  0.4630850000000 1.0
C      1  0.4710500000000  0.5365080000000  0.4653350000000 1.0
C      1  0.4852350000000  0.4591540000000  0.4690960000000 1.0
C      1  0.5012540000000  0.4778280000000  0.5168300000000 1.0
C      1  0.5208250000000  0.5010990000000  0.5157960000000 1.0
C      1  0.4718410000000  0.5177190000000  0.5187240000000 1.0
C      1  0.4675460000000  0.4160950000000  0.4723410000000 1.0
C      1  0.5910770000000  0.5091630000000  0.4726070000000 1.0
C      1  0.4455340000000  0.5674460000000  0.4731240000000 1.0
C      1  0.4949530000000  0.4850150000000  0.4850470000000 1.0
C      1  0.5276870000000  0.5075990000000  0.4843480000000 1.0
C      1  0.4803730000000  0.5123650000000  0.4877380000000 1.0
C      1  0.4713460000000  0.5782170000000  0.4610590000000 1.0
C      1  0.4431850000000  0.4394940000000  0.4674300000000 1.0
C      1  0.5846360000000  0.4787290000000  0.4587190000000 1.0
C      1  0.5248730000000  0.5123130000000  0.4175870000000 1.0
C      1  0.4804420000000  0.5211280000000  0.4206880000000 1.0
C      1  0.4948470000000  0.4752470000000  0.4170780000000 1.0
C      1  0.4225780000000  0.5110540000000  0.5395730000000 1.0
C      1  0.5256550000000  0.4260120000000  0.5432110000000 1.0
C      1  0.5378870000000  0.5611070000000  0.5314200000000 1.0
C      1  0.4744360000000  0.4595530000000  0.5117110000000 1.0
C      1  0.5545290000000  0.5004980000000  0.5189530000000 1.0
C      1  0.4747220000000  0.5499770000000  0.5152760000000 1.0
C      1  0.5299780000000  0.4103390000000  0.5179480000000 1.0
C      1  0.5669590000000  0.5675970000000  0.5165660000000 1.0
C      1  0.4027880000000  0.5268610000000  0.5235000000000 1.0
C      1  0.4522570000000  0.5406220000000  0.4400930000000 1.0
C      1  0.4883050000000  0.4438290000000  0.4399220000000 1.0
C      1  0.5608520000000  0.5197260000000  0.4329070000000 1.0
END
