TITL C-2782234-8014-1366 1.50435862522834e-08 125000 -51.9275150019425 0 0 10 (D5h) n - 1
REM
REM in /home/nfs/bkarasulu/CARBON/AIRSS/Generating-Clusters/REBO/Higher-Symm/SD-CG/HFTN-CG
REM
REM
REM
REM
REM
REM ./C.cell (12c818d87b63d06a65506943cc24bca4)
REM
REM compiler GCC version 9.2.1 20190827 (Red Hat 9.2.1-1)
REM options -cpp -mtune=generic -march=x86-64 -g -O0 -fpre-include=/usr/include/finclude/math-vector-fortran.h
REM seed 108151327 -1862560061 2099047515 1703778756 -1530399337 -165744505 1876267279 1178604913 1436638063 1256495828 2050331162 659144718 154916327 785777793 834517121 1194755515 1005703763 -458075700 1629592666 -142235672 -459572847 -179466236 1919010198 -1954019524 -1480058895 -1343056647 1318841702 755500488 -240930306 945461627 -91408437 -1310395809 1463672409
REM
CELL 1.54180   50.00000   50.00000   50.00000   90.00000   90.00000   90.00000
LATT -1
SFAC C  
C      1  0.4808870000000  0.4977580000000  0.4845180000000 1.0
C      1  0.5089070000000  0.4988770000000  0.4769900000000 1.0
C      1  0.5246180000000  0.5015480000000  0.5012620000000 1.0
C      1  0.5063080000000  0.5020800000000  0.5237900000000 1.0
C      1  0.4792800000000  0.4997370000000  0.5134410000000 1.0
C      1  0.4565890000000  0.4994490000000  0.5281610000000 1.0
C      1  0.4599550000000  0.4953020000000  0.4675620000000 1.0
C      1  0.5186620000000  0.4976480000000  0.4517920000000 1.0
C      1  0.5515790000000  0.5032440000000  0.5026430000000 1.0
C      1  0.5132150000000  0.5043570000000  0.5498420000000 1.0
END
