TITL C-2782230-7391-967 -0.00217351351916933 125000 -995.807253277802 0 0 169 (C1) n - 1
REM
REM in /home/nfs/bkarasulu/CARBON/AIRSS/Generating-Clusters/REBO/Higher-Symm/SD-CG/HFTN-CG
REM
REM
REM
REM
REM
REM ./C.cell (12c818d87b63d06a65506943cc24bca4)
REM
REM compiler GCC version 9.2.1 20190827 (Red Hat 9.2.1-1)
REM options -cpp -mtune=generic -march=x86-64 -g -O0 -fpre-include=/usr/include/finclude/math-vector-fortran.h
REM seed 2126385429 305552236 1170181274 1552702256 363669821 -1200281953 1892305980 -1009045925 551532167 -2053920471 811661504 1477151574 508336416 -1205759338 1942174055 1947155770 1724346051 -1896437306 1949350704 1587175785 18726532 -1075992836 379093922 -635212415 943240119 -504628588 1100692236 1643747318 481518647 -711489409 196628252 -46536326 604089710
REM
CELL 1.54180   50.00000   50.00000   50.00000   90.00000   90.00000   90.00000
LATT -1
SFAC C  
C      1  0.4761370000000  0.4516240000000  0.5455710000000 1.0
C      1  0.5030960000000  0.4464980000000  0.5448490000000 1.0
C      1  0.5269650000000  0.4610670000000  0.5452440000000 1.0
C      1  0.5388650000000  0.4868580000000  0.5328320000000 1.0
C      1  0.5488360000000  0.5134370000000  0.5447580000000 1.0
C      1  0.5370100000000  0.5383550000000  0.5462580000000 1.0
C      1  0.5122740000000  0.5500560000000  0.5472340000000 1.0
C      1  0.4863530000000  0.5426310000000  0.5337920000000 1.0
C      1  0.4616590000000  0.5263000000000  0.5441690000000 1.0
C      1  0.4521490000000  0.4998180000000  0.5456800000000 1.0
C      1  0.4580490000000  0.4724940000000  0.5460810000000 1.0
C      1  0.4740610000000  0.5907390000000  0.4548120000000 1.0
C      1  0.4305650000000  0.5583320000000  0.4543520000000 1.0
C      1  0.4011620000000  0.5129130000000  0.4569000000000 1.0
C      1  0.4070620000000  0.4577770000000  0.4569920000000 1.0
C      1  0.4417210000000  0.4167740000000  0.4583000000000 1.0
C      1  0.4979210000000  0.4037440000000  0.4557590000000 1.0
C      1  0.5499970000000  0.4188300000000  0.4586160000000 1.0
C      1  0.5847860000000  0.4613240000000  0.4549680000000 1.0
C      1  0.5955050000000  0.5144860000000  0.4553580000000 1.0
C      1  0.5740630000000  0.5639290000000  0.4570640000000 1.0
C      1  0.5272280000000  0.5899670000000  0.4574910000000 1.0
C      1  0.5719810000000  0.5992010000000  0.5308900000000 1.0
C      1  0.5131510000000  0.6250440000000  0.5290610000000 1.0
C      1  0.4471670000000  0.6059790000000  0.5294360000000 1.0
C      1  0.3968360000000  0.5653230000000  0.5295740000000 1.0
C      1  0.3792230000000  0.4907770000000  0.5318860000000 1.0
C      1  0.3990340000000  0.4282480000000  0.5327480000000 1.0
C      1  0.4530390000000  0.3821350000000  0.5258910000000 1.0
C      1  0.5158230000000  0.3760800000000  0.5252580000000 1.0
C      1  0.5782300000000  0.4108240000000  0.5248240000000 1.0
C      1  0.6116090000000  0.4724390000000  0.5296720000000 1.0
C      1  0.6175220000000  0.5409160000000  0.5299070000000 1.0
C      1  0.5749600000000  0.4491560000000  0.5143250000000 1.0
C      1  0.5994630000000  0.5079880000000  0.5161920000000 1.0
C      1  0.5818650000000  0.5556170000000  0.5194400000000 1.0
C      1  0.5341790000000  0.5923010000000  0.5199830000000 1.0
C      1  0.4855510000000  0.5969750000000  0.5229540000000 1.0
C      1  0.4343060000000  0.5704210000000  0.5168250000000 1.0
C      1  0.4064320000000  0.5271960000000  0.5235860000000 1.0
C      1  0.4113610000000  0.4704720000000  0.5197760000000 1.0
C      1  0.4356390000000  0.4176820000000  0.5208200000000 1.0
C      1  0.4865780000000  0.4024750000000  0.5186140000000 1.0
C      1  0.5328200000000  0.4211450000000  0.5124560000000 1.0
C      1  0.5334280000000  0.5738020000000  0.4968410000000 1.0
C      1  0.4936730000000  0.5790300000000  0.5009160000000 1.0
C      1  0.4457060000000  0.5604640000000  0.4912330000000 1.0
C      1  0.4210340000000  0.5189940000000  0.4967850000000 1.0
C      1  0.4230150000000  0.4866930000000  0.4950660000000 1.0
C      1  0.4428990000000  0.4348670000000  0.4976970000000 1.0
C      1  0.5000930000000  0.4252620000000  0.5099360000000 1.0
C      1  0.5269120000000  0.4392440000000  0.4840700000000 1.0
C      1  0.5506000000000  0.4566910000000  0.4965180000000 1.0
C      1  0.5828640000000  0.5021840000000  0.4924060000000 1.0
C      1  0.5702730000000  0.5470170000000  0.4929850000000 1.0
C      1  0.5258660000000  0.4307750000000  0.4162880000000 1.0
C      1  0.5552540000000  0.4443230000000  0.4132450000000 1.0
C      1  0.5643050000000  0.4984580000000  0.4145000000000 1.0
C      1  0.5543920000000  0.5289700000000  0.4200510000000 1.0
C      1  0.5308350000000  0.5527180000000  0.4134810000000 1.0
C      1  0.5019870000000  0.5661400000000  0.4187850000000 1.0
C      1  0.4750540000000  0.5560140000000  0.4152530000000 1.0
C      1  0.4337230000000  0.5174390000000  0.4188630000000 1.0
C      1  0.4299820000000  0.4854660000000  0.4164090000000 1.0
C      1  0.4433790000000  0.4546750000000  0.4152730000000 1.0
C      1  0.4720000000000  0.4380730000000  0.4224570000000 1.0
C      1  0.5392510000000  0.4825140000000  0.4412910000000 1.0
C      1  0.5456030000000  0.5019150000000  0.4583060000000 1.0
C      1  0.5410190000000  0.5312280000000  0.4487970000000 1.0
C      1  0.5145630000000  0.5436300000000  0.4593250000000 1.0
C      1  0.4909740000000  0.5400030000000  0.4481790000000 1.0
C      1  0.4673260000000  0.5284030000000  0.4430910000000 1.0
C      1  0.4537390000000  0.5088810000000  0.4571410000000 1.0
C      1  0.4574630000000  0.4809820000000  0.4523240000000 1.0
C      1  0.4742090000000  0.4679740000000  0.4367500000000 1.0
C      1  0.4982710000000  0.4594220000000  0.4192680000000 1.0
C      1  0.5230950000000  0.4698770000000  0.4240520000000 1.0
C      1  0.4177210000000  0.4329560000000  0.4762050000000 1.0
C      1  0.4679080000000  0.3994660000000  0.4715470000000 1.0
C      1  0.5232910000000  0.4071910000000  0.4764050000000 1.0
C      1  0.5703580000000  0.4389990000000  0.4761910000000 1.0
C      1  0.6009210000000  0.4848710000000  0.4714600000000 1.0
C      1  0.5958670000000  0.5427950000000  0.4728230000000 1.0
C      1  0.5557520000000  0.5840190000000  0.4744550000000 1.0
C      1  0.5002120000000  0.5969790000000  0.4756490000000 1.0
C      1  0.4461830000000  0.5845730000000  0.4698100000000 1.0
C      1  0.4091810000000  0.5410510000000  0.4745110000000 1.0
C      1  0.3972800000000  0.4846340000000  0.4747220000000 1.0
C      1  0.5631520000000  0.4769540000000  0.5525950000000 1.0
C      1  0.5778230000000  0.5150390000000  0.5599590000000 1.0
C      1  0.5579130000000  0.5586170000000  0.5609460000000 1.0
C      1  0.5141280000000  0.5785220000000  0.5630230000000 1.0
C      1  0.4760450000000  0.5635340000000  0.5572080000000 1.0
C      1  0.4403370000000  0.5458830000000  0.5602010000000 1.0
C      1  0.4218250000000  0.5012550000000  0.5601600000000 1.0
C      1  0.4317260000000  0.4587030000000  0.5605460000000 1.0
C      1  0.4625740000000  0.4258580000000  0.5614290000000 1.0
C      1  0.5065810000000  0.4164920000000  0.5606180000000 1.0
C      1  0.5485800000000  0.4396860000000  0.5561230000000 1.0
C      1  0.3996680000000  0.5078780000000  0.5421950000000 1.0
C      1  0.4113240000000  0.4525940000000  0.5407690000000 1.0
C      1  0.4491470000000  0.4061870000000  0.5444570000000 1.0
C      1  0.4991190000000  0.3926450000000  0.5443660000000 1.0
C      1  0.5542370000000  0.4210190000000  0.5337500000000 1.0
C      1  0.5848180000000  0.4644950000000  0.5354680000000 1.0
C      1  0.6006070000000  0.5200180000000  0.5429270000000 1.0
C      1  0.5740060000000  0.5724700000000  0.5405180000000 1.0
C      1  0.5212180000000  0.6006770000000  0.5452440000000 1.0
C      1  0.4676990000000  0.5893690000000  0.5447020000000 1.0
C      1  0.4237000000000  0.5630930000000  0.5436000000000 1.0
C      1  0.5254030000000  0.3900420000000  0.5038200000000 1.0
C      1  0.5893830000000  0.4247240000000  0.5003150000000 1.0
C      1  0.6167180000000  0.4842130000000  0.5016360000000 1.0
C      1  0.6086220000000  0.5497240000000  0.5023450000000 1.0
C      1  0.5602040000000  0.6021650000000  0.5028830000000 1.0
C      1  0.4996160000000  0.6181820000000  0.5022730000000 1.0
C      1  0.4394870000000  0.5984060000000  0.5003010000000 1.0
C      1  0.3964300000000  0.5496340000000  0.5033000000000 1.0
C      1  0.3849440000000  0.4792340000000  0.5042320000000 1.0
C      1  0.4073720000000  0.4186290000000  0.5050060000000 1.0
C      1  0.4671520000000  0.3897390000000  0.4997970000000 1.0
C      1  0.5461170000000  0.5694450000000  0.4388440000000 1.0
C      1  0.5020400000000  0.5870660000000  0.4375880000000 1.0
C      1  0.4582490000000  0.5667780000000  0.4364840000000 1.0
C      1  0.4205220000000  0.5315780000000  0.4380740000000 1.0
C      1  0.4082090000000  0.4853950000000  0.4381170000000 1.0
C      1  0.4279000000000  0.4398040000000  0.4386240000000 1.0
C      1  0.4703210000000  0.4157610000000  0.4413530000000 1.0
C      1  0.5234900000000  0.4157040000000  0.4377970000000 1.0
C      1  0.5692130000000  0.4379270000000  0.4379880000000 1.0
C      1  0.5815720000000  0.4897570000000  0.4378660000000 1.0
C      1  0.5789010000000  0.5379450000000  0.4379180000000 1.0
C      1  0.5031600000000  0.4604000000000  0.3784540000000 1.0
C      1  0.5285540000000  0.4503060000000  0.3895280000000 1.0
C      1  0.5537030000000  0.4718990000000  0.3961820000000 1.0
C      1  0.5574600000000  0.5010340000000  0.3818480000000 1.0
C      1  0.5448010000000  0.5228870000000  0.3733410000000 1.0
C      1  0.5246520000000  0.5378430000000  0.3858400000000 1.0
C      1  0.4975670000000  0.5310680000000  0.3817680000000 1.0
C      1  0.4742490000000  0.5329260000000  0.3977290000000 1.0
C      1  0.4560420000000  0.5117300000000  0.4012320000000 1.0
C      1  0.4564950000000  0.4793480000000  0.3956520000000 1.0
C      1  0.4807540000000  0.4697490000000  0.3805900000000 1.0
C      1  0.4439680000000  0.5180410000000  0.5801890000000 1.0
C      1  0.4427940000000  0.4839630000000  0.5811510000000 1.0
C      1  0.4585650000000  0.4537260000000  0.5813530000000 1.0
C      1  0.4885630000000  0.4375730000000  0.5808900000000 1.0
C      1  0.5225730000000  0.4404510000000  0.5791300000000 1.0
C      1  0.5467810000000  0.4643860000000  0.5797800000000 1.0
C      1  0.5573770000000  0.4966070000000  0.5800260000000 1.0
C      1  0.5551330000000  0.5306290000000  0.5808430000000 1.0
C      1  0.5310890000000  0.5549380000000  0.5820550000000 1.0
C      1  0.4970770000000  0.5570850000000  0.5834590000000 1.0
C      1  0.4658290000000  0.5438520000000  0.5830090000000 1.0
C      1  0.5394960000000  0.4838820000000  0.5037670000000 1.0
C      1  0.5537030000000  0.5035000000000  0.4880890000000 1.0
C      1  0.5450890000000  0.5335180000000  0.4826910000000 1.0
C      1  0.5171320000000  0.5486190000000  0.4903910000000 1.0
C      1  0.4892990000000  0.5480570000000  0.5049590000000 1.0
C      1  0.4644510000000  0.5395480000000  0.4920860000000 1.0
C      1  0.4512170000000  0.5137060000000  0.4876770000000 1.0
C      1  0.4525270000000  0.4794890000000  0.4841350000000 1.0
C      1  0.4631710000000  0.4536270000000  0.4944000000000 1.0
C      1  0.4900720000000  0.4478630000000  0.4980490000000 1.0
C      1  0.5122120000000  0.4690980000000  0.4910990000000 1.0
C      1  0.5013820000000  0.4955010000000  0.5058740000000 1.0
C      1  0.4966550000000  0.5112980000000  0.5564160000000 1.0
C      1  0.4955780000000  0.5171590000000  0.5819330000000 1.0
C      1  0.4981980000000  0.5045970000000  0.5306780000000 1.0
END
