TITL C-2782239-8622-1418 -0.00174492295997298 125000 -372.683424669566 0 0 65 (C1) n - 1
REM
REM in /home/nfs/bkarasulu/CARBON/AIRSS/Generating-Clusters/REBO/Higher-Symm/SD-CG/HFTN-CG
REM
REM
REM
REM
REM
REM ./C.cell (12c818d87b63d06a65506943cc24bca4)
REM
REM compiler GCC version 9.2.1 20190827 (Red Hat 9.2.1-1)
REM options -cpp -mtune=generic -march=x86-64 -g -O0 -fpre-include=/usr/include/finclude/math-vector-fortran.h
REM seed 727388129 -553988229 1262213094 18265432 -1108322431 1616966295 -80655104 1264756060 -897531199 -749750633 -391499406 -2100879425 561962050 -601199502 -1786845428 1726833572 -1812212262 -1717656806 797511787 1226484981 -342580866 -1773386646 1279863812 -1127594081 1117323990 294502527 214701436 1551485669 867323228 -1397357195 1744027507 -1926266635 1896605504
REM
CELL 1.54180   50.00000   50.00000   50.00000   90.00000   90.00000   90.00000
LATT -1
SFAC C  
C      1  0.5487550000000  0.5148000000000  0.4753550000000 1.0
C      1  0.4750080000000  0.4879210000000  0.5065610000000 1.0
C      1  0.5458860000000  0.5656770000000  0.5211720000000 1.0
C      1  0.4563340000000  0.4053910000000  0.4970860000000 1.0
C      1  0.5145990000000  0.4157770000000  0.4629290000000 1.0
C      1  0.4744530000000  0.5804450000000  0.5392700000000 1.0
C      1  0.4509530000000  0.5028060000000  0.5467240000000 1.0
C      1  0.5545280000000  0.4806320000000  0.4407520000000 1.0
C      1  0.4233820000000  0.5349950000000  0.5086540000000 1.0
C      1  0.5750620000000  0.4480650000000  0.4861210000000 1.0
C      1  0.4793620000000  0.5488870000000  0.4434070000000 1.0
C      1  0.5045070000000  0.4648470000000  0.5771980000000 1.0
C      1  0.5301950000000  0.4216170000000  0.4862100000000 1.0
C      1  0.4657520000000  0.5645800000000  0.5172560000000 1.0
C      1  0.4322730000000  0.5532920000000  0.5518470000000 1.0
C      1  0.5517680000000  0.4279820000000  0.4472100000000 1.0
C      1  0.5677050000000  0.4792850000000  0.5378940000000 1.0
C      1  0.4329150000000  0.5155060000000  0.4502940000000 1.0
C      1  0.5646170000000  0.4926300000000  0.4646810000000 1.0
C      1  0.4500100000000  0.4949450000000  0.5194020000000 1.0
C      1  0.5016790000000  0.5717520000000  0.5442190000000 1.0
C      1  0.4894110000000  0.4299460000000  0.4681480000000 1.0
C      1  0.4632790000000  0.4703830000000  0.4497620000000 1.0
C      1  0.5275490000000  0.5395910000000  0.5753270000000 1.0
C      1  0.5246800000000  0.5131370000000  0.5848760000000 1.0
C      1  0.4667770000000  0.4968250000000  0.4401100000000 1.0
C      1  0.4395690000000  0.5566060000000  0.5126620000000 1.0
C      1  0.5573010000000  0.4275590000000  0.4868180000000 1.0
C      1  0.4711310000000  0.5234540000000  0.4391160000000 1.0
C      1  0.5156450000000  0.4878010000000  0.5860280000000 1.0
C      1  0.5106370000000  0.5739000000000  0.4847250000000 1.0
C      1  0.4837670000000  0.4338540000000  0.5297390000000 1.0
C      1  0.5011480000000  0.4843050000000  0.5170710000000 1.0
C      1  0.5280640000000  0.5287860000000  0.4608350000000 1.0
C      1  0.5079740000000  0.4574350000000  0.5263370000000 1.0
C      1  0.5268820000000  0.5574620000000  0.4602790000000 1.0
C      1  0.4806050000000  0.5353400000000  0.5672440000000 1.0
C      1  0.5097160000000  0.4617440000000  0.4393230000000 1.0
C      1  0.5106280000000  0.4313950000000  0.5055680000000 1.0
C      1  0.4906150000000  0.5522340000000  0.5057180000000 1.0
C      1  0.5435280000000  0.5084670000000  0.5038740000000 1.0
C      1  0.4747380000000  0.5038620000000  0.4786330000000 1.0
C      1  0.4211850000000  0.5216690000000  0.4276830000000 1.0
C      1  0.5720310000000  0.4707870000000  0.5623050000000 1.0
C      1  0.4452310000000  0.5090360000000  0.4740350000000 1.0
C      1  0.5631300000000  0.4882730000000  0.5120760000000 1.0
C      1  0.4970450000000  0.5673560000000  0.4545420000000 1.0
C      1  0.4961750000000  0.4506600000000  0.5564750000000 1.0
C      1  0.4387780000000  0.4618540000000  0.4581760000000 1.0
C      1  0.5512800000000  0.5528450000000  0.5757360000000 1.0
C      1  0.5163980000000  0.5076350000000  0.5121270000000 1.0
C      1  0.5020020000000  0.5186890000000  0.4660450000000 1.0
C      1  0.5258110000000  0.4866270000000  0.4300240000000 1.0
C      1  0.4754860000000  0.5047730000000  0.5655980000000 1.0
C      1  0.5040360000000  0.5508990000000  0.5638040000000 1.0
C      1  0.4859850000000  0.4531420000000  0.4519630000000 1.0
C      1  0.4506730000000  0.5340530000000  0.5555170000000 1.0
C      1  0.5402760000000  0.4517550000000  0.4422040000000 1.0
C      1  0.4331290000000  0.5096120000000  0.5004030000000 1.0
C      1  0.5735120000000  0.4761860000000  0.4873830000000 1.0
C      1  0.4596480000000  0.5968960000000  0.5547360000000 1.0
C      1  0.5212220000000  0.4032510000000  0.4399650000000 1.0
C      1  0.4781060000000  0.4225980000000  0.4981640000000 1.0
C      1  0.5185990000000  0.5682840000000  0.5169010000000 1.0
C      1  0.4946320000000  0.5244200000000  0.4974040000000 1.0
END
