TITL C-2782234-8014-805 0.00209520726263465 125000 -1008.74768818132 0 0 174 (C1) n - 1
REM
REM in /home/nfs/bkarasulu/CARBON/AIRSS/Generating-Clusters/REBO/Higher-Symm/SD-CG/HFTN-CG
REM
REM
REM
REM
REM
REM ./C.cell (12c818d87b63d06a65506943cc24bca4)
REM
REM compiler GCC version 9.2.1 20190827 (Red Hat 9.2.1-1)
REM options -cpp -mtune=generic -march=x86-64 -g -O0 -fpre-include=/usr/include/finclude/math-vector-fortran.h
REM seed -289484298 -1243253474 381162367 -684723217 -676931958 423668315 970657585 -305176028 790966352 1083844449 -1594129265 -1313849506 248350290 39669509 -1431804199 905766605 1746160998 1058588988 2072744270 1050980521 470083424 2020326054 -1562245376 1816048906 -1287617990 -1415504666 -1981821151 -557353299 -1841240735 2131283833 1944335288 -939646203 -521290613
REM
CELL 1.54180   50.00000   50.00000   50.00000   90.00000   90.00000   90.00000
LATT -1
SFAC C  
C      1  0.4682990000000  0.5097020000000  0.5098120000000 1.0
C      1  0.5203980000000  0.5241340000000  0.4803530000000 1.0
C      1  0.5090880000000  0.5183170000000  0.5334280000000 1.0
C      1  0.5563520000000  0.4290650000000  0.5814790000000 1.0
C      1  0.4169260000000  0.4299200000000  0.5097260000000 1.0
C      1  0.5387720000000  0.4198590000000  0.4199410000000 1.0
C      1  0.4714150000000  0.4461440000000  0.5824900000000 1.0
C      1  0.4436880000000  0.4419600000000  0.4389110000000 1.0
C      1  0.5846510000000  0.4407910000000  0.4762410000000 1.0
C      1  0.5922240000000  0.4307620000000  0.5288140000000 1.0
C      1  0.4444110000000  0.4182930000000  0.5508980000000 1.0
C      1  0.4855660000000  0.4184400000000  0.4232110000000 1.0
C      1  0.5439230000000  0.4335680000000  0.5002340000000 1.0
C      1  0.4860150000000  0.4354950000000  0.5328730000000 1.0
C      1  0.4755160000000  0.4304690000000  0.4599550000000 1.0
C      1  0.5801900000000  0.5573720000000  0.5138240000000 1.0
C      1  0.4382710000000  0.5787220000000  0.5518710000000 1.0
C      1  0.4744980000000  0.5688220000000  0.4350110000000 1.0
C      1  0.4635460000000  0.5038940000000  0.5851530000000 1.0
C      1  0.4397320000000  0.5009120000000  0.4227640000000 1.0
C      1  0.5946500000000  0.4988140000000  0.4847600000000 1.0
C      1  0.6046430000000  0.5216560000000  0.4676720000000 1.0
C      1  0.4718150000000  0.5249260000000  0.6061950000000 1.0
C      1  0.4278690000000  0.5240150000000  0.4341060000000 1.0
C      1  0.5713260000000  0.4351710000000  0.5536250000000 1.0
C      1  0.4297900000000  0.4527110000000  0.5243030000000 1.0
C      1  0.5185410000000  0.4455200000000  0.4191070000000 1.0
C      1  0.5758450000000  0.4719260000000  0.5142940000000 1.0
C      1  0.4302500000000  0.4623570000000  0.5630960000000 1.0
C      1  0.4786360000000  0.4658160000000  0.4202190000000 1.0
C      1  0.5480410000000  0.5427440000000  0.5912070000000 1.0
C      1  0.3973600000000  0.5514870000000  0.4939650000000 1.0
C      1  0.5560820000000  0.5414610000000  0.4140490000000 1.0
C      1  0.4673070000000  0.5749310000000  0.5676530000000 1.0
C      1  0.4475810000000  0.5801230000000  0.4464290000000 1.0
C      1  0.5693910000000  0.5736070000000  0.4933420000000 1.0
C      1  0.5854500000000  0.4841610000000  0.5420860000000 1.0
C      1  0.4150550000000  0.4924710000000  0.5600880000000 1.0
C      1  0.4815940000000  0.4888890000000  0.4002350000000 1.0
C      1  0.4135520000000  0.5349180000000  0.4694840000000 1.0
C      1  0.5864080000000  0.5310570000000  0.4141990000000 1.0
C      1  0.5157810000000  0.5362240000000  0.5999650000000 1.0
C      1  0.5542680000000  0.4524190000000  0.4808900000000 1.0
C      1  0.4955780000000  0.4502090000000  0.5591100000000 1.0
C      1  0.4542220000000  0.4555650000000  0.4687780000000 1.0
C      1  0.4763500000000  0.4653320000000  0.5005100000000 1.0
C      1  0.5156970000000  0.4588520000000  0.4747630000000 1.0
C      1  0.5242610000000  0.4485090000000  0.5316110000000 1.0
C      1  0.5169030000000  0.4912480000000  0.4787550000000 1.0
C      1  0.5069300000000  0.4688610000000  0.5256100000000 1.0
C      1  0.4873690000000  0.4847750000000  0.4851580000000 1.0
C      1  0.4118780000000  0.5327370000000  0.5537450000000 1.0
C      1  0.4958790000000  0.5480680000000  0.3913070000000 1.0
C      1  0.5899020000000  0.5242450000000  0.5459560000000 1.0
C      1  0.4699860000000  0.5299230000000  0.5318580000000 1.0
C      1  0.4995670000000  0.5389920000000  0.4601710000000 1.0
C      1  0.5272530000000  0.5386590000000  0.5150350000000 1.0
C      1  0.4124460000000  0.5479070000000  0.4316780000000 1.0
C      1  0.5996890000000  0.5532840000000  0.4624430000000 1.0
C      1  0.4773880000000  0.5510820000000  0.6092420000000 1.0
C      1  0.5351440000000  0.3887760000000  0.5502770000000 1.0
C      1  0.4403510000000  0.4141770000000  0.5234680000000 1.0
C      1  0.5123250000000  0.4097630000000  0.4374900000000 1.0
C      1  0.4464070000000  0.4896660000000  0.5160500000000 1.0
C      1  0.5111510000000  0.4782490000000  0.4404170000000 1.0
C      1  0.5331670000000  0.4951540000000  0.5401530000000 1.0
C      1  0.5339190000000  0.5760040000000  0.4513780000000 1.0
C      1  0.5193060000000  0.5709650000000  0.5609430000000 1.0
C      1  0.4294440000000  0.5922070000000  0.4892450000000 1.0
C      1  0.5229360000000  0.4081590000000  0.5748310000000 1.0
C      1  0.4529820000000  0.4241780000000  0.4938490000000 1.0
C      1  0.5333250000000  0.4269980000000  0.4585210000000 1.0
C      1  0.4202720000000  0.5688220000000  0.4493700000000 1.0
C      1  0.5800030000000  0.5726910000000  0.4673550000000 1.0
C      1  0.4840260000000  0.5725150000000  0.5922980000000 1.0
C      1  0.5227910000000  0.5573890000000  0.4764740000000 1.0
C      1  0.5042980000000  0.5519100000000  0.5369380000000 1.0
C      1  0.4479980000000  0.6001170000000  0.4681730000000 1.0
C      1  0.5402720000000  0.4688370000000  0.4554400000000 1.0
C      1  0.5167830000000  0.4765620000000  0.5634450000000 1.0
C      1  0.4384370000000  0.4734930000000  0.4912490000000 1.0
C      1  0.5244400000000  0.3965800000000  0.5190160000000 1.0
C      1  0.4764410000000  0.3932600000000  0.5026590000000 1.0
C      1  0.5109000000000  0.3965500000000  0.4688160000000 1.0
C      1  0.5510970000000  0.5208130000000  0.5056570000000 1.0
C      1  0.4747470000000  0.5366710000000  0.5590180000000 1.0
C      1  0.4749540000000  0.5264450000000  0.4448470000000 1.0
C      1  0.5066750000000  0.5606190000000  0.4272860000000 1.0
C      1  0.5717630000000  0.5637000000000  0.5429760000000 1.0
C      1  0.4257610000000  0.5607360000000  0.5287800000000 1.0
C      1  0.5085750000000  0.4286110000000  0.4822450000000 1.0
C      1  0.5218380000000  0.4198090000000  0.5434670000000 1.0
C      1  0.4835640000000  0.4338980000000  0.4987700000000 1.0
C      1  0.4450990000000  0.4396620000000  0.5696750000000 1.0
C      1  0.4686020000000  0.4401140000000  0.4218240000000 1.0
C      1  0.5877540000000  0.4471390000000  0.5071230000000 1.0
C      1  0.4578260000000  0.4519470000000  0.5227940000000 1.0
C      1  0.5001550000000  0.4464600000000  0.4476310000000 1.0
C      1  0.5531570000000  0.4386020000000  0.5277210000000 1.0
C      1  0.4148230000000  0.4624500000000  0.4691900000000 1.0
C      1  0.5668820000000  0.4606920000000  0.4380150000000 1.0
C      1  0.5155380000000  0.4642380000000  0.5940170000000 1.0
C      1  0.5395760000000  0.5786380000000  0.4931960000000 1.0
C      1  0.4848040000000  0.5769420000000  0.5419580000000 1.0
C      1  0.4689990000000  0.6177140000000  0.4724240000000 1.0
C      1  0.5014560000000  0.6010150000000  0.5252080000000 1.0
C      1  0.4856470000000  0.6137680000000  0.4997430000000 1.0
C      1  0.5236450000000  0.6073920000000  0.4894240000000 1.0
C      1  0.4571430000000  0.4881090000000  0.4591780000000 1.0
C      1  0.5628140000000  0.4913930000000  0.4815390000000 1.0
C      1  0.4744100000000  0.4892810000000  0.5570490000000 1.0
C      1  0.5710980000000  0.4640890000000  0.5658530000000 1.0
C      1  0.4109460000000  0.4774050000000  0.5296820000000 1.0
C      1  0.5120520000000  0.4729220000000  0.4006010000000 1.0
C      1  0.5842650000000  0.4727790000000  0.4647020000000 1.0
C      1  0.4844170000000  0.4766260000000  0.5868730000000 1.0
C      1  0.4315930000000  0.4737310000000  0.4416920000000 1.0
C      1  0.5604730000000  0.5130390000000  0.5811270000000 1.0
C      1  0.3981340000000  0.5186690000000  0.5025060000000 1.0
C      1  0.5340260000000  0.5201810000000  0.3988960000000 1.0
C      1  0.4680460000000  0.5954120000000  0.5206670000000 1.0
C      1  0.4992560000000  0.6063300000000  0.4692290000000 1.0
C      1  0.5312020000000  0.5952490000000  0.5203650000000 1.0
C      1  0.4982420000000  0.5369130000000  0.5734170000000 1.0
C      1  0.4465160000000  0.5318840000000  0.4593500000000 1.0
C      1  0.6016590000000  0.5342360000000  0.4372890000000 1.0
C      1  0.4195730000000  0.4987770000000  0.4849920000000 1.0
C      1  0.5544840000000  0.4972100000000  0.4122710000000 1.0
C      1  0.5276340000000  0.5033270000000  0.5806690000000 1.0
C      1  0.4814910000000  0.4939570000000  0.4398530000000 1.0
C      1  0.5483320000000  0.4888700000000  0.5112110000000 1.0
C      1  0.4475890000000  0.4828980000000  0.5456430000000 1.0
C      1  0.5435600000000  0.5812550000000  0.5434060000000 1.0
C      1  0.4387860000000  0.5885900000000  0.5185630000000 1.0
C      1  0.5016540000000  0.5850960000000  0.4486010000000 1.0
C      1  0.5140450000000  0.5083980000000  0.6111420000000 1.0
C      1  0.3988060000000  0.5084130000000  0.4615320000000 1.0
C      1  0.5836110000000  0.5045090000000  0.4047460000000 1.0
C      1  0.4436430000000  0.4178100000000  0.4617590000000 1.0
C      1  0.5629720000000  0.4149520000000  0.4706680000000 1.0
C      1  0.4991740000000  0.4288410000000  0.5844410000000 1.0
C      1  0.4742900000000  0.5410870000000  0.4145290000000 1.0
C      1  0.5777490000000  0.5298140000000  0.5083590000000 1.0
C      1  0.4453050000000  0.5493180000000  0.5679510000000 1.0
C      1  0.4634180000000  0.5094700000000  0.4077990000000 1.0
C      1  0.5968040000000  0.5055850000000  0.5181450000000 1.0
C      1  0.4354490000000  0.5170900000000  0.5710320000000 1.0
C      1  0.5480510000000  0.4678330000000  0.5865500000000 1.0
C      1  0.4000420000000  0.4669760000000  0.4991540000000 1.0
C      1  0.5427150000000  0.4694790000000  0.4156410000000 1.0
C      1  0.4397850000000  0.5349060000000  0.5213630000000 1.0
C      1  0.5145020000000  0.5298260000000  0.4323970000000 1.0
C      1  0.5434830000000  0.5465930000000  0.5410600000000 1.0
C      1  0.5589720000000  0.4935630000000  0.5579990000000 1.0
C      1  0.4206020000000  0.5081540000000  0.5237430000000 1.0
C      1  0.5150730000000  0.5012680000000  0.4174260000000 1.0
C      1  0.4707670000000  0.5092010000000  0.4805930000000 1.0
C      1  0.5434060000000  0.5074650000000  0.4646650000000 1.0
C      1  0.4938670000000  0.4913690000000  0.5344870000000 1.0
C      1  0.5301970000000  0.4335590000000  0.5961760000000 1.0
C      1  0.4210830000000  0.4328390000000  0.4794430000000 1.0
C      1  0.5620860000000  0.4298590000000  0.4401180000000 1.0
C      1  0.4923300000000  0.4035150000000  0.5228040000000 1.0
C      1  0.4804600000000  0.4010100000000  0.4764020000000 1.0
C      1  0.5373000000000  0.4023240000000  0.4896200000000 1.0
C      1  0.3999250000000  0.5422050000000  0.5268260000000 1.0
C      1  0.5260290000000  0.5519810000000  0.4013230000000 1.0
C      1  0.5729780000000  0.5407110000000  0.5673840000000 1.0
C      1  0.5307410000000  0.5328260000000  0.5636060000000 1.0
C      1  0.4371800000000  0.5271260000000  0.4917320000000 1.0
C      1  0.5451140000000  0.5184700000000  0.4371350000000 1.0
C      1  0.5603610000000  0.5793300000000  0.4477800000000 1.0
C      1  0.5110380000000  0.5766650000000  0.5858090000000 1.0
C      1  0.4111850000000  0.5740400000000  0.4769040000000 1.0
END
