TITL C-2782225-7408-1394 -0.00914574025776459 125000 -816.359816066069 0 0 137 (C1) n - 1
REM
REM in /home/nfs/bkarasulu/CARBON/AIRSS/Generating-Clusters/REBO/Higher-Symm/SD-CG/HFTN-CG
REM
REM
REM
REM
REM
REM ./C.cell (12c818d87b63d06a65506943cc24bca4)
REM
REM compiler GCC version 9.2.1 20190827 (Red Hat 9.2.1-1)
REM options -cpp -mtune=generic -march=x86-64 -g -O0 -fpre-include=/usr/include/finclude/math-vector-fortran.h
REM seed 1243304795 1252820797 -1188774447 1155638178 442149970 962535057 1711584731 -1301046984 -1416599060 447247699 -1142380312 1428715830 -1718698014 -18525785 -666087916 1824737863 1715011422 2081514106 -1933678932 794964514 1429500998 308699574 -1480476463 -1328439251 -1190890507 -1969192552 -1909620683 1589264833 1040691055 -947461984 -1305693342 1630959002 -1999986497
REM
CELL 1.54180   50.00000   50.00000   50.00000   90.00000   90.00000   90.00000
LATT -1
SFAC C  
C      1  0.4570740000000  0.5636320000000  0.4689150000000 1.0
C      1  0.4946270000000  0.5630450000000  0.5551600000000 1.0
C      1  0.5516310000000  0.5673720000000  0.4771240000000 1.0
C      1  0.4546790000000  0.4356850000000  0.4639590000000 1.0
C      1  0.4930870000000  0.4395180000000  0.5506090000000 1.0
C      1  0.5504610000000  0.4365750000000  0.4763970000000 1.0
C      1  0.4464420000000  0.5811930000000  0.5612320000000 1.0
C      1  0.5800760000000  0.5828460000000  0.5182300000000 1.0
C      1  0.4729180000000  0.5827660000000  0.4239930000000 1.0
C      1  0.4438480000000  0.4214140000000  0.5558300000000 1.0
C      1  0.5803630000000  0.4219700000000  0.5142860000000 1.0
C      1  0.4728740000000  0.4137690000000  0.4208670000000 1.0
C      1  0.5844670000000  0.5426290000000  0.5550270000000 1.0
C      1  0.5070390000000  0.5366360000000  0.4111560000000 1.0
C      1  0.4109990000000  0.5377530000000  0.5386550000000 1.0
C      1  0.5819270000000  0.4643490000000  0.5568400000000 1.0
C      1  0.4914110000000  0.4639490000000  0.4204230000000 1.0
C      1  0.4101510000000  0.4623600000000  0.5387770000000 1.0
C      1  0.5824660000000  0.5223670000000  0.4760640000000 1.0
C      1  0.4379070000000  0.5153890000000  0.4359970000000 1.0
C      1  0.4752520000000  0.5142870000000  0.5797220000000 1.0
C      1  0.5812250000000  0.4884080000000  0.4779680000000 1.0
C      1  0.4389570000000  0.4820620000000  0.4291740000000 1.0
C      1  0.4766490000000  0.4816880000000  0.5790850000000 1.0
C      1  0.4344610000000  0.4239570000000  0.5102670000000 1.0
C      1  0.5466320000000  0.4247170000000  0.5454470000000 1.0
C      1  0.5169710000000  0.4199550000000  0.4352270000000 1.0
C      1  0.4366190000000  0.5811470000000  0.5162390000000 1.0
C      1  0.5448590000000  0.5771410000000  0.5485520000000 1.0
C      1  0.5182490000000  0.5805490000000  0.4355720000000 1.0
C      1  0.5370180000000  0.5587700000000  0.4516270000000 1.0
C      1  0.4430440000000  0.5577250000000  0.4945320000000 1.0
C      1  0.5239260000000  0.5545570000000  0.5578380000000 1.0
C      1  0.5475820000000  0.4320550000000  0.4427170000000 1.0
C      1  0.4375310000000  0.4445930000000  0.4864160000000 1.0
C      1  0.5229630000000  0.4463020000000  0.5534220000000 1.0
C      1  0.5774530000000  0.4884700000000  0.5719060000000 1.0
C      1  0.5128020000000  0.4862780000000  0.4272680000000 1.0
C      1  0.4115630000000  0.4826550000000  0.5161220000000 1.0
C      1  0.5676660000000  0.5201770000000  0.5665150000000 1.0
C      1  0.5177460000000  0.5141730000000  0.4246510000000 1.0
C      1  0.4066260000000  0.5144260000000  0.5234380000000 1.0
C      1  0.4401460000000  0.4737610000000  0.4991890000000 1.0
C      1  0.5469010000000  0.4953280000000  0.5630620000000 1.0
C      1  0.5121150000000  0.4762940000000  0.4574620000000 1.0
C      1  0.4341250000000  0.5045420000000  0.5081550000000 1.0
C      1  0.5378970000000  0.5245330000000  0.5500200000000 1.0
C      1  0.5178570000000  0.5086790000000  0.4597410000000 1.0
C      1  0.4116850000000  0.5448940000000  0.4930850000000 1.0
C      1  0.5403780000000  0.5422530000000  0.5854940000000 1.0
C      1  0.5510760000000  0.5445470000000  0.4238970000000 1.0
C      1  0.4062170000000  0.4589650000000  0.4848460000000 1.0
C      1  0.5387920000000  0.4567050000000  0.5819120000000 1.0
C      1  0.5449970000000  0.4590890000000  0.4217830000000 1.0
C      1  0.4567030000000  0.5871800000000  0.5350180000000 1.0
C      1  0.5518590000000  0.5859980000000  0.5229900000000 1.0
C      1  0.4924630000000  0.5870670000000  0.4446250000000 1.0
C      1  0.4540510000000  0.4172830000000  0.5292780000000 1.0
C      1  0.5530820000000  0.4149070000000  0.5203010000000 1.0
C      1  0.4914580000000  0.4115890000000  0.4430480000000 1.0
C      1  0.5743940000000  0.4580140000000  0.4853370000000 1.0
C      1  0.4496780000000  0.4512000000000  0.4394590000000 1.0
C      1  0.4737300000000  0.4555090000000  0.5677240000000 1.0
C      1  0.5771830000000  0.5501750000000  0.4842850000000 1.0
C      1  0.4492170000000  0.5464260000000  0.4442730000000 1.0
C      1  0.4745510000000  0.5451210000000  0.5701070000000 1.0
C      1  0.4983860000000  0.5258780000000  0.5421790000000 1.0
C      1  0.5435220000000  0.5289560000000  0.4815550000000 1.0
C      1  0.4689590000000  0.5259110000000  0.4722800000000 1.0
C      1  0.4968080000000  0.4787770000000  0.5448380000000 1.0
C      1  0.5348700000000  0.4755320000000  0.4900430000000 1.0
C      1  0.4687330000000  0.4719530000000  0.4714020000000 1.0
C      1  0.4291060000000  0.4693910000000  0.5586960000000 1.0
C      1  0.5881650000000  0.4704700000000  0.5293540000000 1.0
C      1  0.4622180000000  0.4723380000000  0.4080670000000 1.0
C      1  0.4302780000000  0.5324920000000  0.5590720000000 1.0
C      1  0.5913030000000  0.5357000000000  0.5283310000000 1.0
C      1  0.4788250000000  0.5350300000000  0.4087680000000 1.0
C      1  0.5323040000000  0.5140290000000  0.5949780000000 1.0
C      1  0.5573420000000  0.5172730000000  0.4277830000000 1.0
C      1  0.4103140000000  0.5202330000000  0.4803930000000 1.0
C      1  0.5290710000000  0.4801670000000  0.5946600000000 1.0
C      1  0.5523920000000  0.4842420000000  0.4317300000000 1.0
C      1  0.4108190000000  0.4873980000000  0.4758340000000 1.0
C      1  0.5284340000000  0.4853770000000  0.5421030000000 1.0
C      1  0.5015600000000  0.4868860000000  0.4881480000000 1.0
C      1  0.4702710000000  0.4905080000000  0.4986190000000 1.0
C      1  0.5209730000000  0.5103160000000  0.5241400000000 1.0
C      1  0.5192080000000  0.5115840000000  0.4946660000000 1.0
C      1  0.4582630000000  0.5191520000000  0.5021050000000 1.0
C      1  0.5253490000000  0.5593090000000  0.4136650000000 1.0
C      1  0.4128300000000  0.5609710000000  0.5201940000000 1.0
C      1  0.5619440000000  0.5596110000000  0.5681440000000 1.0
C      1  0.5176410000000  0.4463120000000  0.4205770000000 1.0
C      1  0.4091290000000  0.4429330000000  0.5141110000000 1.0
C      1  0.5613330000000  0.4446000000000  0.5639440000000 1.0
C      1  0.4611350000000  0.4386850000000  0.4148620000000 1.0
C      1  0.4465270000000  0.4478690000000  0.5658230000000 1.0
C      1  0.5857610000000  0.4498050000000  0.5099190000000 1.0
C      1  0.4635540000000  0.5560600000000  0.4207130000000 1.0
C      1  0.4473610000000  0.5535350000000  0.5679040000000 1.0
C      1  0.5885870000000  0.5570000000000  0.5095060000000 1.0
C      1  0.4824060000000  0.4529860000000  0.4963740000000 1.0
C      1  0.5070420000000  0.4603810000000  0.5196150000000 1.0
C      1  0.5149900000000  0.4497130000000  0.4893890000000 1.0
C      1  0.4852370000000  0.5466830000000  0.4937730000000 1.0
C      1  0.5088660000000  0.5476830000000  0.5182170000000 1.0
C      1  0.5166270000000  0.5496400000000  0.4846320000000 1.0
C      1  0.4854180000000  0.5788470000000  0.5305620000000 1.0
C      1  0.5349160000000  0.5816620000000  0.4989850000000 1.0
C      1  0.4829280000000  0.5797680000000  0.4718160000000 1.0
C      1  0.4835020000000  0.4230010000000  0.5265360000000 1.0
C      1  0.5327800000000  0.4168280000000  0.4980430000000 1.0
C      1  0.4806380000000  0.4197160000000  0.4700900000000 1.0
C      1  0.5068770000000  0.4907520000000  0.5752080000000 1.0
C      1  0.5509890000000  0.4823020000000  0.4643980000000 1.0
C      1  0.4404730000000  0.4838490000000  0.4605780000000 1.0
C      1  0.5069750000000  0.5227560000000  0.5744420000000 1.0
C      1  0.5573130000000  0.5131460000000  0.4584750000000 1.0
C      1  0.4384210000000  0.5150820000000  0.4678250000000 1.0
C      1  0.4669830000000  0.4851440000000  0.5400000000000 1.0
C      1  0.5550950000000  0.4869490000000  0.5125890000000 1.0
C      1  0.4763360000000  0.4851220000000  0.4430670000000 1.0
C      1  0.4668190000000  0.5189350000000  0.5409590000000 1.0
C      1  0.5569020000000  0.5210230000000  0.5104860000000 1.0
C      1  0.4827420000000  0.5188050000000  0.4450640000000 1.0
C      1  0.4627060000000  0.5450450000000  0.5195180000000 1.0
C      1  0.5397620000000  0.5463500000000  0.5170420000000 1.0
C      1  0.5085750000000  0.5397160000000  0.4536430000000 1.0
C      1  0.4676150000000  0.4596020000000  0.5238720000000 1.0
C      1  0.5399290000000  0.4597820000000  0.5265170000000 1.0
C      1  0.5254910000000  0.4503490000000  0.4595770000000 1.0
C      1  0.4687000000000  0.5053830000000  0.4162510000000 1.0
C      1  0.5839030000000  0.5032300000000  0.5211790000000 1.0
C      1  0.4420630000000  0.5008890000000  0.5567180000000 1.0
C      1  0.4986400000000  0.4150440000000  0.4986550000000 1.0
C      1  0.5009540000000  0.5826320000000  0.5005390000000 1.0
END
