TITL C-2782229-3092-1441 0.00172632630123834 125000 -589.049481067049 0 0 106 (C1) n - 1
REM
REM in /home/nfs/bkarasulu/CARBON/AIRSS/Generating-Clusters/REBO/Higher-Symm/SD-CG/HFTN-CG
REM
REM
REM
REM
REM
REM ./C.cell (12c818d87b63d06a65506943cc24bca4)
REM
REM compiler GCC version 9.2.1 20190827 (Red Hat 9.2.1-1)
REM options -cpp -mtune=generic -march=x86-64 -g -O0 -fpre-include=/usr/include/finclude/math-vector-fortran.h
REM seed 180202532 -782351361 -1397146648 -2063914788 1190064649 1071894203 36306619 1390657063 34515913 -1148035774 16637943 442788813 -500578184 1175567845 -85438644 -1263421239 687271933 -351654725 -1570804128 713055913 -361180412 -832486883 855708997 -1086389549 -1962139737 -704811987 -1970194349 -1960533114 -281991626 -1387489593 919671520 -1383452964 -862840296
REM
CELL 1.54180   50.00000   50.00000   50.00000   90.00000   90.00000   90.00000
LATT -1
SFAC C  
C      1  0.5401500000000  0.4142090000000  0.4868900000000 1.0
C      1  0.5410280000000  0.5362050000000  0.5804870000000 1.0
C      1  0.5391690000000  0.5584830000000  0.4307190000000 1.0
C      1  0.5237580000000  0.4688330000000  0.4238990000000 1.0
C      1  0.5222990000000  0.4510080000000  0.5653530000000 1.0
C      1  0.5265120000000  0.5837030000000  0.5073500000000 1.0
C      1  0.5542330000000  0.5801340000000  0.4869130000000 1.0
C      1  0.5508040000000  0.4511800000000  0.4361710000000 1.0
C      1  0.5476200000000  0.4714940000000  0.5761780000000 1.0
C      1  0.5568350000000  0.4319000000000  0.4627140000000 1.0
C      1  0.5517910000000  0.5035150000000  0.5801280000000 1.0
C      1  0.5587280000000  0.5651740000000  0.4566450000000 1.0
C      1  0.4911830000000  0.4735360000000  0.5551630000000 1.0
C      1  0.4993920000000  0.5608250000000  0.4891870000000 1.0
C      1  0.4946420000000  0.4631380000000  0.4501380000000 1.0
C      1  0.4754320000000  0.4639010000000  0.5134190000000 1.0
C      1  0.4719010000000  0.5458910000000  0.5180660000000 1.0
C      1  0.4772330000000  0.5073250000000  0.4555880000000 1.0
C      1  0.4525190000000  0.5367500000000  0.5654380000000 1.0
C      1  0.4566090000000  0.5335820000000  0.4315070000000 1.0
C      1  0.4557810000000  0.4263660000000  0.5040310000000 1.0
C      1  0.4778690000000  0.5089150000000  0.6235810000000 1.0
C      1  0.4633060000000  0.5872580000000  0.4272490000000 1.0
C      1  0.4689270000000  0.3909300000000  0.4585820000000 1.0
C      1  0.4859440000000  0.5757460000000  0.4337150000000 1.0
C      1  0.4892500000000  0.4051150000000  0.4671000000000 1.0
C      1  0.4957060000000  0.5141310000000  0.6051020000000 1.0
C      1  0.4441490000000  0.5101870000000  0.5753940000000 1.0
C      1  0.4492640000000  0.5561180000000  0.4488700000000 1.0
C      1  0.4485770000000  0.4287340000000  0.4757650000000 1.0
C      1  0.4904700000000  0.5315120000000  0.4268250000000 1.0
C      1  0.4894350000000  0.4266120000000  0.5100120000000 1.0
C      1  0.4861490000000  0.5417720000000  0.5680340000000 1.0
C      1  0.5097040000000  0.5168290000000  0.4790010000000 1.0
C      1  0.5081580000000  0.4769650000000  0.4948980000000 1.0
C      1  0.5079170000000  0.5123800000000  0.5265110000000 1.0
C      1  0.5226550000000  0.5302420000000  0.4243500000000 1.0
C      1  0.5204940000000  0.4234540000000  0.5132190000000 1.0
C      1  0.5183200000000  0.5517390000000  0.5617160000000 1.0
C      1  0.4716670000000  0.4388590000000  0.4548230000000 1.0
C      1  0.4656200000000  0.4834860000000  0.5755300000000 1.0
C      1  0.4720300000000  0.5685290000000  0.4705160000000 1.0
C      1  0.5622340000000  0.4859080000000  0.5296500000000 1.0
C      1  0.5623370000000  0.5338200000000  0.4969530000000 1.0
C      1  0.5625830000000  0.4809600000000  0.4696380000000 1.0
C      1  0.4290340000000  0.4949150000000  0.4704410000000 1.0
C      1  0.4247920000000  0.4780850000000  0.5156160000000 1.0
C      1  0.4292640000000  0.5252390000000  0.5094670000000 1.0
C      1  0.5134360000000  0.5193160000000  0.5867330000000 1.0
C      1  0.5093430000000  0.5638460000000  0.4403990000000 1.0
C      1  0.5094470000000  0.4192090000000  0.4755650000000 1.0
C      1  0.5307890000000  0.5606200000000  0.5320010000000 1.0
C      1  0.5310020000000  0.5013280000000  0.4308220000000 1.0
C      1  0.5300870000000  0.4444440000000  0.5333090000000 1.0
C      1  0.4840700000000  0.5394340000000  0.4593050000000 1.0
C      1  0.4831960000000  0.4476480000000  0.4850130000000 1.0
C      1  0.4822170000000  0.5108360000000  0.5638520000000 1.0
C      1  0.4443120000000  0.4518760000000  0.5179110000000 1.0
C      1  0.4447810000000  0.5399410000000  0.5360800000000 1.0
C      1  0.4462450000000  0.5061550000000  0.4436930000000 1.0
C      1  0.4801680000000  0.4948380000000  0.5174240000000 1.0
C      1  0.4824070000000  0.5212730000000  0.4973860000000 1.0
C      1  0.4801600000000  0.4867500000000  0.4784840000000 1.0
C      1  0.4316140000000  0.4629510000000  0.5458140000000 1.0
C      1  0.4351800000000  0.5589870000000  0.5095410000000 1.0
C      1  0.4378660000000  0.4746300000000  0.4439700000000 1.0
C      1  0.4901020000000  0.4719330000000  0.4184720000000 1.0
C      1  0.4904000000000  0.4418640000000  0.5678020000000 1.0
C      1  0.4942110000000  0.5787810000000  0.5172120000000 1.0
C      1  0.4581160000000  0.5322930000000  0.4796630000000 1.0
C      1  0.4570680000000  0.4676500000000  0.4783320000000 1.0
C      1  0.4630990000000  0.5030840000000  0.5409640000000 1.0
C      1  0.5357420000000  0.5202190000000  0.4990990000000 1.0
C      1  0.5365410000000  0.4868090000000  0.4808150000000 1.0
C      1  0.5358190000000  0.4940300000000  0.5182010000000 1.0
C      1  0.5854470000000  0.4753330000000  0.4817540000000 1.0
C      1  0.5856010000000  0.4972940000000  0.5260940000000 1.0
C      1  0.5839730000000  0.5256650000000  0.4845890000000 1.0
C      1  0.5688240000000  0.4478200000000  0.5199480000000 1.0
C      1  0.5714220000000  0.5406930000000  0.5349950000000 1.0
C      1  0.5659840000000  0.5130880000000  0.4461620000000 1.0
C      1  0.5246210000000  0.5736230000000  0.4750720000000 1.0
C      1  0.5224870000000  0.4487650000000  0.4519850000000 1.0
C      1  0.5189000000000  0.4851260000000  0.5669180000000 1.0
C      1  0.5542180000000  0.4442140000000  0.4943700000000 1.0
C      1  0.5548740000000  0.5232030000000  0.5525110000000 1.0
C      1  0.5546290000000  0.5339050000000  0.4577100000000 1.0
C      1  0.4580730000000  0.4529330000000  0.5630170000000 1.0
C      1  0.4641700000000  0.5743200000000  0.5011820000000 1.0
C      1  0.4613730000000  0.4581180000000  0.4304990000000 1.0
C      1  0.5115080000000  0.4724990000000  0.5281910000000 1.0
C      1  0.5133780000000  0.5417850000000  0.5115840000000 1.0
C      1  0.5134790000000  0.4906220000000  0.4575390000000 1.0
C      1  0.5587960000000  0.4825120000000  0.4373520000000 1.0
C      1  0.5568330000000  0.4601740000000  0.5476290000000 1.0
C      1  0.5591700000000  0.5615570000000  0.5130060000000 1.0
C      1  0.5225740000000  0.5125800000000  0.5544300000000 1.0
C      1  0.5235190000000  0.5422220000000  0.4634620000000 1.0
C      1  0.5228960000000  0.4497290000000  0.4832190000000 1.0
C      1  0.4769990000000  0.4405470000000  0.5376250000000 1.0
C      1  0.4920800000000  0.5584580000000  0.5410510000000 1.0
C      1  0.4802670000000  0.5006750000000  0.4225320000000 1.0
C      1  0.4308950000000  0.4541210000000  0.4693090000000 1.0
C      1  0.4362740000000  0.4934140000000  0.5503610000000 1.0
C      1  0.4357290000000  0.5520330000000  0.4777030000000 1.0
C      1  0.4252550000000  0.5000210000000  0.4979640000000 1.0
END
