TITL C-2782227-3064-234 -0.00100682393574866 125000 -1019.67918830922 0 0 173 (C1) n - 1
REM
REM in /home/nfs/bkarasulu/CARBON/AIRSS/Generating-Clusters/REBO/Higher-Symm/SD-CG/HFTN-CG
REM
REM
REM
REM
REM
REM ./C.cell (12c818d87b63d06a65506943cc24bca4)
REM
REM compiler GCC version 9.2.1 20190827 (Red Hat 9.2.1-1)
REM options -cpp -mtune=generic -march=x86-64 -g -O0 -fpre-include=/usr/include/finclude/math-vector-fortran.h
REM seed 2052894965 1468375843 479181715 1180804979 1345928037 808679722 2080074831 308458140 1371463161 -1867637849 -96559077 -2056609055 891003503 1474070213 -1079741668 1052871475 502530284 -575099133 -642401359 1311713789 -406999453 433115795 -948784757 1101900645 973271576 -346871390 1874343030 1976711778 987147900 1970758054 -424710841 -1884589644 -1333787107
REM
CELL 1.54180   50.00000   50.00000   50.00000   90.00000   90.00000   90.00000
LATT -1
SFAC C  
C      1  0.5445010000000  0.4121140000000  0.4564390000000 1.0
C      1  0.4721070000000  0.5695380000000  0.5402690000000 1.0
C      1  0.5212780000000  0.5889230000000  0.4253780000000 1.0
C      1  0.4790690000000  0.4183420000000  0.5738230000000 1.0
C      1  0.5829690000000  0.5244120000000  0.4726180000000 1.0
C      1  0.4157970000000  0.4786310000000  0.5271620000000 1.0
C      1  0.5036730000000  0.5677190000000  0.4947750000000 1.0
C      1  0.5022530000000  0.4375540000000  0.4951250000000 1.0
C      1  0.5739900000000  0.4978200000000  0.5228750000000 1.0
C      1  0.4319870000000  0.5058100000000  0.4750930000000 1.0
C      1  0.4150380000000  0.5326180000000  0.4675070000000 1.0
C      1  0.5812040000000  0.4657720000000  0.5353260000000 1.0
C      1  0.4421030000000  0.5865770000000  0.5406580000000 1.0
C      1  0.5638540000000  0.3902850000000  0.4715680000000 1.0
C      1  0.4948340000000  0.4586730000000  0.5168620000000 1.0
C      1  0.4973760000000  0.5371940000000  0.4825890000000 1.0
C      1  0.4020160000000  0.4898300000000  0.5044350000000 1.0
C      1  0.6000650000000  0.5117810000000  0.4914110000000 1.0
C      1  0.5155640000000  0.4916900000000  0.6082140000000 1.0
C      1  0.4917200000000  0.5098290000000  0.3964620000000 1.0
C      1  0.5528260000000  0.5321620000000  0.5746960000000 1.0
C      1  0.4464790000000  0.4635430000000  0.4206230000000 1.0
C      1  0.5499570000000  0.5851000000000  0.4343120000000 1.0
C      1  0.4498320000000  0.4205530000000  0.5695980000000 1.0
C      1  0.4351430000000  0.4988570000000  0.5376490000000 1.0
C      1  0.5628350000000  0.5034930000000  0.4617360000000 1.0
C      1  0.4891650000000  0.4076240000000  0.4853240000000 1.0
C      1  0.5083090000000  0.5985440000000  0.5094240000000 1.0
C      1  0.4587650000000  0.5681750000000  0.5862630000000 1.0
C      1  0.5416970000000  0.4384690000000  0.4149350000000 1.0
C      1  0.5383950000000  0.5407820000000  0.4733270000000 1.0
C      1  0.4555810000000  0.4649900000000  0.5200350000000 1.0
C      1  0.4711260000000  0.5093440000000  0.5141110000000 1.0
C      1  0.5301710000000  0.4846040000000  0.4923370000000 1.0
C      1  0.5036500000000  0.4690250000000  0.3985450000000 1.0
C      1  0.4943210000000  0.5346340000000  0.6084980000000 1.0
C      1  0.4328100000000  0.4276660000000  0.4596580000000 1.0
C      1  0.5695640000000  0.5763150000000  0.5470130000000 1.0
C      1  0.4909880000000  0.4018020000000  0.5492700000000 1.0
C      1  0.5075480000000  0.5979410000000  0.4529550000000 1.0
C      1  0.5494490000000  0.4078540000000  0.5368120000000 1.0
C      1  0.4451300000000  0.5833090000000  0.4652560000000 1.0
C      1  0.5326750000000  0.5144740000000  0.5561780000000 1.0
C      1  0.4679980000000  0.4841640000000  0.4348460000000 1.0
C      1  0.5054280000000  0.5551060000000  0.5920370000000 1.0
C      1  0.4942900000000  0.4420270000000  0.4112880000000 1.0
C      1  0.5911900000000  0.4352830000000  0.4950770000000 1.0
C      1  0.4039600000000  0.5643250000000  0.5026250000000 1.0
C      1  0.4627000000000  0.4121760000000  0.4680150000000 1.0
C      1  0.5400640000000  0.5861370000000  0.5468330000000 1.0
C      1  0.4062890000000  0.4757530000000  0.4800240000000 1.0
C      1  0.6024880000000  0.5246280000000  0.5163690000000 1.0
C      1  0.5322320000000  0.4772320000000  0.5857030000000 1.0
C      1  0.4738380000000  0.5232470000000  0.4166450000000 1.0
C      1  0.5511700000000  0.4689090000000  0.5095570000000 1.0
C      1  0.4692130000000  0.5176590000000  0.4827580000000 1.0
C      1  0.5300110000000  0.4238810000000  0.5036410000000 1.0
C      1  0.4708950000000  0.5660120000000  0.4902890000000 1.0
C      1  0.5320950000000  0.3923770000000  0.5116550000000 1.0
C      1  0.4598100000000  0.5977010000000  0.4925760000000 1.0
C      1  0.4431060000000  0.3987500000000  0.5489240000000 1.0
C      1  0.5558020000000  0.6040440000000  0.4578480000000 1.0
C      1  0.5833860000000  0.3726150000000  0.4649070000000 1.0
C      1  0.4293640000000  0.5946350000000  0.5637010000000 1.0
C      1  0.4317750000000  0.4128430000000  0.4931380000000 1.0
C      1  0.5636240000000  0.5870420000000  0.5151150000000 1.0
C      1  0.4489950000000  0.5427520000000  0.5696940000000 1.0
C      1  0.5444040000000  0.4655160000000  0.4299320000000 1.0
C      1  0.5092240000000  0.5187220000000  0.5215860000000 1.0
C      1  0.4915970000000  0.4858850000000  0.4735400000000 1.0
C      1  0.4607610000000  0.5463980000000  0.4698840000000 1.0
C      1  0.5559240000000  0.4393270000000  0.5133980000000 1.0
C      1  0.5227690000000  0.4759380000000  0.5534770000000 1.0
C      1  0.4806390000000  0.5307870000000  0.4469890000000 1.0
C      1  0.4999750000000  0.4948950000000  0.5446340000000 1.0
C      1  0.5014880000000  0.5113060000000  0.4604830000000 1.0
C      1  0.4844000000000  0.4441990000000  0.5438160000000 1.0
C      1  0.5197070000000  0.5585450000000  0.4510260000000 1.0
C      1  0.4397950000000  0.3903380000000  0.4720350000000 1.0
C      1  0.5349700000000  0.6039790000000  0.5223310000000 1.0
C      1  0.4918200000000  0.6038490000000  0.4825530000000 1.0
C      1  0.4996170000000  0.4013690000000  0.5163150000000 1.0
C      1  0.4260780000000  0.4569000000000  0.4434150000000 1.0
C      1  0.5745230000000  0.5440150000000  0.5564280000000 1.0
C      1  0.5164580000000  0.4250230000000  0.4191510000000 1.0
C      1  0.4866460000000  0.5755650000000  0.5833870000000 1.0
C      1  0.4583050000000  0.4991610000000  0.4562770000000 1.0
C      1  0.5443920000000  0.4899660000000  0.5355550000000 1.0
C      1  0.5008190000000  0.5162020000000  0.5679450000000 1.0
C      1  0.4942530000000  0.4791070000000  0.4261560000000 1.0
C      1  0.5168570000000  0.4451480000000  0.5473590000000 1.0
C      1  0.4893040000000  0.5627680000000  0.4477200000000 1.0
C      1  0.5856000000000  0.4644590000000  0.5041710000000 1.0
C      1  0.3983430000000  0.5393360000000  0.4905890000000 1.0
C      1  0.4611090000000  0.6042770000000  0.5225560000000 1.0
C      1  0.5341190000000  0.3834980000000  0.4822960000000 1.0
C      1  0.5685810000000  0.5516340000000  0.4699900000000 1.0
C      1  0.4277740000000  0.4501310000000  0.5334440000000 1.0
C      1  0.5236830000000  0.5392570000000  0.4226110000000 1.0
C      1  0.4853330000000  0.4672940000000  0.5696010000000 1.0
C      1  0.5525970000000  0.5118550000000  0.4302750000000 1.0
C      1  0.4491770000000  0.4925670000000  0.5655890000000 1.0
C      1  0.5996540000000  0.4836330000000  0.4864160000000 1.0
C      1  0.3972000000000  0.5181470000000  0.5095810000000 1.0
C      1  0.5451290000000  0.4890660000000  0.4104360000000 1.0
C      1  0.4554480000000  0.5154650000000  0.5839630000000 1.0
C      1  0.5343080000000  0.5295590000000  0.5035400000000 1.0
C      1  0.4639130000000  0.4786900000000  0.4899900000000 1.0
C      1  0.4371930000000  0.4672730000000  0.5788090000000 1.0
C      1  0.5649340000000  0.5388700000000  0.4213470000000 1.0
C      1  0.5348160000000  0.5118910000000  0.6166680000000 1.0
C      1  0.4730490000000  0.4904770000000  0.3848450000000 1.0
C      1  0.4979210000000  0.5476570000000  0.5355190000000 1.0
C      1  0.4967350000000  0.4533300000000  0.4686420000000 1.0
C      1  0.5170650000000  0.5199320000000  0.3985360000000 1.0
C      1  0.4949700000000  0.4914140000000  0.5860870000000 1.0
C      1  0.4543530000000  0.4321700000000  0.5096700000000 1.0
C      1  0.5371570000000  0.5722010000000  0.4987560000000 1.0
C      1  0.4703960000000  0.4441860000000  0.4263840000000 1.0
C      1  0.5270990000000  0.5496020000000  0.5750730000000 1.0
C      1  0.5189940000000  0.4154950000000  0.5410450000000 1.0
C      1  0.4757030000000  0.5883500000000  0.4574800000000 1.0
C      1  0.5369160000000  0.4645610000000  0.4690060000000 1.0
C      1  0.4613450000000  0.5316980000000  0.5333290000000 1.0
C      1  0.4724440000000  0.5184100000000  0.6049900000000 1.0
C      1  0.5275570000000  0.4823950000000  0.3900000000000 1.0
C      1  0.5187750000000  0.4070850000000  0.4412760000000 1.0
C      1  0.4915820000000  0.5894450000000  0.5580530000000 1.0
C      1  0.4971060000000  0.4396680000000  0.5813850000000 1.0
C      1  0.5071440000000  0.5661220000000  0.4127160000000 1.0
C      1  0.5470150000000  0.5515960000000  0.5228700000000 1.0
C      1  0.4543430000000  0.4511510000000  0.4825750000000 1.0
C      1  0.4493990000000  0.4874540000000  0.3996330000000 1.0
C      1  0.5566510000000  0.5138470000000  0.5990900000000 1.0
C      1  0.4342810000000  0.5546590000000  0.4552260000000 1.0
C      1  0.5676470000000  0.4356150000000  0.5435630000000 1.0
C      1  0.4432660000000  0.5141970000000  0.4129460000000 1.0
C      1  0.5633330000000  0.4858340000000  0.5874390000000 1.0
C      1  0.5325300000000  0.5825190000000  0.4701430000000 1.0
C      1  0.4663880000000  0.4182630000000  0.5334170000000 1.0
C      1  0.5617620000000  0.4569990000000  0.5687690000000 1.0
C      1  0.4427810000000  0.5460090000000  0.4254780000000 1.0
C      1  0.5889640000000  0.5158020000000  0.5463630000000 1.0
C      1  0.4154850000000  0.4882830000000  0.4512110000000 1.0
C      1  0.4410870000000  0.4991050000000  0.5041190000000 1.0
C      1  0.5557140000000  0.5058730000000  0.4952250000000 1.0
C      1  0.5415460000000  0.4365770000000  0.4761940000000 1.0
C      1  0.4548870000000  0.5585620000000  0.5155840000000 1.0
C      1  0.5803720000000  0.5469460000000  0.5228990000000 1.0
C      1  0.4203440000000  0.4494310000000  0.4826630000000 1.0
C      1  0.5801570000000  0.4859030000000  0.5602840000000 1.0
C      1  0.4241840000000  0.5187490000000  0.4382340000000 1.0
C      1  0.5765060000000  0.5660390000000  0.4952100000000 1.0
C      1  0.4146080000000  0.4337740000000  0.5110790000000 1.0
C      1  0.5110460000000  0.3931650000000  0.4671300000000 1.0
C      1  0.4882190000000  0.6049930000000  0.5321730000000 1.0
C      1  0.4073060000000  0.5274360000000  0.5348220000000 1.0
C      1  0.5948610000000  0.4761750000000  0.4601810000000 1.0
C      1  0.4350310000000  0.4445860000000  0.5636070000000 1.0
C      1  0.5639120000000  0.5601130000000  0.4387840000000 1.0
C      1  0.5145050000000  0.4683530000000  0.4458450000000 1.0
C      1  0.4800620000000  0.5360350000000  0.5601890000000 1.0
C      1  0.4704120000000  0.4812390000000  0.5423390000000 1.0
C      1  0.5284930000000  0.5199320000000  0.4502160000000 1.0
C      1  0.4745050000000  0.5568370000000  0.4176630000000 1.0
C      1  0.5305780000000  0.4457130000000  0.5780740000000 1.0
C      1  0.4250070000000  0.5707210000000  0.5175790000000 1.0
C      1  0.5673520000000  0.4185550000000  0.4883900000000 1.0
C      1  0.4298160000000  0.5375430000000  0.5449410000000 1.0
C      1  0.5643450000000  0.4727890000000  0.4529330000000 1.0
C      1  0.5242540000000  0.5591470000000  0.5463350000000 1.0
C      1  0.4712330000000  0.4404080000000  0.4560630000000 1.0
C      1  0.4990110000000  0.4899970000000  0.5053130000000 1.0
END
