TITL C-2782233-7966-900 -0.000662176473111713 125000 -803.712325695441 0 0 138 (C1) n - 1
REM
REM in /home/nfs/bkarasulu/CARBON/AIRSS/Generating-Clusters/REBO/Higher-Symm/SD-CG/HFTN-CG
REM
REM
REM
REM
REM
REM ./C.cell (12c818d87b63d06a65506943cc24bca4)
REM
REM compiler GCC version 9.2.1 20190827 (Red Hat 9.2.1-1)
REM options -cpp -mtune=generic -march=x86-64 -g -O0 -fpre-include=/usr/include/finclude/math-vector-fortran.h
REM seed 1982203847 -3294469 1385382443 -2061477695 -1496555714 -890293844 -963160166 1283783739 49471914 -1287381032 -339866058 -1378642059 777362090 -899165801 -1617393473 26375960 -1439238874 -369692955 -1278994648 1185658444 83888080 1188852316 -782372371 142080116 1136732291 1127103091 1170331113 -1664515028 442699212 280437127 -135082608 397269567 1554726046
REM
CELL 1.54180   50.00000   50.00000   50.00000   90.00000   90.00000   90.00000
LATT -1
SFAC C  
C      1  0.5364290000000  0.4744020000000  0.5346020000000 1.0
C      1  0.4605370000000  0.5276240000000  0.5391680000000 1.0
C      1  0.4614170000000  0.4757520000000  0.5416590000000 1.0
C      1  0.5383050000000  0.5266540000000  0.5336890000000 1.0
C      1  0.4393980000000  0.4642940000000  0.5626900000000 1.0
C      1  0.5629580000000  0.5372820000000  0.5537550000000 1.0
C      1  0.5600360000000  0.4631780000000  0.5543180000000 1.0
C      1  0.4392210000000  0.5382080000000  0.5619350000000 1.0
C      1  0.4235090000000  0.5640720000000  0.5102000000000 1.0
C      1  0.5726030000000  0.4344350000000  0.5031040000000 1.0
C      1  0.5701690000000  0.5650660000000  0.5071910000000 1.0
C      1  0.4215570000000  0.4363240000000  0.5138620000000 1.0
C      1  0.4412230000000  0.4094070000000  0.5218870000000 1.0
C      1  0.5508070000000  0.5915980000000  0.5165050000000 1.0
C      1  0.5511570000000  0.4096820000000  0.5128890000000 1.0
C      1  0.4432350000000  0.5907040000000  0.5181630000000 1.0
C      1  0.4300170000000  0.4728820000000  0.5004120000000 1.0
C      1  0.5658060000000  0.5262190000000  0.4958740000000 1.0
C      1  0.5658850000000  0.4715920000000  0.4904790000000 1.0
C      1  0.4275660000000  0.5257700000000  0.5002230000000 1.0
C      1  0.4113080000000  0.4623300000000  0.5480950000000 1.0
C      1  0.5906010000000  0.5335740000000  0.5400570000000 1.0
C      1  0.5867690000000  0.4612200000000  0.5370500000000 1.0
C      1  0.4109690000000  0.5398100000000  0.5474890000000 1.0
C      1  0.4226530000000  0.4480810000000  0.4816510000000 1.0
C      1  0.5745770000000  0.5509720000000  0.4768710000000 1.0
C      1  0.5783600000000  0.4477720000000  0.4722690000000 1.0
C      1  0.4183550000000  0.5490410000000  0.4801400000000 1.0
C      1  0.5229350000000  0.5476460000000  0.5153920000000 1.0
C      1  0.4713720000000  0.4570350000000  0.5200570000000 1.0
C      1  0.4715020000000  0.5470850000000  0.5167610000000 1.0
C      1  0.5230920000000  0.4551130000000  0.5144800000000 1.0
C      1  0.5541800000000  0.5241930000000  0.4407890000000 1.0
C      1  0.4382450000000  0.4736430000000  0.4404000000000 1.0
C      1  0.4377210000000  0.5228030000000  0.4430610000000 1.0
C      1  0.5562180000000  0.4731780000000  0.4345000000000 1.0
C      1  0.4071140000000  0.5247570000000  0.5254310000000 1.0
C      1  0.5894140000000  0.4739360000000  0.5133610000000 1.0
C      1  0.5909270000000  0.5211350000000  0.5161320000000 1.0
C      1  0.4079720000000  0.4759880000000  0.5249650000000 1.0
C      1  0.5546740000000  0.4379510000000  0.5320060000000 1.0
C      1  0.4422150000000  0.5631470000000  0.5387380000000 1.0
C      1  0.4419610000000  0.4375870000000  0.5415920000000 1.0
C      1  0.5527520000000  0.5637550000000  0.5365880000000 1.0
C      1  0.5214850000000  0.4109610000000  0.5275560000000 1.0
C      1  0.4726850000000  0.5896510000000  0.5324750000000 1.0
C      1  0.4727880000000  0.4127470000000  0.5302110000000 1.0
C      1  0.5216990000000  0.5903180000000  0.5319240000000 1.0
C      1  0.5625080000000  0.5173090000000  0.5811660000000 1.0
C      1  0.4388910000000  0.4841950000000  0.5898030000000 1.0
C      1  0.4385030000000  0.5182660000000  0.5894640000000 1.0
C      1  0.5630660000000  0.4832080000000  0.5816240000000 1.0
C      1  0.5350930000000  0.5253850000000  0.4938920000000 1.0
C      1  0.4610350000000  0.4734490000000  0.4947170000000 1.0
C      1  0.4579180000000  0.5252400000000  0.4964760000000 1.0
C      1  0.5357150000000  0.4706600000000  0.4879640000000 1.0
C      1  0.4793870000000  0.4215500000000  0.4640450000000 1.0
C      1  0.5160850000000  0.5789990000000  0.4687530000000 1.0
C      1  0.5190420000000  0.4219960000000  0.4665200000000 1.0
C      1  0.4761850000000  0.5781580000000  0.4694330000000 1.0
C      1  0.5414440000000  0.4616730000000  0.5896890000000 1.0
C      1  0.4608280000000  0.5395610000000  0.5955640000000 1.0
C      1  0.4627610000000  0.4638230000000  0.5951190000000 1.0
C      1  0.5392790000000  0.5359940000000  0.5908890000000 1.0
C      1  0.5784370000000  0.5226450000000  0.4581540000000 1.0
C      1  0.4159930000000  0.4721900000000  0.4584510000000 1.0
C      1  0.4139700000000  0.5227870000000  0.4589730000000 1.0
C      1  0.5824960000000  0.4705280000000  0.4482300000000 1.0
C      1  0.4733700000000  0.4739020000000  0.4225500000000 1.0
C      1  0.5252570000000  0.5299210000000  0.4238160000000 1.0
C      1  0.5257050000000  0.4704470000000  0.4205800000000 1.0
C      1  0.4715570000000  0.5268910000000  0.4238890000000 1.0
C      1  0.4731020000000  0.5554950000000  0.5812500000000 1.0
C      1  0.5279660000000  0.4451560000000  0.5772290000000 1.0
C      1  0.5251640000000  0.5527030000000  0.5792620000000 1.0
C      1  0.4749900000000  0.4472580000000  0.5814050000000 1.0
C      1  0.5317160000000  0.4564940000000  0.4507880000000 1.0
C      1  0.4612130000000  0.5437330000000  0.4515690000000 1.0
C      1  0.4626550000000  0.4544820000000  0.4473530000000 1.0
C      1  0.5305710000000  0.5430410000000  0.4547380000000 1.0
C      1  0.4525590000000  0.4352100000000  0.4717700000000 1.0
C      1  0.5472210000000  0.5651860000000  0.4695840000000 1.0
C      1  0.5493020000000  0.4362380000000  0.4672600000000 1.0
C      1  0.4452460000000  0.5638860000000  0.4710130000000 1.0
C      1  0.5320050000000  0.5720250000000  0.4979920000000 1.0
C      1  0.4535580000000  0.4353760000000  0.5034700000000 1.0
C      1  0.4612690000000  0.5708430000000  0.4991440000000 1.0
C      1  0.5336330000000  0.4315030000000  0.4955990000000 1.0
C      1  0.5072650000000  0.4634200000000  0.4704750000000 1.0
C      1  0.4820690000000  0.5355030000000  0.4750160000000 1.0
C      1  0.4813320000000  0.4634910000000  0.4714840000000 1.0
C      1  0.5079160000000  0.5347430000000  0.4754830000000 1.0
C      1  0.4726590000000  0.5645210000000  0.5526810000000 1.0
C      1  0.5253400000000  0.4351980000000  0.5489770000000 1.0
C      1  0.5234540000000  0.5646270000000  0.5515730000000 1.0
C      1  0.4737250000000  0.4355990000000  0.5535760000000 1.0
C      1  0.4961770000000  0.4079140000000  0.5150650000000 1.0
C      1  0.4969220000000  0.5952300000000  0.5189890000000 1.0
C      1  0.5979040000000  0.4954470000000  0.4501800000000 1.0
C      1  0.4000940000000  0.4969420000000  0.4564280000000 1.0
C      1  0.5759490000000  0.4991400000000  0.4827450000000 1.0
C      1  0.4152980000000  0.4986040000000  0.4928040000000 1.0
C      1  0.5195450000000  0.5012020000000  0.5421890000000 1.0
C      1  0.4796870000000  0.5023070000000  0.5451670000000 1.0
C      1  0.5253370000000  0.4987870000000  0.4750480000000 1.0
C      1  0.4656040000000  0.4995450000000  0.4784360000000 1.0
C      1  0.3849980000000  0.4968200000000  0.4932370000000 1.0
C      1  0.6109300000000  0.4994600000000  0.4783690000000 1.0
C      1  0.4240400000000  0.5011820000000  0.5645180000000 1.0
C      1  0.5761500000000  0.4996730000000  0.5555130000000 1.0
C      1  0.4978980000000  0.5436540000000  0.4316850000000 1.0
C      1  0.4988770000000  0.4550360000000  0.4254060000000 1.0
C      1  0.3907980000000  0.5006630000000  0.5240170000000 1.0
C      1  0.6060280000000  0.4974710000000  0.5086340000000 1.0
C      1  0.5419340000000  0.5003490000000  0.4213710000000 1.0
C      1  0.4507560000000  0.4995810000000  0.4243470000000 1.0
C      1  0.4962670000000  0.5628830000000  0.4496060000000 1.0
C      1  0.4980780000000  0.4341430000000  0.4439100000000 1.0
C      1  0.4403310000000  0.5012250000000  0.5395100000000 1.0
C      1  0.5578770000000  0.4997750000000  0.5316670000000 1.0
C      1  0.4952770000000  0.4099260000000  0.4871530000000 1.0
C      1  0.4963900000000  0.5938900000000  0.4911880000000 1.0
C      1  0.4979410000000  0.4444290000000  0.5312800000000 1.0
C      1  0.4977540000000  0.5555830000000  0.5324890000000 1.0
C      1  0.5055800000000  0.5049800000000  0.6216390000000 1.0
C      1  0.5458820000000  0.5017320000000  0.3352070000000 1.0
C      1  0.5325320000000  0.5014950000000  0.3582490000000 1.0
C      1  0.5590200000000  0.5019650000000  0.3125320000000 1.0
C      1  0.5095950000000  0.5071580000000  0.6742790000000 1.0
C      1  0.5059490000000  0.5010240000000  0.4041260000000 1.0
C      1  0.4942240000000  0.5000350000000  0.4611550000000 1.0
C      1  0.5015760000000  0.5028080000000  0.5691440000000 1.0
C      1  0.4898590000000  0.5007370000000  0.4317160000000 1.0
C      1  0.5006230000000  0.5007470000000  0.4952330000000 1.0
C      1  0.5191810000000  0.5012580000000  0.3812900000000 1.0
C      1  0.5035560000000  0.5038820000000  0.5951080000000 1.0
C      1  0.5076040000000  0.5060780000000  0.6481700000000 1.0
C      1  0.4977430000000  0.5013980000000  0.5196280000000 1.0
END
