TITL C-2782238-9940-543 -0.00515374399381032 125000 -676.131449535094 0 0 113 (C1) n - 1
REM
REM in /home/nfs/bkarasulu/CARBON/AIRSS/Generating-Clusters/REBO/Higher-Symm/SD-CG/HFTN-CG
REM
REM
REM
REM
REM
REM ./C.cell (12c818d87b63d06a65506943cc24bca4)
REM
REM compiler GCC version 9.2.1 20190827 (Red Hat 9.2.1-1)
REM options -cpp -mtune=generic -march=x86-64 -g -O0 -fpre-include=/usr/include/finclude/math-vector-fortran.h
REM seed 2147002907 450388707 -504629350 -1811274386 -1400737502 -14656693 469783965 27106784 965255090 699985981 1530463293 -1677191537 2007871992 -302364804 -1445629417 1849169058 1888065099 122017334 -647321338 1852808462 734451161 1475647993 -487127893 1633239961 -54122855 1780122115 377403935 -77348835 -1133641747 114069607 1098938135 -565639900 -1398834608
REM
CELL 1.54180   50.00000   50.00000   50.00000   90.00000   90.00000   90.00000
LATT -1
SFAC C  
C      1  0.5064290000000  0.5925250000000  0.4987510000000 1.0
C      1  0.5085140000000  0.4559870000000  0.4049970000000 1.0
C      1  0.5239390000000  0.4960930000000  0.5891700000000 1.0
C      1  0.5276930000000  0.5524980000000  0.5293700000000 1.0
C      1  0.4062820000000  0.4705690000000  0.4882400000000 1.0
C      1  0.5478980000000  0.5066260000000  0.5068070000000 1.0
C      1  0.4798680000000  0.5499840000000  0.5873620000000 1.0
C      1  0.4765060000000  0.4947690000000  0.5988680000000 1.0
C      1  0.4785700000000  0.4262210000000  0.4975530000000 1.0
C      1  0.5129010000000  0.4828940000000  0.4007180000000 1.0
C      1  0.5015050000000  0.5011360000000  0.4196140000000 1.0
C      1  0.5190290000000  0.5049240000000  0.5500330000000 1.0
C      1  0.5205920000000  0.5094320000000  0.5198440000000 1.0
C      1  0.4893410000000  0.4570260000000  0.5363070000000 1.0
C      1  0.4995250000000  0.5947920000000  0.5299990000000 1.0
C      1  0.5291400000000  0.5821540000000  0.5202520000000 1.0
C      1  0.4316430000000  0.5613660000000  0.5267290000000 1.0
C      1  0.5558270000000  0.4150300000000  0.4467320000000 1.0
C      1  0.4929680000000  0.4502710000000  0.4313210000000 1.0
C      1  0.4925820000000  0.4089900000000  0.5305730000000 1.0
C      1  0.4411980000000  0.4343300000000  0.4861090000000 1.0
C      1  0.4316360000000  0.5475530000000  0.5539880000000 1.0
C      1  0.4996070000000  0.4128080000000  0.4666270000000 1.0
C      1  0.5703960000000  0.5023670000000  0.4370840000000 1.0
C      1  0.5454700000000  0.4617760000000  0.5516450000000 1.0
C      1  0.4791960000000  0.5741490000000  0.5410980000000 1.0
C      1  0.4936210000000  0.4822630000000  0.5526250000000 1.0
C      1  0.4481840000000  0.4659200000000  0.5663850000000 1.0
C      1  0.5450520000000  0.5248230000000  0.5597410000000 1.0
C      1  0.4688620000000  0.5046750000000  0.5468120000000 1.0
C      1  0.4650370000000  0.5341580000000  0.4279670000000 1.0
C      1  0.5697310000000  0.5488150000000  0.4740190000000 1.0
C      1  0.5528140000000  0.5733790000000  0.4767930000000 1.0
C      1  0.5829140000000  0.4800740000000  0.4496910000000 1.0
C      1  0.5079850000000  0.4314500000000  0.5394310000000 1.0
C      1  0.4396100000000  0.5131810000000  0.4357460000000 1.0
C      1  0.4348840000000  0.4617210000000  0.5291000000000 1.0
C      1  0.5691410000000  0.4688750000000  0.5347260000000 1.0
C      1  0.4750750000000  0.5737480000000  0.4659770000000 1.0
C      1  0.4473610000000  0.4618680000000  0.4465350000000 1.0
C      1  0.4453550000000  0.5128160000000  0.5260640000000 1.0
C      1  0.4932100000000  0.5212430000000  0.5609000000000 1.0
C      1  0.5001670000000  0.4014850000000  0.4990970000000 1.0
C      1  0.4554590000000  0.5761560000000  0.5211280000000 1.0
C      1  0.4756900000000  0.5469800000000  0.4515490000000 1.0
C      1  0.5633440000000  0.5692170000000  0.5363190000000 1.0
C      1  0.4056160000000  0.4817040000000  0.4633020000000 1.0
C      1  0.4814930000000  0.4289010000000  0.4532200000000 1.0
C      1  0.4252630000000  0.5555010000000  0.4745000000000 1.0
C      1  0.4989570000000  0.4913900000000  0.4467800000000 1.0
C      1  0.4612600000000  0.4935400000000  0.4183180000000 1.0
C      1  0.4856720000000  0.5201390000000  0.5923840000000 1.0
C      1  0.4067040000000  0.5077840000000  0.5344400000000 1.0
C      1  0.4846480000000  0.5448860000000  0.5144220000000 1.0
C      1  0.4503680000000  0.4137840000000  0.5055900000000 1.0
C      1  0.5786240000000  0.4435290000000  0.5223330000000 1.0
C      1  0.6098950000000  0.4661690000000  0.4925470000000 1.0
C      1  0.5469560000000  0.5335280000000  0.4288700000000 1.0
C      1  0.5042080000000  0.5274370000000  0.5082950000000 1.0
C      1  0.5175250000000  0.5242280000000  0.4663380000000 1.0
C      1  0.4416970000000  0.5790650000000  0.4712030000000 1.0
C      1  0.4586950000000  0.5251500000000  0.4800740000000 1.0
C      1  0.5492420000000  0.5370080000000  0.5165130000000 1.0
C      1  0.4547230000000  0.4380280000000  0.4612690000000 1.0
C      1  0.5543620000000  0.4268900000000  0.5195810000000 1.0
C      1  0.4626680000000  0.5560570000000  0.5636520000000 1.0
C      1  0.4186620000000  0.5488500000000  0.5030300000000 1.0
C      1  0.5268790000000  0.5244490000000  0.5840240000000 1.0
C      1  0.5874780000000  0.5744390000000  0.5156380000000 1.0
C      1  0.6018530000000  0.4877650000000  0.4700420000000 1.0
C      1  0.5055570000000  0.4628250000000  0.4849910000000 1.0
C      1  0.4384060000000  0.5329500000000  0.4613820000000 1.0
C      1  0.4269440000000  0.4871940000000  0.5504870000000 1.0
C      1  0.5591430000000  0.5480620000000  0.5535890000000 1.0
C      1  0.4229730000000  0.5205150000000  0.5582160000000 1.0
C      1  0.5717940000000  0.4915880000000  0.5174000000000 1.0
C      1  0.5954910000000  0.4935120000000  0.5017040000000 1.0
C      1  0.5275090000000  0.4100100000000  0.4824200000000 1.0
C      1  0.5729980000000  0.5484490000000  0.5035850000000 1.0
C      1  0.4606480000000  0.5839640000000  0.4952740000000 1.0
C      1  0.4602810000000  0.4448590000000  0.5431390000000 1.0
C      1  0.4728150000000  0.4785260000000  0.5775480000000 1.0
C      1  0.5734530000000  0.4529280000000  0.4532250000000 1.0
C      1  0.5335730000000  0.4757460000000  0.5731670000000 1.0
C      1  0.5352680000000  0.4366320000000  0.5395310000000 1.0
C      1  0.5514680000000  0.4209560000000  0.4904790000000 1.0
C      1  0.4282520000000  0.4836320000000  0.4467280000000 1.0
C      1  0.5734830000000  0.4354500000000  0.4762440000000 1.0
C      1  0.4682500000000  0.4693420000000  0.4290290000000 1.0
C      1  0.5564350000000  0.5846940000000  0.5057530000000 1.0
C      1  0.5147960000000  0.4520630000000  0.4543910000000 1.0
C      1  0.5586330000000  0.5120140000000  0.4102370000000 1.0
C      1  0.4656670000000  0.5367900000000  0.5366090000000 1.0
C      1  0.5025330000000  0.5514450000000  0.5495790000000 1.0
C      1  0.5374030000000  0.4322410000000  0.4506980000000 1.0
C      1  0.5109960000000  0.5493410000000  0.5825910000000 1.0
C      1  0.4551080000000  0.4800230000000  0.4860880000000 1.0
C      1  0.5270460000000  0.5449780000000  0.4487910000000 1.0
C      1  0.4883770000000  0.5228740000000  0.4688240000000 1.0
C      1  0.5280260000000  0.5709910000000  0.4622350000000 1.0
C      1  0.5242260000000  0.4827750000000  0.4651490000000 1.0
C      1  0.4860520000000  0.5238690000000  0.4115140000000 1.0
C      1  0.4516240000000  0.5054740000000  0.4976720000000 1.0
C      1  0.4339380000000  0.4608960000000  0.4990420000000 1.0
C      1  0.4749400000000  0.4912230000000  0.4665540000000 1.0
C      1  0.4907310000000  0.4510620000000  0.5046110000000 1.0
C      1  0.4638540000000  0.4156630000000  0.5330590000000 1.0
C      1  0.5931120000000  0.4434350000000  0.4971320000000 1.0
C      1  0.4166310000000  0.5207960000000  0.5095350000000 1.0
C      1  0.5414530000000  0.5053740000000  0.4770110000000 1.0
C      1  0.5040250000000  0.5826880000000  0.4730780000000 1.0
C      1  0.4209090000000  0.4481160000000  0.5559940000000 1.0
C      1  0.5599780000000  0.5247010000000  0.4589490000000 1.0
END
