TITL C-2782238-9940-1201 0.00243395761138736 125000 -701.552841189212 0 0 122 (C2) n - 1
REM
REM in /home/nfs/bkarasulu/CARBON/AIRSS/Generating-Clusters/REBO/Higher-Symm/SD-CG/HFTN-CG
REM
REM
REM
REM
REM
REM ./C.cell (12c818d87b63d06a65506943cc24bca4)
REM
REM compiler GCC version 9.2.1 20190827 (Red Hat 9.2.1-1)
REM options -cpp -mtune=generic -march=x86-64 -g -O0 -fpre-include=/usr/include/finclude/math-vector-fortran.h
REM seed 478209785 -840207577 850686445 46759784 1681868867 1694973382 -807297292 -805177312 -1210035332 1481284033 -1486765305 -231614587 -31903342 2006340265 -264490089 773348134 -1003127621 -165567049 1602968419 281365063 -1701404471 -201933317 2030082675 -1263430244 1301467339 -1142780669 1003490711 619009342 1943138148 880094596 346889522 -505833186 -1007796561
REM
CELL 1.54180   50.00000   50.00000   50.00000   90.00000   90.00000   90.00000
LATT -1
SFAC C  
C      1  0.4924070000000  0.5610510000000  0.5159320000000 1.0
C      1  0.4919390000000  0.4544790000000  0.5429250000000 1.0
C      1  0.4926060000000  0.4849170000000  0.4408370000000 1.0
C      1  0.5063610000000  0.4395830000000  0.5159270000000 1.0
C      1  0.5068280000000  0.5461530000000  0.5429290000000 1.0
C      1  0.5061670000000  0.5157250000000  0.4408390000000 1.0
C      1  0.5144630000000  0.4157470000000  0.5469000000000 1.0
C      1  0.5149120000000  0.4991870000000  0.4056010000000 1.0
C      1  0.5133300000000  0.5847410000000  0.5506250000000 1.0
C      1  0.4843030000000  0.5848850000000  0.5469070000000 1.0
C      1  0.4838620000000  0.5014570000000  0.4056000000000 1.0
C      1  0.4854360000000  0.4158900000000  0.5506170000000 1.0
C      1  0.4497360000000  0.4920830000000  0.5261970000000 1.0
C      1  0.4487000000000  0.4806170000000  0.4826500000000 1.0
C      1  0.4480160000000  0.5297820000000  0.4921560000000 1.0
C      1  0.5490320000000  0.5085510000000  0.5262000000000 1.0
C      1  0.5500690000000  0.5200210000000  0.4826550000000 1.0
C      1  0.5507530000000  0.4708550000000  0.4921560000000 1.0
C      1  0.5336740000000  0.4348550000000  0.4953680000000 1.0
C      1  0.5312630000000  0.5389290000000  0.4438420000000 1.0
C      1  0.5321700000000  0.5285740000000  0.5585310000000 1.0
C      1  0.4650950000000  0.5657810000000  0.4953720000000 1.0
C      1  0.4675090000000  0.4617120000000  0.4438370000000 1.0
C      1  0.4665950000000  0.4720560000000  0.5585270000000 1.0
C      1  0.4716350000000  0.5213760000000  0.4210630000000 1.0
C      1  0.4710370000000  0.5615210000000  0.5569070000000 1.0
C      1  0.4707960000000  0.4168900000000  0.5258720000000 1.0
C      1  0.5271380000000  0.4792670000000  0.4210630000000 1.0
C      1  0.5277280000000  0.4391100000000  0.5569040000000 1.0
C      1  0.5279720000000  0.5837430000000  0.5258810000000 1.0
C      1  0.5799700000000  0.4579690000000  0.4906770000000 1.0
C      1  0.5778860000000  0.5270150000000  0.4682080000000 1.0
C      1  0.5779000000000  0.5151790000000  0.5397310000000 1.0
C      1  0.4187990000000  0.5426680000000  0.4906750000000 1.0
C      1  0.4208850000000  0.4736240000000  0.4682010000000 1.0
C      1  0.4208670000000  0.4854540000000  0.5397250000000 1.0
C      1  0.4529940000000  0.4268710000000  0.4784930000000 1.0
C      1  0.4549340000000  0.5577740000000  0.4464870000000 1.0
C      1  0.4546890000000  0.5188480000000  0.5726580000000 1.0
C      1  0.5457760000000  0.5737670000000  0.4785020000000 1.0
C      1  0.5438380000000  0.4428670000000  0.4464850000000 1.0
C      1  0.5440750000000  0.4817810000000  0.5726590000000 1.0
C      1  0.4652820000000  0.4553430000000  0.4735230000000 1.0
C      1  0.4673920000000  0.5457010000000  0.4720310000000 1.0
C      1  0.4680340000000  0.5014450000000  0.5505970000000 1.0
C      1  0.5334880000000  0.5452950000000  0.4735290000000 1.0
C      1  0.5313780000000  0.4549370000000  0.4720290000000 1.0
C      1  0.5307310000000  0.4991860000000  0.5505990000000 1.0
C      1  0.5634400000000  0.4333090000000  0.5032200000000 1.0
C      1  0.5620840000000  0.5309180000000  0.4403300000000 1.0
C      1  0.5619800000000  0.5368400000000  0.5567990000000 1.0
C      1  0.4353280000000  0.5673260000000  0.5032220000000 1.0
C      1  0.4366880000000  0.4697230000000  0.4403230000000 1.0
C      1  0.4367860000000  0.4637910000000  0.5567920000000 1.0
C      1  0.4177950000000  0.4729100000000  0.5080640000000 1.0
C      1  0.4189660000000  0.5080540000000  0.4688090000000 1.0
C      1  0.4164450000000  0.5229230000000  0.5187730000000 1.0
C      1  0.5809730000000  0.5277250000000  0.5080720000000 1.0
C      1  0.5798040000000  0.4925850000000  0.4688130000000 1.0
C      1  0.5823220000000  0.4777110000000  0.5187760000000 1.0
C      1  0.4867790000000  0.5121230000000  0.5839750000000 1.0
C      1  0.4857600000000  0.4213020000000  0.4692840000000 1.0
C      1  0.4871590000000  0.5707710000000  0.4481650000000 1.0
C      1  0.5119850000000  0.4885060000000  0.5839750000000 1.0
C      1  0.5130110000000  0.5793370000000  0.4692920000000 1.0
C      1  0.5116130000000  0.4298700000000  0.4481590000000 1.0
C      1  0.4291950000000  0.5387420000000  0.4583150000000 1.0
C      1  0.4295030000000  0.5170040000000  0.5496570000000 1.0
C      1  0.4279070000000  0.4473920000000  0.4889640000000 1.0
C      1  0.5695760000000  0.4618970000000  0.4583160000000 1.0
C      1  0.5692630000000  0.4836270000000  0.5496590000000 1.0
C      1  0.5708630000000  0.5532450000000  0.4889720000000 1.0
C      1  0.4527970000000  0.5128960000000  0.4401610000000 1.0
C      1  0.4516550000000  0.5488210000000  0.5412400000000 1.0
C      1  0.4509620000000  0.4364230000000  0.5232820000000 1.0
C      1  0.5459750000000  0.4877450000000  0.4401630000000 1.0
C      1  0.5471110000000  0.4518110000000  0.5412380000000 1.0
C      1  0.5478050000000  0.5642110000000  0.5232900000000 1.0
C      1  0.5093900000000  0.5317150000000  0.4111880000000 1.0
C      1  0.5157870000000  0.5621160000000  0.5722560000000 1.0
C      1  0.5164000000000  0.4064750000000  0.5171600000000 1.0
C      1  0.4893840000000  0.4689280000000  0.4111840000000 1.0
C      1  0.4829780000000  0.4385130000000  0.5722500000000 1.0
C      1  0.4823670000000  0.5941600000000  0.5171670000000 1.0
C      1  0.4899740000000  0.4536840000000  0.4923660000000 1.0
C      1  0.4953940000000  0.5361840000000  0.4661890000000 1.0
C      1  0.4956860000000  0.5170500000000  0.5445850000000 1.0
C      1  0.5087950000000  0.5469520000000  0.4923710000000 1.0
C      1  0.5033760000000  0.4644550000000  0.4661860000000 1.0
C      1  0.5030800000000  0.4835820000000  0.5445840000000 1.0
C      1  0.5165200000000  0.4499890000000  0.4208210000000 1.0
C      1  0.5126930000000  0.5921280000000  0.5010820000000 1.0
C      1  0.5127730000000  0.4548680000000  0.5777020000000 1.0
C      1  0.4822530000000  0.5506540000000  0.4208240000000 1.0
C      1  0.4860760000000  0.4085080000000  0.5010730000000 1.0
C      1  0.4859910000000  0.5457610000000  0.5777050000000 1.0
C      1  0.5659900000000  0.4335560000000  0.5304960000000 1.0
C      1  0.5642360000000  0.5060890000000  0.4285600000000 1.0
C      1  0.5648150000000  0.5617740000000  0.5457910000000 1.0
C      1  0.4327770000000  0.5670770000000  0.5304980000000 1.0
C      1  0.4345370000000  0.4945530000000  0.4285560000000 1.0
C      1  0.4339510000000  0.4388580000000  0.5457820000000 1.0
C      1  0.5150130000000  0.4108810000000  0.4834330000000 1.0
C      1  0.5135580000000  0.5608070000000  0.4288460000000 1.0
C      1  0.5152520000000  0.5308680000000  0.5858890000000 1.0
C      1  0.4837560000000  0.5897560000000  0.4834400000000 1.0
C      1  0.4852150000000  0.4398350000000  0.4288400000000 1.0
C      1  0.4835120000000  0.4697600000000  0.5858860000000 1.0
C      1  0.5140990000000  0.5205120000000  0.5093390000000 1.0
C      1  0.5158360000000  0.4893630000000  0.5150360000000 1.0
C      1  0.5102430000000  0.4927230000000  0.4756170000000 1.0
C      1  0.4846690000000  0.4801240000000  0.5093360000000 1.0
C      1  0.4829310000000  0.5112710000000  0.5150360000000 1.0
C      1  0.4885270000000  0.5079150000000  0.4756170000000 1.0
C      1  0.4564710000000  0.4640560000000  0.5113980000000 1.0
C      1  0.4586610000000  0.5067500000000  0.4726940000000 1.0
C      1  0.4560720000000  0.5250860000000  0.5207780000000 1.0
C      1  0.5422970000000  0.5365790000000  0.5114040000000 1.0
C      1  0.5401090000000  0.4938880000000  0.4726960000000 1.0
C      1  0.5426950000000  0.4755480000000  0.5207780000000 1.0
C      1  0.4155610000000  0.5008150000000  0.4979710000000 1.0
C      1  0.5832070000000  0.4998210000000  0.4979760000000 1.0
END
