TITL C-2782229-3092-1236 0.000522506485887092 125000 -220.448052992892 0 0 41 (C1) n - 1
REM
REM in /home/nfs/bkarasulu/CARBON/AIRSS/Generating-Clusters/REBO/Higher-Symm/SD-CG/HFTN-CG
REM
REM
REM
REM
REM
REM ./C.cell (12c818d87b63d06a65506943cc24bca4)
REM
REM compiler GCC version 9.2.1 20190827 (Red Hat 9.2.1-1)
REM options -cpp -mtune=generic -march=x86-64 -g -O0 -fpre-include=/usr/include/finclude/math-vector-fortran.h
REM seed -1523741133 170176605 81199676 -164284953 -216463059 772871905 -1058409279 -270968602 -2118713356 1352507823 297207607 -1593989163 -2019008430 1839393410 -1106638479 -1679731221 1728667054 -645015436 1591788042 1938716707 -322364759 1309540573 -2090004250 1690826287 1337619601 -1093318568 136939570 -1699486949 -63935551 1999317415 1815066734 1747957903 603022279
REM
CELL 1.54180   50.00000   50.00000   50.00000   90.00000   90.00000   90.00000
LATT -1
SFAC C  
C      1  0.5189440000000  0.5000310000000  0.4675390000000 1.0
C      1  0.4565120000000  0.5233320000000  0.4891150000000 1.0
C      1  0.5112350000000  0.4014260000000  0.5053290000000 1.0
C      1  0.5183120000000  0.4962450000000  0.5296410000000 1.0
C      1  0.4941350000000  0.4860750000000  0.4770210000000 1.0
C      1  0.4896480000000  0.5033960000000  0.5253400000000 1.0
C      1  0.4456770000000  0.4934090000000  0.4943310000000 1.0
C      1  0.5412100000000  0.4948730000000  0.4864680000000 1.0
C      1  0.5365970000000  0.5108250000000  0.5111700000000 1.0
C      1  0.4993970000000  0.6018290000000  0.4953360000000 1.0
C      1  0.4943010000000  0.6039040000000  0.5219260000000 1.0
C      1  0.4876700000000  0.3998080000000  0.4927860000000 1.0
C      1  0.4652210000000  0.4186490000000  0.4787770000000 1.0
C      1  0.4886400000000  0.4598620000000  0.4689120000000 1.0
C      1  0.4433100000000  0.4615580000000  0.4853750000000 1.0
C      1  0.4800860000000  0.5798050000000  0.5388910000000 1.0
C      1  0.5113080000000  0.5782550000000  0.4764280000000 1.0
C      1  0.5356410000000  0.4211940000000  0.5143140000000 1.0
C      1  0.4781630000000  0.5306080000000  0.5422550000000 1.0
C      1  0.5177970000000  0.5328590000000  0.4590700000000 1.0
C      1  0.5308050000000  0.4651240000000  0.5357520000000 1.0
C      1  0.4618370000000  0.5523980000000  0.5042220000000 1.0
C      1  0.5296150000000  0.5428050000000  0.5033060000000 1.0
C      1  0.5487920000000  0.4625200000000  0.4922700000000 1.0
C      1  0.5352490000000  0.3901480000000  0.5238100000000 1.0
C      1  0.5172720000000  0.5118370000000  0.4356560000000 1.0
C      1  0.4490920000000  0.5534270000000  0.4753710000000 1.0
C      1  0.5037870000000  0.6071360000000  0.4636500000000 1.0
C      1  0.4889680000000  0.6070750000000  0.5537770000000 1.0
C      1  0.4598800000000  0.3868550000000  0.4821030000000 1.0
C      1  0.5233800000000  0.4828940000000  0.5605270000000 1.0
C      1  0.5068380000000  0.4462520000000  0.4537540000000 1.0
C      1  0.4698090000000  0.5021280000000  0.5529570000000 1.0
C      1  0.4169540000000  0.4754460000000  0.4957720000000 1.0
C      1  0.5693250000000  0.4794580000000  0.4752270000000 1.0
C      1  0.5528750000000  0.5378750000000  0.5239830000000 1.0
C      1  0.4645930000000  0.4464510000000  0.4770360000000 1.0
C      1  0.4730800000000  0.5546860000000  0.5291760000000 1.0
C      1  0.5188120000000  0.5517620000000  0.4791510000000 1.0
C      1  0.5381490000000  0.4491560000000  0.5143870000000 1.0
C      1  0.4777400000000  0.4997930000000  0.4981190000000 1.0
END
