TITL C-2782225-7408-111 0.00064261803087018 125000 -221.004901505152 0 0 39 (C1) n - 1
REM
REM in /home/nfs/bkarasulu/CARBON/AIRSS/Generating-Clusters/REBO/Higher-Symm/SD-CG/HFTN-CG
REM
REM
REM
REM
REM
REM ./C.cell (12c818d87b63d06a65506943cc24bca4)
REM
REM compiler GCC version 9.2.1 20190827 (Red Hat 9.2.1-1)
REM options -cpp -mtune=generic -march=x86-64 -g -O0 -fpre-include=/usr/include/finclude/math-vector-fortran.h
REM seed -2047858011 1095823399 -143192950 147112396 1810300336 -559454877 501178578 93161054 1862815957 763206429 -1701643231 -1338330520 1155670832 -663926793 -1784390657 -1539387189 4926932 1818753877 1255076053 -1346305400 -1863991491 1119784689 1986648685 -665199192 -1965258106 1069235784 -882626524 1673962735 440408507 554481380 19110296 1684787924 -138644224
REM
CELL 1.54180   50.00000   50.00000   50.00000   90.00000   90.00000   90.00000
LATT -1
SFAC C  
C      1  0.4669140000000  0.5382890000000  0.4815330000000 1.0
C      1  0.4647870000000  0.4864230000000  0.4739290000000 1.0
C      1  0.4532460000000  0.4610870000000  0.5227910000000 1.0
C      1  0.4546690000000  0.5232530000000  0.5349410000000 1.0
C      1  0.5322790000000  0.5289860000000  0.5151420000000 1.0
C      1  0.5330700000000  0.4818420000000  0.5317460000000 1.0
C      1  0.5415240000000  0.4690370000000  0.4810490000000 1.0
C      1  0.5348700000000  0.5183890000000  0.4661190000000 1.0
C      1  0.4551060000000  0.4890110000000  0.5366220000000 1.0
C      1  0.4635140000000  0.5440650000000  0.5094940000000 1.0
C      1  0.4656930000000  0.5142910000000  0.4656410000000 1.0
C      1  0.4652960000000  0.4576300000000  0.4915230000000 1.0
C      1  0.5361950000000  0.4899530000000  0.4618040000000 1.0
C      1  0.5381700000000  0.5418600000000  0.4853530000000 1.0
C      1  0.5353010000000  0.5092000000000  0.5396330000000 1.0
C      1  0.5347650000000  0.4563570000000  0.5119300000000 1.0
C      1  0.4875190000000  0.5241500000000  0.5449490000000 1.0
C      1  0.4890870000000  0.5604520000000  0.4682910000000 1.0
C      1  0.4936310000000  0.4745520000000  0.4696010000000 1.0
C      1  0.4808620000000  0.4444790000000  0.5194750000000 1.0
C      1  0.5033880000000  0.5316490000000  0.4647960000000 1.0
C      1  0.5012770000000  0.5392820000000  0.5214960000000 1.0
C      1  0.5035960000000  0.4765660000000  0.5259140000000 1.0
C      1  0.5184410000000  0.4466180000000  0.4834220000000 1.0
C      1  0.4851260000000  0.5655020000000  0.5164910000000 1.0
C      1  0.4851690000000  0.5178050000000  0.4420400000000 1.0
C      1  0.4897860000000  0.4373100000000  0.4812150000000 1.0
C      1  0.4849410000000  0.4796270000000  0.5470460000000 1.0
C      1  0.5213870000000  0.5641150000000  0.4796750000000 1.0
C      1  0.5150660000000  0.5154060000000  0.5599710000000 1.0
C      1  0.5097160000000  0.4362660000000  0.5209440000000 1.0
C      1  0.5117610000000  0.4803720000000  0.4482080000000 1.0
C      1  0.5002250000000  0.4152560000000  0.5002640000000 1.0
C      1  0.4963650000000  0.4935490000000  0.5691010000000 1.0
C      1  0.4966190000000  0.5793170000000  0.4942520000000 1.0
C      1  0.4990850000000  0.4970380000000  0.4288760000000 1.0
C      1  0.4775250000000  0.5056100000000  0.5176630000000 1.0
C      1  0.5066510000000  0.5193510000000  0.4943740000000 1.0
C      1  0.4966090000000  0.4896000000000  0.4977520000000 1.0
END
