TITL C-2782234-8014-1392 4.43777546415546e-05 125000 -224.93588793394 0 0 41 (C1) n - 1
REM
REM in /home/nfs/bkarasulu/CARBON/AIRSS/Generating-Clusters/REBO/Higher-Symm/SD-CG/HFTN-CG
REM
REM
REM
REM
REM
REM ./C.cell (12c818d87b63d06a65506943cc24bca4)
REM
REM compiler GCC version 9.2.1 20190827 (Red Hat 9.2.1-1)
REM options -cpp -mtune=generic -march=x86-64 -g -O0 -fpre-include=/usr/include/finclude/math-vector-fortran.h
REM seed -2046964890 -129194298 -313126937 1297788772 -627283246 -2096624985 124808612 -422160872 -874057018 1771192947 -1213857716 -414774210 -1999307334 2100570688 -1943958622 -403990025 -944158692 1443515021 1186636737 563481811 -248197092 1290274108 909692974 248915645 -1167426143 -918904305 1412622465 -767528262 33990505 1936320025 -1540979453 246624334 -946476103
REM
CELL 1.54180   50.00000   50.00000   50.00000   90.00000   90.00000   90.00000
LATT -1
SFAC C  
C      1  0.5380370000000  0.4877140000000  0.5220450000000 1.0
C      1  0.4905650000000  0.4892870000000  0.5445490000000 1.0
C      1  0.4558040000000  0.4892520000000  0.5053440000000 1.0
C      1  0.4818610000000  0.4895260000000  0.4597020000000 1.0
C      1  0.5327140000000  0.4893340000000  0.4704200000000 1.0
C      1  0.5270440000000  0.5323020000000  0.4979520000000 1.0
C      1  0.5113980000000  0.5321600000000  0.5253100000000 1.0
C      1  0.4804050000000  0.5326770000000  0.5188680000000 1.0
C      1  0.4769820000000  0.5329060000000  0.4874800000000 1.0
C      1  0.5057760000000  0.5328510000000  0.4745240000000 1.0
C      1  0.4282250000000  0.4850620000000  0.5080630000000 1.0
C      1  0.4703090000000  0.4857940000000  0.4344380000000 1.0
C      1  0.5533440000000  0.4856310000000  0.4517360000000 1.0
C      1  0.5619450000000  0.4824680000000  0.5357260000000 1.0
C      1  0.4850660000000  0.4858320000000  0.5718030000000 1.0
C      1  0.5112720000000  0.5827860000000  0.5244120000000 1.0
C      1  0.4821790000000  0.5832040000000  0.5183470000000 1.0
C      1  0.4789440000000  0.5835170000000  0.4888060000000 1.0
C      1  0.5060460000000  0.5833720000000  0.4766130000000 1.0
C      1  0.5260260000000  0.5828990000000  0.4986150000000 1.0
C      1  0.4692810000000  0.5057090000000  0.5284760000000 1.0
C      1  0.4644290000000  0.5057290000000  0.4801290000000 1.0
C      1  0.5084760000000  0.5058980000000  0.4600530000000 1.0
C      1  0.5409080000000  0.5049190000000  0.4960580000000 1.0
C      1  0.5169380000000  0.5046680000000  0.5380370000000 1.0
C      1  0.4895540000000  0.4635160000000  0.4747260000000 1.0
C      1  0.5200030000000  0.4628570000000  0.4812040000000 1.0
C      1  0.5226630000000  0.4625600000000  0.5122420000000 1.0
C      1  0.4929490000000  0.4634180000000  0.5280800000000 1.0
C      1  0.4729630000000  0.4638260000000  0.5039990000000 1.0
C      1  0.5335090000000  0.4382930000000  0.4686820000000 1.0
C      1  0.5179700000000  0.4328300000000  0.5237270000000 1.0
C      1  0.4919700000000  0.4334980000000  0.5441860000000 1.0
C      1  0.4740520000000  0.4329190000000  0.4949540000000 1.0
C      1  0.4776190000000  0.4330060000000  0.4653840000000 1.0
C      1  0.4635060000000  0.5605230000000  0.4798830000000 1.0
C      1  0.5093460000000  0.5602910000000  0.4592530000000 1.0
C      1  0.5431440000000  0.5594850000000  0.4964750000000 1.0
C      1  0.5181870000000  0.5592900000000  0.5401050000000 1.0
C      1  0.4689670000000  0.5600140000000  0.5298550000000 1.0
C      1  0.4895400000000  0.4186550000000  0.5144880000000 1.0
END
