TITL C-2782233-7966-1270 0.00228096328318689 125000 -588.213873055876 0 0 101 (C1) n - 1
REM
REM in /home/nfs/bkarasulu/CARBON/AIRSS/Generating-Clusters/REBO/Higher-Symm/SD-CG/HFTN-CG
REM
REM
REM
REM
REM
REM ./C.cell (12c818d87b63d06a65506943cc24bca4)
REM
REM compiler GCC version 9.2.1 20190827 (Red Hat 9.2.1-1)
REM options -cpp -mtune=generic -march=x86-64 -g -O0 -fpre-include=/usr/include/finclude/math-vector-fortran.h
REM seed 1769204724 216903983 540619086 -90260305 -205481930 -1700956932 1737661098 702097816 -330790193 53771899 -78040746 -440563895 202536714 948179931 -1916223641 453222289 80783271 847640287 -850987806 2049195740 1997680230 167096664 299141338 255496045 48905852 727796834 -1538455610 1317049927 -1569177874 -1285217195 1081062450 -1058113990 -950812416
REM
CELL 1.54180   50.00000   50.00000   50.00000   90.00000   90.00000   90.00000
LATT -1
SFAC C  
C      1  0.4768670000000  0.4579960000000  0.5118210000000 1.0
C      1  0.4831370000000  0.5159600000000  0.4551220000000 1.0
C      1  0.4791650000000  0.5306120000000  0.5359090000000 1.0
C      1  0.5070480000000  0.4490220000000  0.5064080000000 1.0
C      1  0.5130320000000  0.5228210000000  0.4610630000000 1.0
C      1  0.5099470000000  0.5322190000000  0.5444180000000 1.0
C      1  0.3951030000000  0.4435160000000  0.4137510000000 1.0
C      1  0.4144890000000  0.5428890000000  0.5035590000000 1.0
C      1  0.4172890000000  0.4666000000000  0.5236270000000 1.0
C      1  0.5964950000000  0.4699210000000  0.4315150000000 1.0
C      1  0.5999040000000  0.5752080000000  0.5123300000000 1.0
C      1  0.5993110000000  0.4547060000000  0.5562010000000 1.0
C      1  0.4786070000000  0.4694050000000  0.5669270000000 1.0
C      1  0.4741670000000  0.4564430000000  0.4436980000000 1.0
C      1  0.4777410000000  0.5756630000000  0.4895950000000 1.0
C      1  0.5259970000000  0.4704900000000  0.5706090000000 1.0
C      1  0.5215150000000  0.4546680000000  0.4378040000000 1.0
C      1  0.5263450000000  0.5782820000000  0.4919100000000 1.0
C      1  0.5560640000000  0.4750810000000  0.5695140000000 1.0
C      1  0.5513910000000  0.4519730000000  0.4427780000000 1.0
C      1  0.5564820000000  0.5755080000000  0.4883270000000 1.0
C      1  0.4474280000000  0.4679220000000  0.5695960000000 1.0
C      1  0.4431800000000  0.4582130000000  0.4422720000000 1.0
C      1  0.4481320000000  0.5770130000000  0.4846110000000 1.0
C      1  0.4324190000000  0.5275600000000  0.5283080000000 1.0
C      1  0.4337120000000  0.4775020000000  0.4982170000000 1.0
C      1  0.4382350000000  0.5240180000000  0.4761270000000 1.0
C      1  0.5605390000000  0.5164170000000  0.5301260000000 1.0
C      1  0.5585670000000  0.4675230000000  0.4969460000000 1.0
C      1  0.5601280000000  0.5198420000000  0.4715010000000 1.0
C      1  0.5172470000000  0.5548250000000  0.4609700000000 1.0
C      1  0.5160560000000  0.5112690000000  0.5673660000000 1.0
C      1  0.5095220000000  0.4402360000000  0.4760600000000 1.0
C      1  0.4838470000000  0.5496860000000  0.4573270000000 1.0
C      1  0.4818430000000  0.5125550000000  0.5647520000000 1.0
C      1  0.4758730000000  0.4445910000000  0.4818490000000 1.0
C      1  0.4853590000000  0.4765790000000  0.4602930000000 1.0
C      1  0.4874740000000  0.5494990000000  0.4975570000000 1.0
C      1  0.4881720000000  0.4803680000000  0.5425110000000 1.0
C      1  0.5131450000000  0.4769080000000  0.4552550000000 1.0
C      1  0.5158300000000  0.5521070000000  0.5008210000000 1.0
C      1  0.5165370000000  0.4784020000000  0.5435140000000 1.0
C      1  0.4851990000000  0.4167270000000  0.4976000000000 1.0
C      1  0.4815460000000  0.5419270000000  0.4248230000000 1.0
C      1  0.4915500000000  0.5409660000000  0.5788400000000 1.0
C      1  0.5154190000000  0.4119040000000  0.4941090000000 1.0
C      1  0.5116170000000  0.5465370000000  0.4288900000000 1.0
C      1  0.5218960000000  0.5407800000000  0.5830910000000 1.0
C      1  0.5293980000000  0.5391750000000  0.5211970000000 1.0
C      1  0.5284670000000  0.4653380000000  0.5221400000000 1.0
C      1  0.5282610000000  0.4997510000000  0.4585690000000 1.0
C      1  0.4748480000000  0.5216290000000  0.5065640000000 1.0
C      1  0.4744050000000  0.4887320000000  0.5133370000000 1.0
C      1  0.4741040000000  0.4994520000000  0.4810570000000 1.0
C      1  0.4405160000000  0.4360240000000  0.5605930000000 1.0
C      1  0.4382770000000  0.4795860000000  0.4174150000000 1.0
C      1  0.4365590000000  0.5615680000000  0.5305050000000 1.0
C      1  0.5580560000000  0.4521640000000  0.5275020000000 1.0
C      1  0.5573020000000  0.4990730000000  0.4444360000000 1.0
C      1  0.5592720000000  0.5505300000000  0.5287380000000 1.0
C      1  0.5640960000000  0.5290660000000  0.5620240000000 1.0
C      1  0.5590350000000  0.4333770000000  0.4922720000000 1.0
C      1  0.5580450000000  0.5388420000000  0.4428000000000 1.0
C      1  0.4445660000000  0.5251130000000  0.5583740000000 1.0
C      1  0.4411000000000  0.4437500000000  0.5015160000000 1.0
C      1  0.4391400000000  0.5335220000000  0.4447970000000 1.0
C      1  0.4523650000000  0.4989510000000  0.5701880000000 1.0
C      1  0.4470150000000  0.4589650000000  0.4727840000000 1.0
C      1  0.4542120000000  0.5526380000000  0.4669480000000 1.0
C      1  0.5457560000000  0.5026600000000  0.5577930000000 1.0
C      1  0.5405850000000  0.4512240000000  0.4726640000000 1.0
C      1  0.5472800000000  0.5517080000000  0.4705860000000 1.0
C      1  0.4855580000000  0.5634320000000  0.5403040000000 1.0
C      1  0.4841050000000  0.4386700000000  0.5372830000000 1.0
C      1  0.4831930000000  0.5005290000000  0.4283340000000 1.0
C      1  0.5142370000000  0.5668110000000  0.5456070000000 1.0
C      1  0.5125700000000  0.4313790000000  0.5357590000000 1.0
C      1  0.5086810000000  0.4945050000000  0.4177340000000 1.0
C      1  0.4575290000000  0.4229910000000  0.5121440000000 1.0
C      1  0.4557100000000  0.5287650000000  0.4217050000000 1.0
C      1  0.4619920000000  0.5470650000000  0.5680560000000 1.0
C      1  0.5423570000000  0.4138610000000  0.5060170000000 1.0
C      1  0.5373730000000  0.5334970000000  0.4234130000000 1.0
C      1  0.5478080000000  0.5506260000000  0.5729390000000 1.0
C      1  0.5348610000000  0.5047060000000  0.4195060000000 1.0
C      1  0.5420930000000  0.5689460000000  0.5504270000000 1.0
C      1  0.5400950000000  0.4249360000000  0.5333530000000 1.0
C      1  0.4565970000000  0.4996910000000  0.4138810000000 1.0
C      1  0.4569730000000  0.5699790000000  0.5485580000000 1.0
C      1  0.4590650000000  0.4227550000000  0.5436640000000 1.0
C      1  0.5701520000000  0.4725920000000  0.4389820000000 1.0
C      1  0.5734940000000  0.5680590000000  0.5092790000000 1.0
C      1  0.5727340000000  0.4606660000000  0.5521240000000 1.0
C      1  0.4174820000000  0.4562370000000  0.4213840000000 1.0
C      1  0.4273700000000  0.5718520000000  0.5031200000000 1.0
C      1  0.4229690000000  0.4592080000000  0.5484530000000 1.0
C      1  0.5013150000000  0.5927260000000  0.4858330000000 1.0
C      1  0.5010420000000  0.4641580000000  0.5842790000000 1.0
C      1  0.4958370000000  0.4425620000000  0.4305200000000 1.0
C      1  0.4354580000000  0.5090770000000  0.4998270000000 1.0
C      1  0.5606470000000  0.5013550000000  0.4997450000000 1.0
END
