TITL C-2782235-7892-527 0.00386191350841467 125000 -202.772823991142 0 0 38 (C1) n - 1
REM
REM in /home/nfs/bkarasulu/CARBON/AIRSS/Generating-Clusters/REBO/Higher-Symm/SD-CG/HFTN-CG
REM
REM
REM
REM
REM
REM ./C.cell (12c818d87b63d06a65506943cc24bca4)
REM
REM compiler GCC version 9.2.1 20190827 (Red Hat 9.2.1-1)
REM options -cpp -mtune=generic -march=x86-64 -g -O0 -fpre-include=/usr/include/finclude/math-vector-fortran.h
REM seed -1436158784 1920864429 -1800559753 -956526707 -1813559250 -1878463543 -418201129 1489005972 -1641844409 -1505632089 -414087504 989230963 1942307572 -1521454242 1608514256 1338831124 -604880687 76119456 -965552747 771515539 145431331 1613262119 599253574 498141068 673472829 -42499670 -27928583 913398902 -432799293 675226238 -1258325023 -795015104 1293262228
REM
CELL 1.54180   50.00000   50.00000   50.00000   90.00000   90.00000   90.00000
LATT -1
SFAC C  
C      1  0.5417560000000  0.4593040000000  0.5056640000000 1.0
C      1  0.5298830000000  0.4666090000000  0.5302110000000 1.0
C      1  0.5058140000000  0.4849480000000  0.5366330000000 1.0
C      1  0.4853250000000  0.4875610000000  0.5140630000000 1.0
C      1  0.4892650000000  0.4862220000000  0.4816810000000 1.0
C      1  0.5145330000000  0.4820220000000  0.4649960000000 1.0
C      1  0.5361380000000  0.4644480000000  0.4784840000000 1.0
C      1  0.5046330000000  0.4608300000000  0.4427350000000 1.0
C      1  0.5430520000000  0.4407890000000  0.4623370000000 1.0
C      1  0.5542480000000  0.4319620000000  0.5083150000000 1.0
C      1  0.5324910000000  0.4444050000000  0.5494120000000 1.0
C      1  0.4906460000000  0.4655290000000  0.5574850000000 1.0
C      1  0.4611110000000  0.4692280000000  0.5197820000000 1.0
C      1  0.4669520000000  0.4672540000000  0.4718230000000 1.0
C      1  0.5239820000000  0.5329750000000  0.4832540000000 1.0
C      1  0.5196510000000  0.5343730000000  0.5169730000000 1.0
C      1  0.4912220000000  0.5366280000000  0.5345460000000 1.0
C      1  0.4597400000000  0.5330230000000  0.5226360000000 1.0
C      1  0.4497420000000  0.5294670000000  0.4904330000000 1.0
C      1  0.4672750000000  0.5342520000000  0.4617040000000 1.0
C      1  0.5010290000000  0.5339190000000  0.4588800000000 1.0
C      1  0.4356750000000  0.5106040000000  0.5150050000000 1.0
C      1  0.4334940000000  0.5313520000000  0.4606670000000 1.0
C      1  0.4826990000000  0.5523050000000  0.4373360000000 1.0
C      1  0.5236050000000  0.5099450000000  0.4591900000000 1.0
C      1  0.5452600000000  0.5511470000000  0.5024000000000 1.0
C      1  0.5133390000000  0.5134220000000  0.5421040000000 1.0
C      1  0.4663110000000  0.5559650000000  0.5468280000000 1.0
C      1  0.4764330000000  0.4562230000000  0.4470620000000 1.0
C      1  0.5252430000000  0.4408440000000  0.4397380000000 1.0
C      1  0.5561300000000  0.4222920000000  0.4807680000000 1.0
C      1  0.5494080000000  0.4245950000000  0.5362100000000 1.0
C      1  0.5097530000000  0.4460790000000  0.5669690000000 1.0
C      1  0.4642670000000  0.4603160000000  0.5468980000000 1.0
C      1  0.4506970000000  0.4603300000000  0.4945040000000 1.0
C      1  0.4871500000000  0.5426560000000  0.4952850000000 1.0
C      1  0.4869930000000  0.5164470000000  0.4965820000000 1.0
C      1  0.4873160000000  0.5688350000000  0.4939890000000 1.0
END
