TITL C-2782228-2999-691 -0.000760631954526265 125000 -1075.58592610322 0 0 180 (C1) n - 1
REM
REM in /home/nfs/bkarasulu/CARBON/AIRSS/Generating-Clusters/REBO/Higher-Symm/SD-CG/HFTN-CG
REM
REM
REM
REM
REM
REM ./C.cell (12c818d87b63d06a65506943cc24bca4)
REM
REM compiler GCC version 9.2.1 20190827 (Red Hat 9.2.1-1)
REM options -cpp -mtune=generic -march=x86-64 -g -O0 -fpre-include=/usr/include/finclude/math-vector-fortran.h
REM seed -19122541 -1968053204 2055604735 -509142851 1257822477 626209119 1916221650 -731356042 -2125908891 1594664346 -1488887405 -765525954 1545947325 1648525845 624794923 1636040286 1981167674 -245043144 1167934505 1515034418 -42642556 -2090251616 1875240580 -797281022 -816039080 955433958 56410732 277636316 -1367550659 -875315124 -1780897951 -1723683112 -740985616
REM
CELL 1.54180   50.00000   50.00000   50.00000   90.00000   90.00000   90.00000
LATT -1
SFAC C  
C      1  0.4583650000000  0.5905250000000  0.5514160000000 1.0
C      1  0.4009160000000  0.4900500000000  0.5499820000000 1.0
C      1  0.4761040000000  0.3999350000000  0.5523790000000 1.0
C      1  0.5882480000000  0.4470910000000  0.5529860000000 1.0
C      1  0.5705350000000  0.5686770000000  0.5566050000000 1.0
C      1  0.5463490000000  0.4041830000000  0.4803730000000 1.0
C      1  0.6014910000000  0.5245240000000  0.4864210000000 1.0
C      1  0.5063530000000  0.6021080000000  0.4888930000000 1.0
C      1  0.4045700000000  0.5352840000000  0.4871330000000 1.0
C      1  0.4315940000000  0.4305100000000  0.4810470000000 1.0
C      1  0.4098050000000  0.5348580000000  0.5307130000000 1.0
C      1  0.4401090000000  0.4286780000000  0.5414670000000 1.0
C      1  0.5480940000000  0.4211160000000  0.5441160000000 1.0
C      1  0.5979020000000  0.5224890000000  0.5334790000000 1.0
C      1  0.5057980000000  0.5953480000000  0.5327210000000 1.0
C      1  0.5439100000000  0.4367710000000  0.5656340000000 1.0
C      1  0.5773520000000  0.5138160000000  0.5577910000000 1.0
C      1  0.5014250000000  0.5764960000000  0.5589550000000 1.0
C      1  0.4267060000000  0.5270700000000  0.5575940000000 1.0
C      1  0.4520920000000  0.4368880000000  0.5657840000000 1.0
C      1  0.4844040000000  0.4343920000000  0.4729920000000 1.0
C      1  0.5589800000000  0.4636440000000  0.4728570000000 1.0
C      1  0.5542700000000  0.5472810000000  0.4725470000000 1.0
C      1  0.4715170000000  0.5677040000000  0.4745680000000 1.0
C      1  0.4298960000000  0.4944700000000  0.4731130000000 1.0
C      1  0.4027620000000  0.4748500000000  0.4670850000000 1.0
C      1  0.4891900000000  0.4015970000000  0.4708790000000 1.0
C      1  0.5905590000000  0.4544030000000  0.4694210000000 1.0
C      1  0.5692020000000  0.5769660000000  0.4693180000000 1.0
C      1  0.4472230000000  0.5900180000000  0.4687430000000 1.0
C      1  0.4928750000000  0.3981390000000  0.5228050000000 1.0
C      1  0.5961640000000  0.4595790000000  0.5221520000000 1.0
C      1  0.5657200000000  0.5758310000000  0.5261310000000 1.0
C      1  0.4419520000000  0.5868540000000  0.5224590000000 1.0
C      1  0.4048630000000  0.4712370000000  0.5217230000000 1.0
C      1  0.5205720000000  0.3997610000000  0.4635890000000 1.0
C      1  0.6020040000000  0.4826190000000  0.4666950000000 1.0
C      1  0.5456590000000  0.5949460000000  0.4685840000000 1.0
C      1  0.4233350000000  0.5721320000000  0.4667050000000 1.0
C      1  0.4119540000000  0.4455430000000  0.4619100000000 1.0
C      1  0.5130820000000  0.5196860000000  0.5376320000000 1.0
C      1  0.4835730000000  0.5084630000000  0.5430760000000 1.0
C      1  0.4841620000000  0.4760130000000  0.5416610000000 1.0
C      1  0.5149730000000  0.4646690000000  0.5384740000000 1.0
C      1  0.5316470000000  0.4922180000000  0.5410610000000 1.0
C      1  0.4541880000000  0.4750770000000  0.4725970000000 1.0
C      1  0.5112520000000  0.4502530000000  0.4764730000000 1.0
C      1  0.5555120000000  0.4954320000000  0.4737030000000 1.0
C      1  0.5223090000000  0.5515600000000  0.4727810000000 1.0
C      1  0.4584890000000  0.5382400000000  0.4728960000000 1.0
C      1  0.4854170000000  0.4751580000000  0.5097520000000 1.0
C      1  0.5190190000000  0.4751550000000  0.5075090000000 1.0
C      1  0.5371770000000  0.5026410000000  0.5108310000000 1.0
C      1  0.4994130000000  0.5301220000000  0.5116180000000 1.0
C      1  0.4731010000000  0.5071660000000  0.5118470000000 1.0
C      1  0.5335660000000  0.4217600000000  0.4468410000000 1.0
C      1  0.5867820000000  0.5003870000000  0.4492890000000 1.0
C      1  0.5247120000000  0.5854440000000  0.4508160000000 1.0
C      1  0.4269530000000  0.5496960000000  0.4485200000000 1.0
C      1  0.4363070000000  0.4427360000000  0.4434010000000 1.0
C      1  0.4606210000000  0.4473470000000  0.4594250000000 1.0
C      1  0.5378450000000  0.4447080000000  0.4636710000000 1.0
C      1  0.5692740000000  0.5226610000000  0.4627960000000 1.0
C      1  0.4992900000000  0.5723230000000  0.4632110000000 1.0
C      1  0.4321260000000  0.5220400000000  0.4615260000000 1.0
C      1  0.4972570000000  0.4763890000000  0.4382970000000 1.0
C      1  0.5215960000000  0.4911570000000  0.4413900000000 1.0
C      1  0.5151360000000  0.5191070000000  0.4424550000000 1.0
C      1  0.4865500000000  0.5215110000000  0.4400620000000 1.0
C      1  0.4754260000000  0.4948950000000  0.4377890000000 1.0
C      1  0.5376010000000  0.5931990000000  0.5231480000000 1.0
C      1  0.4202270000000  0.5636510000000  0.5209690000000 1.0
C      1  0.4129470000000  0.4439260000000  0.5362130000000 1.0
C      1  0.5240290000000  0.4061450000000  0.5302560000000 1.0
C      1  0.6046720000000  0.4917120000000  0.5194700000000 1.0
C      1  0.4641720000000  0.4521500000000  0.4037950000000 1.0
C      1  0.5342810000000  0.4511660000000  0.4023470000000 1.0
C      1  0.5603230000000  0.5168110000000  0.4114160000000 1.0
C      1  0.5040100000000  0.5642790000000  0.4115770000000 1.0
C      1  0.4415710000000  0.5230280000000  0.4095400000000 1.0
C      1  0.4743860000000  0.5479360000000  0.5951720000000 1.0
C      1  0.4464010000000  0.4914020000000  0.5950460000000 1.0
C      1  0.4922710000000  0.4473710000000  0.5933070000000 1.0
C      1  0.5503520000000  0.4806820000000  0.5935570000000 1.0
C      1  0.5384320000000  0.5355310000000  0.5922090000000 1.0
C      1  0.4790920000000  0.4825180000000  0.4001540000000 1.0
C      1  0.5124870000000  0.4763180000000  0.4014940000000 1.0
C      1  0.5286220000000  0.5060650000000  0.4051160000000 1.0
C      1  0.5050700000000  0.5306990000000  0.4056840000000 1.0
C      1  0.4742980000000  0.5161880000000  0.4026320000000 1.0
C      1  0.5958370000000  0.5458490000000  0.5197840000000 1.0
C      1  0.4790510000000  0.5997440000000  0.5256520000000 1.0
C      1  0.3981620000000  0.5101480000000  0.5225600000000 1.0
C      1  0.4549850000000  0.4072660000000  0.5283990000000 1.0
C      1  0.5744650000000  0.4272410000000  0.5287700000000 1.0
C      1  0.5357050000000  0.6036920000000  0.4937220000000 1.0
C      1  0.4109950000000  0.5641410000000  0.4908350000000 1.0
C      1  0.3908100000000  0.4277400000000  0.5409450000000 1.0
C      1  0.5430000000000  0.3966200000000  0.5073430000000 1.0
C      1  0.6114690000000  0.4963890000000  0.4895240000000 1.0
C      1  0.4235980000000  0.5033920000000  0.4245910000000 1.0
C      1  0.4740190000000  0.4296240000000  0.4248070000000 1.0
C      1  0.5569410000000  0.4503360000000  0.4261590000000 1.0
C      1  0.5652960000000  0.5424960000000  0.4274730000000 1.0
C      1  0.4802670000000  0.5760160000000  0.4269580000000 1.0
C      1  0.5617030000000  0.4641320000000  0.5417900000000 1.0
C      1  0.5454620000000  0.5428180000000  0.5394940000000 1.0
C      1  0.4758700000000  0.5634460000000  0.5420560000000 1.0
C      1  0.4322370000000  0.4998030000000  0.5404940000000 1.0
C      1  0.4805120000000  0.4365480000000  0.5376510000000 1.0
C      1  0.4945930000000  0.4736660000000  0.6073110000000 1.0
C      1  0.5223870000000  0.4875560000000  0.6071440000000 1.0
C      1  0.5170510000000  0.5175420000000  0.6074720000000 1.0
C      1  0.4880370000000  0.5245080000000  0.6085040000000 1.0
C      1  0.4724190000000  0.4974290000000  0.6085340000000 1.0
C      1  0.4763120000000  0.4233710000000  0.5751810000000 1.0
C      1  0.5644410000000  0.4583130000000  0.5753470000000 1.0
C      1  0.5592260000000  0.5563640000000  0.5750350000000 1.0
C      1  0.4673730000000  0.5736340000000  0.5796700000000 1.0
C      1  0.4204840000000  0.4925600000000  0.5779010000000 1.0
C      1  0.4335020000000  0.4680290000000  0.5489710000000 1.0
C      1  0.5046200000000  0.4273050000000  0.5473260000000 1.0
C      1  0.5766760000000  0.4901850000000  0.5387160000000 1.0
C      1  0.5319740000000  0.5684510000000  0.5461070000000 1.0
C      1  0.4432780000000  0.5537520000000  0.5445320000000 1.0
C      1  0.5541340000000  0.5283920000000  0.5147410000000 1.0
C      1  0.4886910000000  0.5581720000000  0.5140880000000 1.0
C      1  0.4429440000000  0.5079310000000  0.5128170000000 1.0
C      1  0.4723770000000  0.4469810000000  0.5088470000000 1.0
C      1  0.5519290000000  0.4491290000000  0.5145930000000 1.0
C      1  0.5823740000000  0.5560860000000  0.4457610000000 1.0
C      1  0.4719680000000  0.5953790000000  0.4458940000000 1.0
C      1  0.4033500000000  0.5004200000000  0.4441880000000 1.0
C      1  0.4681740000000  0.4108340000000  0.4453390000000 1.0
C      1  0.5726880000000  0.4378490000000  0.4456490000000 1.0
C      1  0.4776300000000  0.4820070000000  0.5721940000000 1.0
C      1  0.5109120000000  0.4751800000000  0.5709100000000 1.0
C      1  0.5272840000000  0.5035460000000  0.5710130000000 1.0
C      1  0.5062290000000  0.5273220000000  0.5699940000000 1.0
C      1  0.4748950000000  0.5155510000000  0.5720170000000 1.0
C      1  0.4295890000000  0.4795090000000  0.5036490000000 1.0
C      1  0.4975280000000  0.4247890000000  0.5035810000000 1.0
C      1  0.5721100000000  0.4741010000000  0.5027020000000 1.0
C      1  0.5461220000000  0.5595680000000  0.5034100000000 1.0
C      1  0.4566260000000  0.5617360000000  0.5048080000000 1.0
C      1  0.4687420000000  0.3980690000000  0.4984060000000 1.0
C      1  0.5862790000000  0.4369890000000  0.4983090000000 1.0
C      1  0.5844290000000  0.5699120000000  0.4986450000000 1.0
C      1  0.4591940000000  0.6027630000000  0.4980300000000 1.0
C      1  0.3917780000000  0.4895420000000  0.4959820000000 1.0
C      1  0.4504960000000  0.4101620000000  0.4727860000000 1.0
C      1  0.5687590000000  0.4215080000000  0.4734550000000 1.0
C      1  0.5965140000000  0.5491530000000  0.4749360000000 1.0
C      1  0.4824490000000  0.6063640000000  0.4753720000000 1.0
C      1  0.3946350000000  0.5131070000000  0.4731870000000 1.0
C      1  0.4501650000000  0.4659490000000  0.5750440000000 1.0
C      1  0.5155650000000  0.4421800000000  0.5715280000000 1.0
C      1  0.5578130000000  0.5111840000000  0.5804980000000 1.0
C      1  0.5192140000000  0.5555420000000  0.5749040000000 1.0
C      1  0.4526310000000  0.5371640000000  0.5730130000000 1.0
C      1  0.5265830000000  0.5024200000000  0.4795770000000 1.0
C      1  0.5097390000000  0.5265760000000  0.4816680000000 1.0
C      1  0.4794560000000  0.5187450000000  0.4791380000000 1.0
C      1  0.4791760000000  0.4886160000000  0.4770210000000 1.0
C      1  0.5073970000000  0.4792080000000  0.4767360000000 1.0
C      1  0.4365730000000  0.5346750000000  0.4989070000000 1.0
C      1  0.4461780000000  0.4525880000000  0.4962160000000 1.0
C      1  0.5279180000000  0.4369190000000  0.5027300000000 1.0
C      1  0.5746130000000  0.5079640000000  0.4990620000000 1.0
C      1  0.5140290000000  0.5708450000000  0.4999820000000 1.0
C      1  0.4503970000000  0.4856930000000  0.4199870000000 1.0
C      1  0.4995530000000  0.4500420000000  0.4214780000000 1.0
C      1  0.5461340000000  0.4819480000000  0.4241180000000 1.0
C      1  0.5320190000000  0.5403380000000  0.4262030000000 1.0
C      1  0.4718620000000  0.5443730000000  0.4235940000000 1.0
C      1  0.4377390000000  0.4558120000000  0.4184620000000 1.0
C      1  0.5238540000000  0.4284920000000  0.4213590000000 1.0
C      1  0.5760110000000  0.4944570000000  0.4238110000000 1.0
C      1  0.5292520000000  0.5730490000000  0.4255240000000 1.0
C      1  0.4397250000000  0.5498860000000  0.4231110000000 1.0
END
