TITL C-2782236-320-457 -0.00254623184623391 125000 -464.174144608402 0 0 81 (C1) n - 1
REM
REM in /home/nfs/bkarasulu/CARBON/AIRSS/Generating-Clusters/REBO/Higher-Symm/SD-CG/HFTN-CG
REM
REM
REM
REM
REM
REM ./C.cell (12c818d87b63d06a65506943cc24bca4)
REM
REM compiler GCC version 9.2.1 20190827 (Red Hat 9.2.1-1)
REM options -cpp -mtune=generic -march=x86-64 -g -O0 -fpre-include=/usr/include/finclude/math-vector-fortran.h
REM seed 1954924909 -1412567856 -342811659 1548537860 -1981651788 915808326 2080262691 -2076673280 436046817 -1873376744 1307038793 -540659178 -344503613 -1690280630 806908978 1434380669 1246071818 1343116601 -1067371349 -1704921635 -1486957542 1390176726 524302713 -1772327023 1092476174 774337716 -1158137901 -399444865 1829407987 570269134 205966045 1348798305 -1443227072
REM
CELL 1.54180   50.00000   50.00000   50.00000   90.00000   90.00000   90.00000
LATT -1
SFAC C  
C      1  0.4293370000000  0.5192090000000  0.5316420000000 1.0
C      1  0.5189540000000  0.5719870000000  0.4672260000000 1.0
C      1  0.5692480000000  0.4800500000000  0.5312470000000 1.0
C      1  0.4815880000000  0.4309680000000  0.4677710000000 1.0
C      1  0.5102420000000  0.4733750000000  0.4584960000000 1.0
C      1  0.4720910000000  0.4887870000000  0.5395670000000 1.0
C      1  0.4876410000000  0.5290570000000  0.4594070000000 1.0
C      1  0.5280340000000  0.5107350000000  0.5406260000000 1.0
C      1  0.5209300000000  0.4888500000000  0.5179800000000 1.0
C      1  0.4876770000000  0.4801100000000  0.4808110000000 1.0
C      1  0.4790420000000  0.5130640000000  0.5189440000000 1.0
C      1  0.5118400000000  0.5222260000000  0.4799600000000 1.0
C      1  0.4173640000000  0.5495840000000  0.4848530000000 1.0
C      1  0.5520130000000  0.5805410000000  0.5140350000000 1.0
C      1  0.5794370000000  0.4484680000000  0.4850780000000 1.0
C      1  0.4511200000000  0.4185730000000  0.5143830000000 1.0
C      1  0.4263330000000  0.5027620000000  0.5017930000000 1.0
C      1  0.5026230000000  0.5751400000000  0.4970350000000 1.0
C      1  0.5747930000000  0.4975980000000  0.5024240000000 1.0
C      1  0.4987850000000  0.4272120000000  0.4971750000000 1.0
C      1  0.5351650000000  0.5584810000000  0.5173730000000 1.0
C      1  0.5579220000000  0.4658050000000  0.4810050000000 1.0
C      1  0.4661770000000  0.4417720000000  0.5179610000000 1.0
C      1  0.4407840000000  0.5347860000000  0.4814240000000 1.0
C      1  0.5111310000000  0.5140480000000  0.5766820000000 1.0
C      1  0.5136850000000  0.4898690000000  0.4222780000000 1.0
C      1  0.4913440000000  0.4889490000000  0.5746100000000 1.0
C      1  0.4885190000000  0.5096200000000  0.4244650000000 1.0
C      1  0.5184710000000  0.5042930000000  0.4539100000000 1.0
C      1  0.5026540000000  0.4799760000000  0.5428590000000 1.0
C      1  0.4791670000000  0.4983750000000  0.4560610000000 1.0
C      1  0.4972080000000  0.5193600000000  0.5449140000000 1.0
C      1  0.4673180000000  0.5659550000000  0.5339520000000 1.0
C      1  0.5655880000000  0.5333410000000  0.4658060000000 1.0
C      1  0.5343040000000  0.4351740000000  0.5359030000000 1.0
C      1  0.4351780000000  0.4670170000000  0.4642400000000 1.0
C      1  0.4294610000000  0.4929770000000  0.4736370000000 1.0
C      1  0.4933480000000  0.5723250000000  0.5252880000000 1.0
C      1  0.5725770000000  0.5072130000000  0.4739110000000 1.0
C      1  0.5084930000000  0.4300490000000  0.5255910000000 1.0
C      1  0.5435610000000  0.5022500000000  0.4322610000000 1.0
C      1  0.5029150000000  0.4580690000000  0.5678290000000 1.0
C      1  0.4573930000000  0.4979420000000  0.4310940000000 1.0
C      1  0.4985260000000  0.5439230000000  0.5671780000000 1.0
C      1  0.4565810000000  0.4671620000000  0.4379780000000 1.0
C      1  0.4678050000000  0.5437950000000  0.5592620000000 1.0
C      1  0.5432160000000  0.5327680000000  0.4406310000000 1.0
C      1  0.5337040000000  0.4566960000000  0.5621350000000 1.0
C      1  0.4639280000000  0.4967360000000  0.5776940000000 1.0
C      1  0.4965040000000  0.5370300000000  0.4214580000000 1.0
C      1  0.5384300000000  0.5055810000000  0.5787210000000 1.0
C      1  0.5052860000000  0.4625330000000  0.4204850000000 1.0
C      1  0.4870170000000  0.4431770000000  0.5437080000000 1.0
C      1  0.4424470000000  0.5141780000000  0.4551570000000 1.0
C      1  0.5144780000000  0.5588020000000  0.5433370000000 1.0
C      1  0.5593960000000  0.4862750000000  0.4551470000000 1.0
C      1  0.4825210000000  0.5869700000000  0.4751970000000 1.0
C      1  0.5863960000000  0.5173490000000  0.5245980000000 1.0
C      1  0.5177350000000  0.4152030000000  0.4743400000000 1.0
C      1  0.4142580000000  0.4829980000000  0.5238630000000 1.0
C      1  0.5466790000000  0.4792980000000  0.5069320000000 1.0
C      1  0.4786290000000  0.4540370000000  0.4917640000000 1.0
C      1  0.4531460000000  0.5227850000000  0.5080490000000 1.0
C      1  0.5220200000000  0.5478480000000  0.4907600000000 1.0
C      1  0.5134870000000  0.5465700000000  0.4452960000000 1.0
C      1  0.5468250000000  0.4866190000000  0.5559710000000 1.0
C      1  0.4864750000000  0.4541140000000  0.4433080000000 1.0
C      1  0.4542440000000  0.5140460000000  0.5542320000000 1.0
C      1  0.4406860000000  0.5484750000000  0.5394370000000 1.0
C      1  0.5480180000000  0.5598950000000  0.4601730000000 1.0
C      1  0.5613560000000  0.4516740000000  0.5433670000000 1.0
C      1  0.4522270000000  0.4401670000000  0.4581230000000 1.0
C      1  0.4558670000000  0.4633680000000  0.5383320000000 1.0
C      1  0.4623960000000  0.5453870000000  0.4610650000000 1.0
C      1  0.5440820000000  0.5363710000000  0.5381110000000 1.0
C      1  0.5359950000000  0.4573760000000  0.4600540000000 1.0
C      1  0.5720500000000  0.5326740000000  0.5397870000000 1.0
C      1  0.5322620000000  0.4293860000000  0.4581910000000 1.0
C      1  0.4279610000000  0.4671690000000  0.5391170000000 1.0
C      1  0.4662780000000  0.5732610000000  0.4604250000000 1.0
C      1  0.5000070000000  0.5013250000000  0.4994150000000 1.0
END
