TITL C-2782227-3064-1142 -0.00202643986594261 125000 -433.219902405716 0 0 77 (C1) n - 1
REM
REM in /home/nfs/bkarasulu/CARBON/AIRSS/Generating-Clusters/REBO/Higher-Symm/SD-CG/HFTN-CG
REM
REM
REM
REM
REM
REM ./C.cell (12c818d87b63d06a65506943cc24bca4)
REM
REM compiler GCC version 9.2.1 20190827 (Red Hat 9.2.1-1)
REM options -cpp -mtune=generic -march=x86-64 -g -O0 -fpre-include=/usr/include/finclude/math-vector-fortran.h
REM seed -1393760773 -223077065 964274783 608237716 -1670269723 1616366348 -1927649027 -1814934392 281227185 1456287835 -860047508 -566562809 -275851896 1643606775 626532174 -1864951097 -1777074510 1126472334 -1825840759 -2064438405 1793120318 -1019159304 -363009350 -1740535870 650915067 -1044852945 454322415 -1601406512 -356998319 -885197643 833620023 587628063 631020959
REM
CELL 1.54180   50.00000   50.00000   50.00000   90.00000   90.00000   90.00000
LATT -1
SFAC C  
C      1  0.5393570000000  0.4634810000000  0.5606930000000 1.0
C      1  0.4291890000000  0.4625800000000  0.4993950000000 1.0
C      1  0.5322510000000  0.4630750000000  0.4378670000000 1.0
C      1  0.4636540000000  0.5375750000000  0.5603740000000 1.0
C      1  0.5736640000000  0.5373900000000  0.5017940000000 1.0
C      1  0.4690870000000  0.5384000000000  0.4371820000000 1.0
C      1  0.4663720000000  0.4746940000000  0.4918670000000 1.0
C      1  0.5237080000000  0.4773390000000  0.4741590000000 1.0
C      1  0.5108770000000  0.4763150000000  0.5360940000000 1.0
C      1  0.5394400000000  0.5224530000000  0.4881420000000 1.0
C      1  0.4748340000000  0.5188310000000  0.4724700000000 1.0
C      1  0.4879630000000  0.5196240000000  0.5341720000000 1.0
C      1  0.5070170000000  0.5088310000000  0.5763190000000 1.0
C      1  0.4315920000000  0.5115040000000  0.4684290000000 1.0
C      1  0.5622700000000  0.5136820000000  0.4551440000000 1.0
C      1  0.4852450000000  0.4908430000000  0.5846730000000 1.0
C      1  0.5724020000000  0.4868730000000  0.4661430000000 1.0
C      1  0.4366070000000  0.4871790000000  0.4513000000000 1.0
C      1  0.4711170000000  0.5051840000000  0.5590780000000 1.0
C      1  0.4629780000000  0.5054940000000  0.4444380000000 1.0
C      1  0.5672830000000  0.5047880000000  0.4937760000000 1.0
C      1  0.5282390000000  0.4947040000000  0.5584700000000 1.0
C      1  0.5363020000000  0.4953440000000  0.4482040000000 1.0
C      1  0.4388770000000  0.4948920000000  0.4946480000000 1.0
C      1  0.5281450000000  0.5299290000000  0.5181980000000 1.0
C      1  0.4674840000000  0.5348330000000  0.5169830000000 1.0
C      1  0.4994820000000  0.5340260000000  0.4626170000000 1.0
C      1  0.4730690000000  0.4662240000000  0.5224020000000 1.0
C      1  0.5327200000000  0.4684760000000  0.5124970000000 1.0
C      1  0.4950140000000  0.4679350000000  0.4642950000000 1.0
C      1  0.5316780000000  0.5384680000000  0.4639720000000 1.0
C      1  0.5088950000000  0.5468430000000  0.5405610000000 1.0
C      1  0.4535190000000  0.5384410000000  0.4880860000000 1.0
C      1  0.4668790000000  0.4515040000000  0.4669740000000 1.0
C      1  0.4890750000000  0.4557770000000  0.5492580000000 1.0
C      1  0.5437030000000  0.4528900000000  0.4856170000000 1.0
C      1  0.4304070000000  0.5476220000000  0.5100900000000 1.0
C      1  0.5259390000000  0.5486120000000  0.4365600000000 1.0
C      1  0.5403870000000  0.5567590000000  0.5490350000000 1.0
C      1  0.5638700000000  0.4436460000000  0.5101820000000 1.0
C      1  0.4808680000000  0.4420020000000  0.4374730000000 1.0
C      1  0.4564410000000  0.4516600000000  0.5555100000000 1.0
C      1  0.5140200000000  0.4483180000000  0.5678420000000 1.0
C      1  0.4375310000000  0.4630880000000  0.4669730000000 1.0
C      1  0.5578690000000  0.4634020000000  0.4593650000000 1.0
C      1  0.4963200000000  0.5351350000000  0.5699030000000 1.0
C      1  0.5717790000000  0.5354060000000  0.4685240000000 1.0
C      1  0.4430060000000  0.5374760000000  0.4574090000000 1.0
C      1  0.4429390000000  0.5113770000000  0.5209760000000 1.0
C      1  0.5112010000000  0.5116340000000  0.4396190000000 1.0
C      1  0.5463620000000  0.5106370000000  0.5385090000000 1.0
C      1  0.5583610000000  0.4887760000000  0.5194970000000 1.0
C      1  0.4895120000000  0.4893940000000  0.4389630000000 1.0
C      1  0.4534310000000  0.4881190000000  0.5394730000000 1.0
C      1  0.5630290000000  0.5400220000000  0.5342070000000 1.0
C      1  0.4358360000000  0.5388300000000  0.5403690000000 1.0
C      1  0.5002300000000  0.5396720000000  0.4234480000000 1.0
C      1  0.4354030000000  0.4598360000000  0.5329280000000 1.0
C      1  0.5624210000000  0.4598290000000  0.5370100000000 1.0
C      1  0.5005200000000  0.4602890000000  0.4258150000000 1.0
C      1  0.4906020000000  0.5692040000000  0.5264720000000 1.0
C      1  0.4865120000000  0.5793730000000  0.4777840000000 1.0
C      1  0.5295290000000  0.5800700000000  0.5008490000000 1.0
C      1  0.5159110000000  0.4212910000000  0.5228440000000 1.0
C      1  0.5115300000000  0.4209370000000  0.4744860000000 1.0
C      1  0.4713990000000  0.4182860000000  0.5024430000000 1.0
C      1  0.5149920000000  0.4419490000000  0.4582070000000 1.0
C      1  0.5307680000000  0.4418710000000  0.5323180000000 1.0
C      1  0.4537030000000  0.4415450000000  0.5102560000000 1.0
C      1  0.4836610000000  0.5612670000000  0.4580700000000 1.0
C      1  0.4614280000000  0.5615910000000  0.5362990000000 1.0
C      1  0.5468150000000  0.5567850000000  0.5087650000000 1.0
C      1  0.5186650000000  0.5005880000000  0.4927240000000 1.0
C      1  0.4859400000000  0.4974960000000  0.4896650000000 1.0
C      1  0.5005930000000  0.4988410000000  0.5185980000000 1.0
C      1  0.4997660000000  0.4157650000000  0.4999640000000 1.0
C      1  0.5009500000000  0.5801980000000  0.5024900000000 1.0
END
