TITL C-2782230-7391-482 -0.00165903532144025 125000 -402.745535427765 0 0 69 (C1) n - 1
REM
REM in /home/nfs/bkarasulu/CARBON/AIRSS/Generating-Clusters/REBO/Higher-Symm/SD-CG/HFTN-CG
REM
REM
REM
REM
REM
REM ./C.cell (12c818d87b63d06a65506943cc24bca4)
REM
REM compiler GCC version 9.2.1 20190827 (Red Hat 9.2.1-1)
REM options -cpp -mtune=generic -march=x86-64 -g -O0 -fpre-include=/usr/include/finclude/math-vector-fortran.h
REM seed -1313450246 384998667 1112597743 -724250269 -350561621 -1241492649 375464187 -1596501243 945870497 -1212511197 265095995 421631373 -130734712 -432847941 -1627001204 236757511 -1465650164 1691408964 -1355282901 1074461928 701703376 -1934239813 1770845942 -293660075 -71360487 -1394545675 -25135601 1307120721 -1326474199 -308175754 933857616 1891653377 1444883154
REM
CELL 1.54180   50.00000   50.00000   50.00000   90.00000   90.00000   90.00000
LATT -1
SFAC C  
C      1  0.5001500000000  0.5621430000000  0.5406670000000 1.0
C      1  0.4993970000000  0.5041130000000  0.4281260000000 1.0
C      1  0.4936830000000  0.4329340000000  0.5290480000000 1.0
C      1  0.5019610000000  0.5614000000000  0.4525410000000 1.0
C      1  0.4999640000000  0.5012310000000  0.5764860000000 1.0
C      1  0.5041970000000  0.4322130000000  0.4710270000000 1.0
C      1  0.4659410000000  0.4619860000000  0.5649180000000 1.0
C      1  0.4705840000000  0.5754260000000  0.4963690000000 1.0
C      1  0.4781250000000  0.4556690000000  0.4318640000000 1.0
C      1  0.5269080000000  0.4612240000000  0.4336740000000 1.0
C      1  0.5286970000000  0.5734970000000  0.4997450000000 1.0
C      1  0.5220010000000  0.4573450000000  0.5612480000000 1.0
C      1  0.4948330000000  0.4060230000000  0.5122200000000 1.0
C      1  0.5050360000000  0.5542500000000  0.5723760000000 1.0
C      1  0.4893530000000  0.5316100000000  0.4142170000000 1.0
C      1  0.4973740000000  0.4059290000000  0.4869260000000 1.0
C      1  0.4895720000000  0.5549520000000  0.4237360000000 1.0
C      1  0.5033980000000  0.5329620000000  0.5851120000000 1.0
C      1  0.4747340000000  0.5435610000000  0.5486350000000 1.0
C      1  0.4746780000000  0.5141250000000  0.4470610000000 1.0
C      1  0.4729900000000  0.4482290000000  0.5106920000000 1.0
C      1  0.5281300000000  0.5441980000000  0.4507070000000 1.0
C      1  0.5257240000000  0.5136250000000  0.5582300000000 1.0
C      1  0.5287060000000  0.4445270000000  0.4876730000000 1.0
C      1  0.5474360000000  0.4633980000000  0.4772850000000 1.0
C      1  0.5489490000000  0.4949990000000  0.5474880000000 1.0
C      1  0.5384600000000  0.5394850000000  0.4813850000000 1.0
C      1  0.4532500000000  0.4708240000000  0.5165910000000 1.0
C      1  0.4579320000000  0.4917390000000  0.4615160000000 1.0
C      1  0.4602920000000  0.5447420000000  0.5197310000000 1.0
C      1  0.5641990000000  0.5055950000000  0.5235620000000 1.0
C      1  0.5562360000000  0.5253440000000  0.4560780000000 1.0
C      1  0.5570230000000  0.4858180000000  0.4986960000000 1.0
C      1  0.4342710000000  0.5040730000000  0.4794960000000 1.0
C      1  0.4457730000000  0.5261660000000  0.5442340000000 1.0
C      1  0.4363380000000  0.4762320000000  0.4913490000000 1.0
C      1  0.4820950000000  0.4872230000000  0.4799740000000 1.0
C      1  0.4709170000000  0.4962540000000  0.5248930000000 1.0
C      1  0.4845740000000  0.5442700000000  0.4964980000000 1.0
C      1  0.5215950000000  0.4792800000000  0.5348490000000 1.0
C      1  0.5316670000000  0.4998320000000  0.4808900000000 1.0
C      1  0.5140430000000  0.5427870000000  0.5048510000000 1.0
C      1  0.5191200000000  0.5120870000000  0.4514890000000 1.0
C      1  0.5164900000000  0.4525900000000  0.5165110000000 1.0
C      1  0.5147050000000  0.5320450000000  0.5342610000000 1.0
C      1  0.4829670000000  0.5136700000000  0.5515900000000 1.0
C      1  0.4897460000000  0.4558260000000  0.4866400000000 1.0
C      1  0.4833440000000  0.5383640000000  0.4658310000000 1.0
C      1  0.5469390000000  0.4731430000000  0.4505610000000 1.0
C      1  0.5528690000000  0.4623130000000  0.5525590000000 1.0
C      1  0.5530940000000  0.5510640000000  0.5073420000000 1.0
C      1  0.4468600000000  0.4748470000000  0.5481330000000 1.0
C      1  0.4554200000000  0.4635940000000  0.4463930000000 1.0
C      1  0.4457130000000  0.5524780000000  0.4923800000000 1.0
C      1  0.5011500000000  0.4749830000000  0.4227980000000 1.0
C      1  0.4925670000000  0.4425720000000  0.5577910000000 1.0
C      1  0.4988180000000  0.5781250000000  0.5153260000000 1.0
C      1  0.4962320000000  0.4720320000000  0.5763320000000 1.0
C      1  0.5041920000000  0.4405680000000  0.4420380000000 1.0
C      1  0.5007880000000  0.5770460000000  0.4804480000000 1.0
C      1  0.4384460000000  0.4567650000000  0.4702180000000 1.0
C      1  0.4384670000000  0.5018380000000  0.5524400000000 1.0
C      1  0.4325340000000  0.5319100000000  0.4811560000000 1.0
C      1  0.5634950000000  0.4656550000000  0.5246970000000 1.0
C      1  0.5577680000000  0.4995590000000  0.4477530000000 1.0
C      1  0.5669530000000  0.5325460000000  0.5208730000000 1.0
C      1  0.5029350000000  0.5011760000000  0.5280660000000 1.0
C      1  0.5001620000000  0.5126800000000  0.4777910000000 1.0
C      1  0.5113480000000  0.4792900000000  0.4959190000000 1.0
END
