TITL C-2782226-7400-163 0.00341796612742226 125000 -957.005861749392 0 0 163 (C1) n - 1
REM
REM in /home/nfs/bkarasulu/CARBON/AIRSS/Generating-Clusters/REBO/Higher-Symm/SD-CG/HFTN-CG
REM
REM
REM
REM
REM
REM ./C.cell (12c818d87b63d06a65506943cc24bca4)
REM
REM compiler GCC version 9.2.1 20190827 (Red Hat 9.2.1-1)
REM options -cpp -mtune=generic -march=x86-64 -g -O0 -fpre-include=/usr/include/finclude/math-vector-fortran.h
REM seed -1205894178 149678621 -1038751890 -479341615 1740749583 1971661721 1618156376 -2021772070 -1731441853 -1308480129 -1097253186 -1051332599 1868060294 28898222 1659552790 -1673496234 -750154095 -1548760466 -270216584 -63834507 1973166064 -1454677922 -1406610026 202600097 -1899982567 -639464574 1712418002 -242026759 -1697354211 -709609274 1099266113 2137569835 1212859441
REM
CELL 1.54180   50.00000   50.00000   50.00000   90.00000   90.00000   90.00000
LATT -1
SFAC C  
C      1  0.4477410000000  0.6124310000000  0.5919000000000 1.0
C      1  0.3896300000000  0.5190160000000  0.5915580000000 1.0
C      1  0.4045040000000  0.4292380000000  0.5925460000000 1.0
C      1  0.4850160000000  0.3716580000000  0.5868270000000 1.0
C      1  0.5976460000000  0.4244950000000  0.5925170000000 1.0
C      1  0.6261900000000  0.5259930000000  0.5910520000000 1.0
C      1  0.5573840000000  0.6077110000000  0.6026300000000 1.0
C      1  0.4673060000000  0.5250840000000  0.4392230000000 1.0
C      1  0.4550510000000  0.4947830000000  0.4470490000000 1.0
C      1  0.4646470000000  0.4627270000000  0.4545060000000 1.0
C      1  0.4974830000000  0.4621330000000  0.4455390000000 1.0
C      1  0.5261100000000  0.4770300000000  0.4406240000000 1.0
C      1  0.5290010000000  0.5084530000000  0.4390390000000 1.0
C      1  0.4996900000000  0.5180280000000  0.4451450000000 1.0
C      1  0.4369930000000  0.5470700000000  0.5382960000000 1.0
C      1  0.4211560000000  0.4812690000000  0.5382400000000 1.0
C      1  0.4686670000000  0.4263190000000  0.5364890000000 1.0
C      1  0.5395150000000  0.4280350000000  0.5430320000000 1.0
C      1  0.5812400000000  0.4847740000000  0.5449300000000 1.0
C      1  0.5659320000000  0.5553880000000  0.5462820000000 1.0
C      1  0.4994370000000  0.5839090000000  0.5420530000000 1.0
C      1  0.5350510000000  0.5102460000000  0.6125860000000 1.0
C      1  0.5160340000000  0.5334720000000  0.6108880000000 1.0
C      1  0.4859700000000  0.5329350000000  0.6076540000000 1.0
C      1  0.4697000000000  0.5081860000000  0.6049590000000 1.0
C      1  0.4776570000000  0.4796100000000  0.6051180000000 1.0
C      1  0.5054630000000  0.4682460000000  0.6034990000000 1.0
C      1  0.5302530000000  0.4812380000000  0.6140420000000 1.0
C      1  0.4711630000000  0.5437550000000  0.4164740000000 1.0
C      1  0.4430270000000  0.5218570000000  0.3988970000000 1.0
C      1  0.4467770000000  0.4700250000000  0.3995050000000 1.0
C      1  0.4923460000000  0.4423390000000  0.4056010000000 1.0
C      1  0.5443850000000  0.4602970000000  0.4237950000000 1.0
C      1  0.5490560000000  0.5135600000000  0.4176620000000 1.0
C      1  0.5282550000000  0.5441930000000  0.4027230000000 1.0
C      1  0.4669590000000  0.4150730000000  0.5057840000000 1.0
C      1  0.5457840000000  0.4198500000000  0.5140080000000 1.0
C      1  0.5888660000000  0.4838770000000  0.5149270000000 1.0
C      1  0.5738940000000  0.5628400000000  0.5162080000000 1.0
C      1  0.4986750000000  0.5885760000000  0.5116500000000 1.0
C      1  0.4255440000000  0.5563170000000  0.5107310000000 1.0
C      1  0.4086470000000  0.4777740000000  0.5105120000000 1.0
C      1  0.4641610000000  0.5504800000000  0.5512260000000 1.0
C      1  0.4466920000000  0.4983030000000  0.5475910000000 1.0
C      1  0.4612620000000  0.4527040000000  0.5495970000000 1.0
C      1  0.5156310000000  0.4326390000000  0.5572690000000 1.0
C      1  0.5547320000000  0.4739970000000  0.5560490000000 1.0
C      1  0.5589470000000  0.5281540000000  0.5573680000000 1.0
C      1  0.5187830000000  0.5646340000000  0.5553920000000 1.0
C      1  0.4760380000000  0.5272980000000  0.3907220000000 1.0
C      1  0.4617640000000  0.4970400000000  0.3874160000000 1.0
C      1  0.4772940000000  0.4675110000000  0.3886600000000 1.0
C      1  0.5096980000000  0.4648830000000  0.3869830000000 1.0
C      1  0.5284970000000  0.4835130000000  0.3821740000000 1.0
C      1  0.5333210000000  0.5126370000000  0.3904970000000 1.0
C      1  0.5047900000000  0.5296760000000  0.3841610000000 1.0
C      1  0.5821240000000  0.4339190000000  0.5745870000000 1.0
C      1  0.6076400000000  0.5205530000000  0.5743910000000 1.0
C      1  0.5521460000000  0.5938580000000  0.5818480000000 1.0
C      1  0.4578420000000  0.5978170000000  0.5735790000000 1.0
C      1  0.4051740000000  0.5194530000000  0.5713230000000 1.0
C      1  0.4166090000000  0.4400950000000  0.5728770000000 1.0
C      1  0.4891970000000  0.3905070000000  0.5701400000000 1.0
C      1  0.5939060000000  0.4381480000000  0.5023780000000 1.0
C      1  0.6061240000000  0.5327260000000  0.5036130000000 1.0
C      1  0.5401670000000  0.5807310000000  0.5044490000000 1.0
C      1  0.4486120000000  0.5997840000000  0.5001970000000 1.0
C      1  0.3891710000000  0.5211200000000  0.4958740000000 1.0
C      1  0.4159160000000  0.4274750000000  0.4956490000000 1.0
C      1  0.5113140000000  0.3880210000000  0.4979800000000 1.0
C      1  0.5490600000000  0.5523460000000  0.4271030000000 1.0
C      1  0.4867760000000  0.5705960000000  0.4257980000000 1.0
C      1  0.4319380000000  0.5430920000000  0.4230540000000 1.0
C      1  0.4267020000000  0.4788240000000  0.4238530000000 1.0
C      1  0.4712070000000  0.4337440000000  0.4280130000000 1.0
C      1  0.5378120000000  0.4332610000000  0.4295250000000 1.0
C      1  0.5765740000000  0.4979080000000  0.4301120000000 1.0
C      1  0.5004010000000  0.5308190000000  0.4759240000000 1.0
C      1  0.4701710000000  0.5223830000000  0.4716800000000 1.0
C      1  0.4628100000000  0.4930570000000  0.4799680000000 1.0
C      1  0.4819360000000  0.4679170000000  0.4817240000000 1.0
C      1  0.5127790000000  0.4642800000000  0.4758600000000 1.0
C      1  0.5343930000000  0.4874140000000  0.4723260000000 1.0
C      1  0.5296440000000  0.5191990000000  0.4713640000000 1.0
C      1  0.5041440000000  0.5885740000000  0.4855910000000 1.0
C      1  0.4292900000000  0.5623900000000  0.4844580000000 1.0
C      1  0.4072530000000  0.4851980000000  0.4847950000000 1.0
C      1  0.4671710000000  0.4204280000000  0.4778450000000 1.0
C      1  0.5421320000000  0.4173920000000  0.4874690000000 1.0
C      1  0.5897470000000  0.4787310000000  0.4886850000000 1.0
C      1  0.5723840000000  0.5572890000000  0.4885530000000 1.0
C      1  0.5312230000000  0.4893290000000  0.5400390000000 1.0
C      1  0.5335030000000  0.5174220000000  0.5404100000000 1.0
C      1  0.5132730000000  0.5369330000000  0.5386870000000 1.0
C      1  0.4858830000000  0.5330950000000  0.5349220000000 1.0
C      1  0.4765670000000  0.5112790000000  0.5207760000000 1.0
C      1  0.4746580000000  0.4815040000000  0.5372470000000 1.0
C      1  0.5078970000000  0.4783660000000  0.5297550000000 1.0
C      1  0.4308810000000  0.4528970000000  0.5496870000000 1.0
C      1  0.4941420000000  0.4128010000000  0.5504040000000 1.0
C      1  0.5638330000000  0.4450250000000  0.5534570000000 1.0
C      1  0.5858580000000  0.5141650000000  0.5548270000000 1.0
C      1  0.5459720000000  0.5775270000000  0.5573480000000 1.0
C      1  0.4696680000000  0.5807070000000  0.5521290000000 1.0
C      1  0.4235950000000  0.5199710000000  0.5473420000000 1.0
C      1  0.4988360000000  0.4378950000000  0.5133150000000 1.0
C      1  0.5473050000000  0.4594380000000  0.5091820000000 1.0
C      1  0.5600950000000  0.5106220000000  0.5075960000000 1.0
C      1  0.5284420000000  0.5541010000000  0.5059160000000 1.0
C      1  0.4744840000000  0.5573580000000  0.5053510000000 1.0
C      1  0.4389100000000  0.5186650000000  0.5098370000000 1.0
C      1  0.4476600000000  0.4640960000000  0.5137640000000 1.0
C      1  0.5009530000000  0.5508650000000  0.4984240000000 1.0
C      1  0.4571850000000  0.5365230000000  0.4965660000000 1.0
C      1  0.4456290000000  0.4915930000000  0.5045190000000 1.0
C      1  0.4746540000000  0.4539810000000  0.5083020000000 1.0
C      1  0.5219340000000  0.4491480000000  0.5009460000000 1.0
C      1  0.5515310000000  0.4850970000000  0.4983230000000 1.0
C      1  0.5436100000000  0.5308670000000  0.4965400000000 1.0
C      1  0.5564860000000  0.5883350000000  0.5283930000000 1.0
C      1  0.4665160000000  0.5845240000000  0.5198210000000 1.0
C      1  0.4090520000000  0.5275890000000  0.5179310000000 1.0
C      1  0.4202440000000  0.4468900000000  0.5184740000000 1.0
C      1  0.4965940000000  0.4051410000000  0.5182900000000 1.0
C      1  0.5705830000000  0.4410320000000  0.5219630000000 1.0
C      1  0.5883570000000  0.5165150000000  0.5223320000000 1.0
C      1  0.4786930000000  0.4673960000000  0.5739590000000 1.0
C      1  0.5107990000000  0.4586450000000  0.5724850000000 1.0
C      1  0.5332330000000  0.4837060000000  0.5794400000000 1.0
C      1  0.5359910000000  0.5178730000000  0.5801070000000 1.0
C      1  0.5112690000000  0.5412450000000  0.5781600000000 1.0
C      1  0.4788200000000  0.5317460000000  0.5741650000000 1.0
C      1  0.4676340000000  0.4996290000000  0.5720770000000 1.0
C      1  0.4183400000000  0.5211800000000  0.4531310000000 1.0
C      1  0.4330550000000  0.4546860000000  0.4545840000000 1.0
C      1  0.5127860000000  0.4150000000000  0.4545160000000 1.0
C      1  0.5716770000000  0.4526640000000  0.4591080000000 1.0
C      1  0.5788090000000  0.5229540000000  0.4610880000000 1.0
C      1  0.5292710000000  0.5695910000000  0.4568050000000 1.0
C      1  0.4615060000000  0.5761280000000  0.4561790000000 1.0
C      1  0.5150780000000  0.3915090000000  0.4735400000000 1.0
C      1  0.5927560000000  0.4405730000000  0.4773010000000 1.0
C      1  0.6024510000000  0.5327970000000  0.4788620000000 1.0
C      1  0.5431460000000  0.5892450000000  0.4776070000000 1.0
C      1  0.4497910000000  0.5955300000000  0.4754880000000 1.0
C      1  0.3943420000000  0.5205600000000  0.4713720000000 1.0
C      1  0.4216800000000  0.4326110000000  0.4720170000000 1.0
C      1  0.4812600000000  0.4240050000000  0.4528650000000 1.0
C      1  0.5457080000000  0.4304280000000  0.4596090000000 1.0
C      1  0.5780260000000  0.4887700000000  0.4629120000000 1.0
C      1  0.5564120000000  0.5490120000000  0.4602570000000 1.0
C      1  0.4955440000000  0.5753980000000  0.4575220000000 1.0
C      1  0.4350320000000  0.5506490000000  0.4562640000000 1.0
C      1  0.4176980000000  0.4845160000000  0.4564130000000 1.0
C      1  0.5176830000000  0.5658840000000  0.4256800000000 1.0
C      1  0.4525080000000  0.5694720000000  0.4256410000000 1.0
C      1  0.4243470000000  0.5096840000000  0.4235690000000 1.0
C      1  0.4437000000000  0.4485480000000  0.4239220000000 1.0
C      1  0.5107870000000  0.4239250000000  0.4226250000000 1.0
C      1  0.5718950000000  0.4668660000000  0.4304470000000 1.0
C      1  0.5744750000000  0.5317990000000  0.4292240000000 1.0
C      1  0.4856480000000  0.4902580000000  0.4350240000000 1.0
C      1  0.4961660000000  0.4936240000000  0.5061190000000 1.0
END
