TITL C-2782230-7391-854 0.00116432416123037 125000 -536.089098772247 0 0 90 (C1) n - 1
REM
REM in /home/nfs/bkarasulu/CARBON/AIRSS/Generating-Clusters/REBO/Higher-Symm/SD-CG/HFTN-CG
REM
REM
REM
REM
REM
REM ./C.cell (12c818d87b63d06a65506943cc24bca4)
REM
REM compiler GCC version 9.2.1 20190827 (Red Hat 9.2.1-1)
REM options -cpp -mtune=generic -march=x86-64 -g -O0 -fpre-include=/usr/include/finclude/math-vector-fortran.h
REM seed -1377315074 -1414300947 1416075888 -636399813 -1035445195 -633949821 -323920753 -1571596150 -116369216 -1524705203 47867663 -1019383295 -77537571 -1817636394 -1601669061 -1042040431 1525986745 -1301851535 1310716551 1453864926 430931126 -788611003 1808290110 -1309248767 -1632996145 -709233318 -72859499 -1643578346 1181616632 262022970 -592132197 -768278031 -233183798
REM
CELL 1.54180   50.00000   50.00000   50.00000   90.00000   90.00000   90.00000
LATT -1
SFAC C  
C      1  0.5578900000000  0.4999120000000  0.4486390000000 1.0
C      1  0.5561190000000  0.5413700000000  0.4755050000000 1.0
C      1  0.5579910000000  0.5448630000000  0.5243510000000 1.0
C      1  0.5719450000000  0.5005430000000  0.5538480000000 1.0
C      1  0.5726990000000  0.4494110000000  0.5317120000000 1.0
C      1  0.5686900000000  0.4485150000000  0.4744750000000 1.0
C      1  0.5117300000000  0.5708090000000  0.5436830000000 1.0
C      1  0.5123650000000  0.4983410000000  0.5862920000000 1.0
C      1  0.5104080000000  0.4295860000000  0.5419780000000 1.0
C      1  0.5107780000000  0.4334850000000  0.4591780000000 1.0
C      1  0.5103240000000  0.5035550000000  0.4148040000000 1.0
C      1  0.5101360000000  0.5762030000000  0.4557450000000 1.0
C      1  0.4614930000000  0.4835030000000  0.4089160000000 1.0
C      1  0.4604890000000  0.5693670000000  0.4369810000000 1.0
C      1  0.4642140000000  0.5878590000000  0.5264950000000 1.0
C      1  0.4634980000000  0.5162120000000  0.5897220000000 1.0
C      1  0.4624750000000  0.4313150000000  0.5596470000000 1.0
C      1  0.4642270000000  0.4148510000000  0.4674540000000 1.0
C      1  0.4749150000000  0.5680900000000  0.4934860000000 1.0
C      1  0.4771110000000  0.5348680000000  0.5531430000000 1.0
C      1  0.4837190000000  0.4752480000000  0.5535880000000 1.0
C      1  0.4791750000000  0.4376570000000  0.5056540000000 1.0
C      1  0.4753630000000  0.4657180000000  0.4419340000000 1.0
C      1  0.4738130000000  0.5316810000000  0.4380330000000 1.0
C      1  0.5059130000000  0.5315790000000  0.4265380000000 1.0
C      1  0.5065920000000  0.5780900000000  0.4860150000000 1.0
C      1  0.5087070000000  0.5453180000000  0.5604240000000 1.0
C      1  0.5106950000000  0.4709820000000  0.5728110000000 1.0
C      1  0.5093350000000  0.4266310000000  0.5109430000000 1.0
C      1  0.5074030000000  0.4570420000000  0.4405840000000 1.0
C      1  0.5070350000000  0.5200270000000  0.4991340000000 1.0
C      1  0.5112280000000  0.5130480000000  0.5287830000000 1.0
C      1  0.5069500000000  0.4862040000000  0.5360310000000 1.0
C      1  0.5197850000000  0.4675040000000  0.5188820000000 1.0
C      1  0.5112550000000  0.4683960000000  0.4897590000000 1.0
C      1  0.5063150000000  0.4968450000000  0.4790220000000 1.0
C      1  0.5417090000000  0.5183250000000  0.5186110000000 1.0
C      1  0.5589870000000  0.4962880000000  0.5272570000000 1.0
C      1  0.5512360000000  0.4694160000000  0.5190200000000 1.0
C      1  0.5452700000000  0.4648230000000  0.4883120000000 1.0
C      1  0.5387950000000  0.4908710000000  0.4719510000000 1.0
C      1  0.5384130000000  0.5188170000000  0.4872720000000 1.0
C      1  0.4297050000000  0.4803930000000  0.4788980000000 1.0
C      1  0.4293450000000  0.5079960000000  0.4710720000000 1.0
C      1  0.4298830000000  0.5286330000000  0.4908360000000 1.0
C      1  0.4310050000000  0.5218840000000  0.5185520000000 1.0
C      1  0.4313460000000  0.4944310000000  0.5265870000000 1.0
C      1  0.4309390000000  0.4738230000000  0.5067550000000 1.0
C      1  0.5551920000000  0.5595320000000  0.4989590000000 1.0
C      1  0.5603900000000  0.5302550000000  0.5518400000000 1.0
C      1  0.5645410000000  0.4695680000000  0.5566420000000 1.0
C      1  0.5659590000000  0.4350320000000  0.5051100000000 1.0
C      1  0.5618160000000  0.4663190000000  0.4504730000000 1.0
C      1  0.5551040000000  0.5288970000000  0.4478460000000 1.0
C      1  0.4519120000000  0.5411280000000  0.5354130000000 1.0
C      1  0.4546180000000  0.4889280000000  0.5504320000000 1.0
C      1  0.4518160000000  0.4496660000000  0.5148680000000 1.0
C      1  0.4499410000000  0.4614090000000  0.4600150000000 1.0
C      1  0.4485630000000  0.5141520000000  0.4445990000000 1.0
C      1  0.4492180000000  0.5541040000000  0.4819480000000 1.0
C      1  0.5348750000000  0.4327240000000  0.5543320000000 1.0
C      1  0.5357450000000  0.4266700000000  0.4684580000000 1.0
C      1  0.5352700000000  0.4922300000000  0.4167120000000 1.0
C      1  0.5340990000000  0.5712730000000  0.4426220000000 1.0
C      1  0.5316780000000  0.5865210000000  0.5296210000000 1.0
C      1  0.5361480000000  0.5122530000000  0.5886380000000 1.0
C      1  0.4940480000000  0.5796630000000  0.5182010000000 1.0
C      1  0.4927850000000  0.5204550000000  0.5786420000000 1.0
C      1  0.4895500000000  0.4445590000000  0.5591570000000 1.0
C      1  0.4909480000000  0.4239240000000  0.4797760000000 1.0
C      1  0.4911990000000  0.4814300000000  0.4187400000000 1.0
C      1  0.4908040000000  0.5599110000000  0.4391670000000 1.0
C      1  0.4697010000000  0.5292000000000  0.4883830000000 1.0
C      1  0.4707760000000  0.5232130000000  0.5155600000000 1.0
C      1  0.4709260000000  0.4967020000000  0.5226240000000 1.0
C      1  0.4707490000000  0.4757600000000  0.5046500000000 1.0
C      1  0.4695350000000  0.4815790000000  0.4776210000000 1.0
C      1  0.4692130000000  0.5083810000000  0.4696330000000 1.0
C      1  0.5349600000000  0.5797230000000  0.5019820000000 1.0
C      1  0.5382080000000  0.5335250000000  0.5695400000000 1.0
C      1  0.5388780000000  0.4588560000000  0.5657320000000 1.0
C      1  0.5382540000000  0.4264350000000  0.4970490000000 1.0
C      1  0.5362140000000  0.4695880000000  0.4341320000000 1.0
C      1  0.5358690000000  0.5442180000000  0.4328150000000 1.0
C      1  0.4468890000000  0.5710350000000  0.5331380000000 1.0
C      1  0.4470240000000  0.5023210000000  0.5767920000000 1.0
C      1  0.4453610000000  0.4356820000000  0.5416000000000 1.0
C      1  0.4457110000000  0.4310610000000  0.4620920000000 1.0
C      1  0.4431370000000  0.4959990000000  0.4206370000000 1.0
C      1  0.4429630000000  0.5657960000000  0.4545010000000 1.0
END
