TITL C-2782240-8521-728 -0.000774925500519366 125000 -545.777434907251 0 0 93 (C1) n - 1
REM
REM in /home/nfs/bkarasulu/CARBON/AIRSS/Generating-Clusters/REBO/Higher-Symm/SD-CG/HFTN-CG
REM
REM
REM
REM
REM
REM ./C.cell (12c818d87b63d06a65506943cc24bca4)
REM
REM compiler GCC version 9.2.1 20190827 (Red Hat 9.2.1-1)
REM options -cpp -mtune=generic -march=x86-64 -g -O0 -fpre-include=/usr/include/finclude/math-vector-fortran.h
REM seed -220833975 1958035678 2133391565 -2122054333 -760026124 549730040 512200378 412536433 -181520965 -746292083 1580917340 1070385975 -836737392 533834875 -1600633433 1930490364 -1814185916 -1303668657 1873243447 -2012226585 1091207209 585295680 -1671873176 1760188357 1753744325 2089182829 1980615477 -1194656729 1257267050 1447512875 -1892783708 1315829802 -1766407067
REM
CELL 1.54180   50.00000   50.00000   50.00000   90.00000   90.00000   90.00000
LATT -1
SFAC C  
C      1  0.4834020000000  0.4468780000000  0.5548470000000 1.0
C      1  0.4801680000000  0.4755740000000  0.4276810000000 1.0
C      1  0.4765680000000  0.5702650000000  0.5186930000000 1.0
C      1  0.5161010000000  0.4514170000000  0.5585730000000 1.0
C      1  0.5130720000000  0.4781170000000  0.4281940000000 1.0
C      1  0.5096860000000  0.5766560000000  0.5154810000000 1.0
C      1  0.4885470000000  0.4492110000000  0.4430890000000 1.0
C      1  0.4854500000000  0.4743890000000  0.5700060000000 1.0
C      1  0.4812760000000  0.5721080000000  0.4877410000000 1.0
C      1  0.5217070000000  0.4506700000000  0.4430040000000 1.0
C      1  0.5179440000000  0.4788810000000  0.5748850000000 1.0
C      1  0.5139400000000  0.5769740000000  0.4830530000000 1.0
C      1  0.5408940000000  0.5631580000000  0.4422140000000 1.0
C      1  0.5452120000000  0.5193040000000  0.5844170000000 1.0
C      1  0.5364220000000  0.4155740000000  0.4734860000000 1.0
C      1  0.4595710000000  0.5663930000000  0.4466210000000 1.0
C      1  0.4633770000000  0.5161420000000  0.5841670000000 1.0
C      1  0.4565300000000  0.4194750000000  0.4696150000000 1.0
C      1  0.5439480000000  0.5671760000000  0.5533540000000 1.0
C      1  0.5447320000000  0.5140290000000  0.4134840000000 1.0
C      1  0.5362660000000  0.4163990000000  0.5296020000000 1.0
C      1  0.4603860000000  0.5655490000000  0.5549490000000 1.0
C      1  0.4621940000000  0.5176020000000  0.4164870000000 1.0
C      1  0.4554630000000  0.4178480000000  0.5257230000000 1.0
C      1  0.4812000000000  0.4185160000000  0.4551680000000 1.0
C      1  0.4862520000000  0.5774900000000  0.4544520000000 1.0
C      1  0.4890790000000  0.5022600000000  0.5892760000000 1.0
C      1  0.5130240000000  0.4207920000000  0.4565410000000 1.0
C      1  0.5178760000000  0.5793770000000  0.4493610000000 1.0
C      1  0.5212910000000  0.5060660000000  0.5938970000000 1.0
C      1  0.4792950000000  0.4169340000000  0.5416020000000 1.0
C      1  0.4884550000000  0.5782540000000  0.5491720000000 1.0
C      1  0.4878640000000  0.5027670000000  0.4091460000000 1.0
C      1  0.5114490000000  0.4206420000000  0.5445270000000 1.0
C      1  0.5196820000000  0.5815060000000  0.5477730000000 1.0
C      1  0.5194300000000  0.5028740000000  0.4065940000000 1.0
C      1  0.5435150000000  0.4786540000000  0.4867060000000 1.0
C      1  0.5413310000000  0.5303330000000  0.4847450000000 1.0
C      1  0.5397400000000  0.5043520000000  0.5318310000000 1.0
C      1  0.4618050000000  0.4710140000000  0.4844040000000 1.0
C      1  0.4572570000000  0.5229010000000  0.4841690000000 1.0
C      1  0.4551190000000  0.4976970000000  0.5309220000000 1.0
C      1  0.5425960000000  0.4779870000000  0.5161140000000 1.0
C      1  0.5379280000000  0.5293580000000  0.5168970000000 1.0
C      1  0.5412410000000  0.5045050000000  0.4701740000000 1.0
C      1  0.4605300000000  0.4710120000000  0.5134840000000 1.0
C      1  0.4526770000000  0.5239290000000  0.5155530000000 1.0
C      1  0.4575240000000  0.4982360000000  0.4683960000000 1.0
C      1  0.4831860000000  0.4518760000000  0.5230400000000 1.0
C      1  0.4803280000000  0.5014680000000  0.4480910000000 1.0
C      1  0.4752900000000  0.5408260000000  0.5274760000000 1.0
C      1  0.5228580000000  0.4538330000000  0.5259720000000 1.0
C      1  0.5199860000000  0.5044860000000  0.4462890000000 1.0
C      1  0.5146530000000  0.5467030000000  0.5294900000000 1.0
C      1  0.4851050000000  0.4524650000000  0.4753530000000 1.0
C      1  0.4786140000000  0.5000820000000  0.5509960000000 1.0
C      1  0.4784550000000  0.5431530000000  0.4729800000000 1.0
C      1  0.5249120000000  0.4537880000000  0.4753630000000 1.0
C      1  0.5181230000000  0.5042340000000  0.5544150000000 1.0
C      1  0.5181050000000  0.5464800000000  0.4713900000000 1.0
C      1  0.4312500000000  0.5426290000000  0.4874290000000 1.0
C      1  0.4288290000000  0.4911390000000  0.5489560000000 1.0
C      1  0.4338680000000  0.4661890000000  0.4672830000000 1.0
C      1  0.5702990000000  0.5456990000000  0.4815610000000 1.0
C      1  0.5673240000000  0.4904020000000  0.5446890000000 1.0
C      1  0.5645090000000  0.4582740000000  0.4723900000000 1.0
C      1  0.4268220000000  0.5438990000000  0.5189300000000 1.0
C      1  0.4298910000000  0.4927800000000  0.4513940000000 1.0
C      1  0.4320490000000  0.4652670000000  0.5299370000000 1.0
C      1  0.5663270000000  0.5452300000000  0.5120920000000 1.0
C      1  0.5665080000000  0.4877680000000  0.4555500000000 1.0
C      1  0.5656840000000  0.4596900000000  0.5301360000000 1.0
C      1  0.4412100000000  0.5441850000000  0.5480660000000 1.0
C      1  0.4383870000000  0.4378200000000  0.5128280000000 1.0
C      1  0.4423070000000  0.5199270000000  0.4384810000000 1.0
C      1  0.5617850000000  0.5456200000000  0.5444010000000 1.0
C      1  0.5565800000000  0.4330480000000  0.5163940000000 1.0
C      1  0.5609740000000  0.5161490000000  0.4375710000000 1.0
C      1  0.4413660000000  0.5449330000000  0.4549850000000 1.0
C      1  0.4387610000000  0.4384620000000  0.4830540000000 1.0
C      1  0.4429070000000  0.5183330000000  0.5629050000000 1.0
C      1  0.5598250000000  0.5426140000000  0.4515050000000 1.0
C      1  0.5568170000000  0.4323570000000  0.4863420000000 1.0
C      1  0.5623950000000  0.5201240000000  0.5605530000000 1.0
C      1  0.5027100000000  0.4761610000000  0.5142070000000 1.0
C      1  0.5036670000000  0.4763330000000  0.4858100000000 1.0
C      1  0.5003670000000  0.5243740000000  0.4866910000000 1.0
C      1  0.4984850000000  0.5239490000000  0.5139120000000 1.0
C      1  0.5015910000000  0.5000200000000  0.4722100000000 1.0
C      1  0.5002830000000  0.4995690000000  0.5280410000000 1.0
C      1  0.4956050000000  0.5301100000000  0.5530560000000 1.0
C      1  0.4982570000000  0.5310540000000  0.4476110000000 1.0
C      1  0.5055110000000  0.4392580000000  0.4999070000000 1.0
END
