TITL C-2782239-8622-1310 0.00122815693056587 125000 -611.189709655032 0 0 101 (C1) n - 1
REM
REM in /home/nfs/bkarasulu/CARBON/AIRSS/Generating-Clusters/REBO/Higher-Symm/SD-CG/HFTN-CG
REM
REM
REM
REM
REM
REM ./C.cell (12c818d87b63d06a65506943cc24bca4)
REM
REM compiler GCC version 9.2.1 20190827 (Red Hat 9.2.1-1)
REM options -cpp -mtune=generic -march=x86-64 -g -O0 -fpre-include=/usr/include/finclude/math-vector-fortran.h
REM seed -815644241 1606811142 529632951 311772107 210699004 1981080386 -1956310186 -1480773902 1138255376 -2131798486 846966268 -585782405 -2017380559 -864689812 1878820497 885775282 -485247559 1894628682 1922489941 -751944640 -611626077 -585097688 -1029645153 226840664 1078051879 -162039499 -1381914310 -1851755119 1784263766 1115023790 -651409862 -1716526589 -860297450
REM
CELL 1.54180   50.00000   50.00000   50.00000   90.00000   90.00000   90.00000
LATT -1
SFAC C  
C      1  0.4157460000000  0.4965620000000  0.5019230000000 1.0
C      1  0.4757700000000  0.4191990000000  0.5017060000000 1.0
C      1  0.5683970000000  0.4520330000000  0.5020050000000 1.0
C      1  0.5698510000000  0.5525510000000  0.5003720000000 1.0
C      1  0.4762950000000  0.5888570000000  0.5048430000000 1.0
C      1  0.4784710000000  0.5153330000000  0.5201830000000 1.0
C      1  0.4756850000000  0.4845980000000  0.5138410000000 1.0
C      1  0.5061440000000  0.4719070000000  0.5124910000000 1.0
C      1  0.5277190000000  0.4972410000000  0.5153380000000 1.0
C      1  0.5083810000000  0.5236010000000  0.5229580000000 1.0
C      1  0.5092980000000  0.5128130000000  0.4816990000000 1.0
C      1  0.4835200000000  0.5173180000000  0.4805700000000 1.0
C      1  0.4694220000000  0.4996720000000  0.4598940000000 1.0
C      1  0.4882550000000  0.4707760000000  0.4598830000000 1.0
C      1  0.5172060000000  0.4885520000000  0.4633340000000 1.0
C      1  0.5120750000000  0.5536050000000  0.4309100000000 1.0
C      1  0.4546440000000  0.5300340000000  0.4300490000000 1.0
C      1  0.4606060000000  0.4659460000000  0.4406610000000 1.0
C      1  0.5229250000000  0.4531590000000  0.4365040000000 1.0
C      1  0.5524870000000  0.5057280000000  0.4353420000000 1.0
C      1  0.4749840000000  0.5171530000000  0.4139620000000 1.0
C      1  0.4802230000000  0.4848260000000  0.4233330000000 1.0
C      1  0.5122200000000  0.4759610000000  0.4223400000000 1.0
C      1  0.5285590000000  0.5001570000000  0.4199400000000 1.0
C      1  0.5074000000000  0.5259430000000  0.4197510000000 1.0
C      1  0.5524100000000  0.5037280000000  0.5346830000000 1.0
C      1  0.5113720000000  0.5505270000000  0.5386840000000 1.0
C      1  0.4546340000000  0.5267550000000  0.5373780000000 1.0
C      1  0.4601300000000  0.4658010000000  0.5349140000000 1.0
C      1  0.5199350000000  0.4513950000000  0.5340850000000 1.0
C      1  0.5847290000000  0.4872310000000  0.4732670000000 1.0
C      1  0.5359870000000  0.5720960000000  0.4700000000000 1.0
C      1  0.4496740000000  0.5593470000000  0.4698870000000 1.0
C      1  0.4225960000000  0.4578450000000  0.4759760000000 1.0
C      1  0.5145600000000  0.4137160000000  0.4731200000000 1.0
C      1  0.5137030000000  0.4531790000000  0.5663580000000 1.0
C      1  0.5506360000000  0.4989270000000  0.5672960000000 1.0
C      1  0.5189920000000  0.5479780000000  0.5694720000000 1.0
C      1  0.4606830000000  0.5315900000000  0.5688560000000 1.0
C      1  0.4598000000000  0.4731560000000  0.5671500000000 1.0
C      1  0.5504080000000  0.4577750000000  0.4443090000000 1.0
C      1  0.5547710000000  0.5337150000000  0.4423430000000 1.0
C      1  0.4873910000000  0.5665390000000  0.4369370000000 1.0
C      1  0.4351080000000  0.5115660000000  0.4404360000000 1.0
C      1  0.4763420000000  0.4367840000000  0.4426660000000 1.0
C      1  0.4747850000000  0.4396320000000  0.4825290000000 1.0
C      1  0.5476350000000  0.4570270000000  0.4841710000000 1.0
C      1  0.5551570000000  0.5291090000000  0.4908400000000 1.0
C      1  0.4885360000000  0.5634980000000  0.4938820000000 1.0
C      1  0.4348990000000  0.5036280000000  0.4795010000000 1.0
C      1  0.5089640000000  0.5246950000000  0.5816550000000 1.0
C      1  0.4810490000000  0.5159990000000  0.5806070000000 1.0
C      1  0.4810860000000  0.4870240000000  0.5788750000000 1.0
C      1  0.5083630000000  0.4778870000000  0.5784150000000 1.0
C      1  0.5256010000000  0.5009360000000  0.5798740000000 1.0
C      1  0.5614530000000  0.5050020000000  0.4807680000000 1.0
C      1  0.5156360000000  0.5599520000000  0.4886980000000 1.0
C      1  0.4426510000000  0.5318280000000  0.4803670000000 1.0
C      1  0.4526370000000  0.4550580000000  0.4788920000000 1.0
C      1  0.5265190000000  0.4410870000000  0.4784830000000 1.0
C      1  0.5258790000000  0.5325360000000  0.4966980000000 1.0
C      1  0.4705100000000  0.5391810000000  0.4973230000000 1.0
C      1  0.4600760000000  0.4832300000000  0.4864780000000 1.0
C      1  0.5015110000000  0.4566490000000  0.4849630000000 1.0
C      1  0.5385150000000  0.4857920000000  0.4851810000000 1.0
C      1  0.4871530000000  0.5721890000000  0.5328130000000 1.0
C      1  0.4266760000000  0.5096190000000  0.5294560000000 1.0
C      1  0.4679170000000  0.4329960000000  0.5296930000000 1.0
C      1  0.5536920000000  0.4486280000000  0.5300470000000 1.0
C      1  0.5645800000000  0.5350590000000  0.5291510000000 1.0
C      1  0.4960220000000  0.4275180000000  0.5417280000000 1.0
C      1  0.5679050000000  0.4736830000000  0.5419560000000 1.0
C      1  0.5449890000000  0.5572070000000  0.5406980000000 1.0
C      1  0.4601940000000  0.5605990000000  0.5416250000000 1.0
C      1  0.4299360000000  0.4812820000000  0.5423020000000 1.0
C      1  0.4551830000000  0.5602010000000  0.5748250000000 1.0
C      1  0.4316610000000  0.4788890000000  0.5753300000000 1.0
C      1  0.4994950000000  0.4283160000000  0.5747130000000 1.0
C      1  0.5700140000000  0.4775200000000  0.5748570000000 1.0
C      1  0.5452260000000  0.5610120000000  0.5740350000000 1.0
C      1  0.5890630000000  0.4721720000000  0.4988620000000 1.0
C      1  0.5528520000000  0.5756240000000  0.4958440000000 1.0
C      1  0.4502880000000  0.5751130000000  0.4953080000000 1.0
C      1  0.4113690000000  0.4680720000000  0.5007410000000 1.0
C      1  0.5015940000000  0.4059260000000  0.4991130000000 1.0
C      1  0.5160520000000  0.4114950000000  0.5236530000000 1.0
C      1  0.5889830000000  0.4877240000000  0.5232940000000 1.0
C      1  0.5380740000000  0.5803010000000  0.5201280000000 1.0
C      1  0.4390390000000  0.5611320000000  0.5184330000000 1.0
C      1  0.4207300000000  0.4566920000000  0.5254380000000 1.0
C      1  0.5418620000000  0.4183710000000  0.5287910000000 1.0
C      1  0.5901470000000  0.5146050000000  0.5272460000000 1.0
C      1  0.5129710000000  0.5903620000000  0.5231910000000 1.0
C      1  0.4210700000000  0.5408870000000  0.5209020000000 1.0
C      1  0.4356290000000  0.4345180000000  0.5303690000000 1.0
C      1  0.5045310000000  0.4319120000000  0.4466050000000 1.0
C      1  0.5652610000000  0.4824410000000  0.4480480000000 1.0
C      1  0.5369670000000  0.5565240000000  0.4451130000000 1.0
C      1  0.4617000000000  0.5554750000000  0.4435410000000 1.0
C      1  0.4351620000000  0.4805920000000  0.4537610000000 1.0
C      1  0.4976520000000  0.5059760000000  0.4441750000000 1.0
END
