TITL C-2782227-3064-144 -0.000647621317311978 125000 -1149.01781714292 0 0 196 (C1) n - 1
REM
REM in /home/nfs/bkarasulu/CARBON/AIRSS/Generating-Clusters/REBO/Higher-Symm/SD-CG/HFTN-CG
REM
REM
REM
REM
REM
REM ./C.cell (12c818d87b63d06a65506943cc24bca4)
REM
REM compiler GCC version 9.2.1 20190827 (Red Hat 9.2.1-1)
REM options -cpp -mtune=generic -march=x86-64 -g -O0 -fpre-include=/usr/include/finclude/math-vector-fortran.h
REM seed 769913126 -876111710 -548405509 357946161 -1574520743 -1752974135 515446834 -1710779302 -1577642420 -453461424 -149297595 -878232763 -1004966290 -596603431 -1698803601 -1044582360 1627451382 117847238 1107085969 -1353377670 -1234572498 1237297912 1823179681 -1329054965 -1212126918 834543023 -1866450983 -1985408205 1162590422 -1824564038 1306857293 -1769109385 984308195
REM
CELL 1.54180   50.00000   50.00000   50.00000   90.00000   90.00000   90.00000
LATT -1
SFAC C  
C      1  0.5832750000000  0.5649100000000  0.4784170000000 1.0
C      1  0.5890610000000  0.5376600000000  0.5590440000000 1.0
C      1  0.5860250000000  0.4518620000000  0.5572860000000 1.0
C      1  0.5879120000000  0.4318750000000  0.4782660000000 1.0
C      1  0.5907500000000  0.4999060000000  0.4347330000000 1.0
C      1  0.4103020000000  0.5668290000000  0.4844630000000 1.0
C      1  0.4090810000000  0.5362660000000  0.5588830000000 1.0
C      1  0.4120110000000  0.4557430000000  0.5552100000000 1.0
C      1  0.4118400000000  0.4326570000000  0.4776830000000 1.0
C      1  0.4076040000000  0.5037680000000  0.4302650000000 1.0
C      1  0.4764040000000  0.3847440000000  0.5023290000000 1.0
C      1  0.4699390000000  0.4706670000000  0.3942530000000 1.0
C      1  0.4731070000000  0.5880520000000  0.4385290000000 1.0
C      1  0.4678490000000  0.5914200000000  0.5624410000000 1.0
C      1  0.4673010000000  0.4708480000000  0.6074930000000 1.0
C      1  0.5274300000000  0.3854020000000  0.5069140000000 1.0
C      1  0.5289870000000  0.4670300000000  0.3901220000000 1.0
C      1  0.5251980000000  0.5941720000000  0.4288520000000 1.0
C      1  0.5274370000000  0.5822070000000  0.5632790000000 1.0
C      1  0.5254160000000  0.4664880000000  0.6013970000000 1.0
C      1  0.5167160000000  0.5350380000000  0.5519740000000 1.0
C      1  0.5157530000000  0.4648310000000  0.5520740000000 1.0
C      1  0.5140330000000  0.4388400000000  0.4646680000000 1.0
C      1  0.5086140000000  0.5003350000000  0.4232640000000 1.0
C      1  0.5151620000000  0.5614420000000  0.4897870000000 1.0
C      1  0.4831240000000  0.5404330000000  0.5488960000000 1.0
C      1  0.4863330000000  0.4540020000000  0.5423840000000 1.0
C      1  0.4824870000000  0.4518760000000  0.4647690000000 1.0
C      1  0.4812040000000  0.5006770000000  0.4365500000000 1.0
C      1  0.4824830000000  0.5586060000000  0.4805260000000 1.0
C      1  0.4531560000000  0.4361180000000  0.5042270000000 1.0
C      1  0.4422860000000  0.4774630000000  0.4467220000000 1.0
C      1  0.4430000000000  0.5401620000000  0.4595600000000 1.0
C      1  0.4526480000000  0.5534200000000  0.5264870000000 1.0
C      1  0.4536410000000  0.4919670000000  0.5571050000000 1.0
C      1  0.5437040000000  0.4372740000000  0.5091680000000 1.0
C      1  0.5509900000000  0.4714710000000  0.4444880000000 1.0
C      1  0.5452360000000  0.5297600000000  0.4529470000000 1.0
C      1  0.5548470000000  0.5498090000000  0.5207630000000 1.0
C      1  0.5546630000000  0.4919790000000  0.5560250000000 1.0
C      1  0.4851030000000  0.4910980000000  0.6235220000000 1.0
C      1  0.4866140000000  0.3848350000000  0.5296260000000 1.0
C      1  0.4858720000000  0.4466450000000  0.4006660000000 1.0
C      1  0.4841730000000  0.5803520000000  0.4100290000000 1.0
C      1  0.4867820000000  0.6125270000000  0.5486910000000 1.0
C      1  0.5130180000000  0.4886610000000  0.6207790000000 1.0
C      1  0.5141720000000  0.3864640000000  0.5320640000000 1.0
C      1  0.5127110000000  0.4427970000000  0.3973250000000 1.0
C      1  0.5122290000000  0.5800960000000  0.4070890000000 1.0
C      1  0.5146230000000  0.6084000000000  0.5493700000000 1.0
C      1  0.4863100000000  0.4572450000000  0.5087150000000 1.0
C      1  0.4909120000000  0.4827920000000  0.4774280000000 1.0
C      1  0.4818290000000  0.5208390000000  0.4613820000000 1.0
C      1  0.4856680000000  0.5332980000000  0.5031060000000 1.0
C      1  0.4876140000000  0.5077430000000  0.5439680000000 1.0
C      1  0.5162330000000  0.4645100000000  0.5181530000000 1.0
C      1  0.5165960000000  0.4721880000000  0.4640920000000 1.0
C      1  0.5116310000000  0.5324260000000  0.4730430000000 1.0
C      1  0.5175680000000  0.5375040000000  0.5122280000000 1.0
C      1  0.5192550000000  0.5031760000000  0.5414290000000 1.0
C      1  0.5495310000000  0.4038820000000  0.5080830000000 1.0
C      1  0.5527880000000  0.4700670000000  0.4099290000000 1.0
C      1  0.5488720000000  0.5799150000000  0.4381460000000 1.0
C      1  0.5479030000000  0.5694040000000  0.5481210000000 1.0
C      1  0.5459280000000  0.4750570000000  0.5844470000000 1.0
C      1  0.4528610000000  0.4018950000000  0.5018290000000 1.0
C      1  0.4492360000000  0.4725300000000  0.4136680000000 1.0
C      1  0.4522940000000  0.5707060000000  0.4473420000000 1.0
C      1  0.4468360000000  0.5789970000000  0.5485940000000 1.0
C      1  0.4482490000000  0.4797480000000  0.5887660000000 1.0
C      1  0.5442730000000  0.4965250000000  0.5253760000000 1.0
C      1  0.5469110000000  0.4709930000000  0.5042620000000 1.0
C      1  0.5431580000000  0.4845100000000  0.4749530000000 1.0
C      1  0.5501450000000  0.5142460000000  0.4783210000000 1.0
C      1  0.5435250000000  0.5219080000000  0.5084650000000 1.0
C      1  0.4625010000000  0.4943980000000  0.5252420000000 1.0
C      1  0.4558240000000  0.4706230000000  0.5016980000000 1.0
C      1  0.4591840000000  0.4871450000000  0.4724710000000 1.0
C      1  0.4556970000000  0.5182610000000  0.4789090000000 1.0
C      1  0.4543790000000  0.5238250000000  0.5122250000000 1.0
C      1  0.5158650000000  0.4282060000000  0.6068660000000 1.0
C      1  0.5182870000000  0.3772160000000  0.4564000000000 1.0
C      1  0.5182600000000  0.5035630000000  0.3745850000000 1.0
C      1  0.5122680000000  0.6199710000000  0.4712260000000 1.0
C      1  0.5135340000000  0.5676850000000  0.5990670000000 1.0
C      1  0.4822750000000  0.4256370000000  0.6022190000000 1.0
C      1  0.4858100000000  0.3850920000000  0.4597920000000 1.0
C      1  0.4842180000000  0.5065950000000  0.3773010000000 1.0
C      1  0.4794080000000  0.6202900000000  0.4649850000000 1.0
C      1  0.4801530000000  0.5729600000000  0.6025380000000 1.0
C      1  0.4569180000000  0.5259490000000  0.5618760000000 1.0
C      1  0.4548250000000  0.4424220000000  0.5381570000000 1.0
C      1  0.4528170000000  0.4484180000000  0.4596170000000 1.0
C      1  0.4535880000000  0.5205460000000  0.4334520000000 1.0
C      1  0.4587760000000  0.5701460000000  0.4972660000000 1.0
C      1  0.5438050000000  0.5228630000000  0.5660000000000 1.0
C      1  0.5425620000000  0.4468130000000  0.5423370000000 1.0
C      1  0.5452500000000  0.4393140000000  0.4549900000000 1.0
C      1  0.5635570000000  0.5287080000000  0.4293510000000 1.0
C      1  0.5454200000000  0.5710130000000  0.4956370000000 1.0
C      1  0.5990100000000  0.5121170000000  0.5644110000000 1.0
C      1  0.5954610000000  0.4378780000000  0.5333830000000 1.0
C      1  0.5977460000000  0.4499010000000  0.4568200000000 1.0
C      1  0.6006560000000  0.5262400000000  0.4433100000000 1.0
C      1  0.5877950000000  0.5668230000000  0.5057640000000 1.0
C      1  0.4014080000000  0.5086990000000  0.5656890000000 1.0
C      1  0.4027410000000  0.4403280000000  0.5316850000000 1.0
C      1  0.4000160000000  0.4498670000000  0.4567200000000 1.0
C      1  0.3972880000000  0.5270260000000  0.4420690000000 1.0
C      1  0.4012690000000  0.5629390000000  0.5117130000000 1.0
C      1  0.5567770000000  0.5886220000000  0.5225710000000 1.0
C      1  0.5563320000000  0.5052530000000  0.5927200000000 1.0
C      1  0.5555500000000  0.4150090000000  0.5389440000000 1.0
C      1  0.5557350000000  0.4403860000000  0.4227810000000 1.0
C      1  0.5524700000000  0.5553920000000  0.4231790000000 1.0
C      1  0.4415340000000  0.5905340000000  0.5189900000000 1.0
C      1  0.4437230000000  0.5113920000000  0.5899180000000 1.0
C      1  0.4429060000000  0.4108450000000  0.5317280000000 1.0
C      1  0.4432580000000  0.4435210000000  0.4272110000000 1.0
C      1  0.4413570000000  0.5509140000000  0.4224250000000 1.0
C      1  0.5807670000000  0.5176980000000  0.4851650000000 1.0
C      1  0.5863230000000  0.5170990000000  0.5150470000000 1.0
C      1  0.5861300000000  0.4925740000000  0.5252520000000 1.0
C      1  0.5794900000000  0.4712620000000  0.5041590000000 1.0
C      1  0.5886400000000  0.4883970000000  0.4801970000000 1.0
C      1  0.4135620000000  0.5164280000000  0.4859870000000 1.0
C      1  0.4219320000000  0.5201270000000  0.5149790000000 1.0
C      1  0.4166380000000  0.4918730000000  0.5252460000000 1.0
C      1  0.4228980000000  0.4724820000000  0.5023850000000 1.0
C      1  0.4136660000000  0.4907430000000  0.4791400000000 1.0
C      1  0.5239410000000  0.4117500000000  0.5471770000000 1.0
C      1  0.5255110000000  0.4284150000000  0.4219950000000 1.0
C      1  0.5237950000000  0.5521120000000  0.4102190000000 1.0
C      1  0.5242210000000  0.5908830000000  0.5244270000000 1.0
C      1  0.5239050000000  0.5060960000000  0.5962960000000 1.0
C      1  0.4723720000000  0.4071180000000  0.5448160000000 1.0
C      1  0.4748990000000  0.4373660000000  0.4282370000000 1.0
C      1  0.4733770000000  0.5521310000000  0.4190490000000 1.0
C      1  0.4733800000000  0.5980940000000  0.5233980000000 1.0
C      1  0.4738020000000  0.5116160000000  0.6026890000000 1.0
C      1  0.4119270000000  0.5408040000000  0.4671160000000 1.0
C      1  0.4084270000000  0.5422740000000  0.5301580000000 1.0
C      1  0.4087450000000  0.4850320000000  0.5511160000000 1.0
C      1  0.4102280000000  0.4451650000000  0.5043670000000 1.0
C      1  0.4109270000000  0.4795210000000  0.4505710000000 1.0
C      1  0.5912310000000  0.5395360000000  0.4671820000000 1.0
C      1  0.5862270000000  0.5441200000000  0.5293560000000 1.0
C      1  0.5860790000000  0.4831850000000  0.5552330000000 1.0
C      1  0.5902900000000  0.4433210000000  0.5055680000000 1.0
C      1  0.5939200000000  0.4784430000000  0.4546540000000 1.0
C      1  0.5326800000000  0.5040730000000  0.4047230000000 1.0
C      1  0.5418880000000  0.6071480000000  0.4790870000000 1.0
C      1  0.5427120000000  0.5545490000000  0.5902330000000 1.0
C      1  0.5425520000000  0.4307380000000  0.5874860000000 1.0
C      1  0.5412270000000  0.4003630000000  0.4625170000000 1.0
C      1  0.4558200000000  0.5076400000000  0.3959430000000 1.0
C      1  0.4541160000000  0.6051910000000  0.4789100000000 1.0
C      1  0.4561860000000  0.5538320000000  0.5904110000000 1.0
C      1  0.4546730000000  0.4344360000000  0.5844410000000 1.0
C      1  0.4573020000000  0.4021470000000  0.4623800000000 1.0
C      1  0.4813260000000  0.5685460000000  0.5316250000000 1.0
C      1  0.4813170000000  0.4975460000000  0.5755680000000 1.0
C      1  0.4826150000000  0.4237670000000  0.5168220000000 1.0
C      1  0.4892060000000  0.4676350000000  0.4354770000000 1.0
C      1  0.4866320000000  0.5502710000000  0.4477880000000 1.0
C      1  0.5119550000000  0.5624590000000  0.5321620000000 1.0
C      1  0.5117290000000  0.4907390000000  0.5709680000000 1.0
C      1  0.5126870000000  0.4304660000000  0.5218740000000 1.0
C      1  0.5208240000000  0.4607600000000  0.4320370000000 1.0
C      1  0.5190040000000  0.5445990000000  0.4421490000000 1.0
C      1  0.4806820000000  0.5302870000000  0.4006710000000 1.0
C      1  0.4837430000000  0.6070000000000  0.4960610000000 1.0
C      1  0.4851040000000  0.5397760000000  0.6024090000000 1.0
C      1  0.4801470000000  0.4163550000000  0.5708360000000 1.0
C      1  0.4829420000000  0.4134720000000  0.4428990000000 1.0
C      1  0.5117850000000  0.5292680000000  0.3953510000000 1.0
C      1  0.5155070000000  0.6028340000000  0.4993030000000 1.0
C      1  0.5165220000000  0.5345840000000  0.5982290000000 1.0
C      1  0.5130960000000  0.4182290000000  0.5747290000000 1.0
C      1  0.5156430000000  0.4073510000000  0.4407540000000 1.0
C      1  0.5634830000000  0.4187790000000  0.4697480000000 1.0
C      1  0.5639660000000  0.4999850000000  0.4155340000000 1.0
C      1  0.5583710000000  0.5826880000000  0.4670100000000 1.0
C      1  0.5662290000000  0.5454450000000  0.5741370000000 1.0
C      1  0.5603560000000  0.4415800000000  0.5680390000000 1.0
C      1  0.4387080000000  0.4228500000000  0.4695500000000 1.0
C      1  0.4309310000000  0.5077160000000  0.4138720000000 1.0
C      1  0.4332780000000  0.5833890000000  0.4810220000000 1.0
C      1  0.4324710000000  0.5450040000000  0.5738420000000 1.0
C      1  0.4384280000000  0.4463620000000  0.5640900000000 1.0
C      1  0.5050320000000  0.3788110000000  0.4865930000000 1.0
C      1  0.4950160000000  0.4544830000000  0.6108410000000 1.0
C      1  0.4967320000000  0.5865570000000  0.5774250000000 1.0
C      1  0.5016270000000  0.6057460000000  0.4441960000000 1.0
C      1  0.4988580000000  0.4765140000000  0.3775110000000 1.0
C      1  0.5022170000000  0.5065090000000  0.4923610000000 1.0
END
