TITL C-2782226-7400-1379 -0.00139276865211163 125000 -714.375924463191 0 0 120 (C1) n - 1
REM
REM in /home/nfs/bkarasulu/CARBON/AIRSS/Generating-Clusters/REBO/Higher-Symm/SD-CG/HFTN-CG
REM
REM
REM
REM
REM
REM ./C.cell (12c818d87b63d06a65506943cc24bca4)
REM
REM compiler GCC version 9.2.1 20190827 (Red Hat 9.2.1-1)
REM options -cpp -mtune=generic -march=x86-64 -g -O0 -fpre-include=/usr/include/finclude/math-vector-fortran.h
REM seed -1342040420 641005148 -432599677 -1265983859 2109811771 -571193043 -1847063129 -938624452 -2035896456 -463522888 -474426332 -458023955 2040681839 29766756 -356231902 -115369135 -2044663403 782597787 -41899616 -1842252643 -1912515319 799478813 1190758749 -1964536507 2037452118 1176798041 1549389943 1820778770 -992669436 -1626165883 -1646691728 1123188140 102507121
REM
CELL 1.54180   50.00000   50.00000   50.00000   90.00000   90.00000   90.00000
LATT -1
SFAC C  
C      1  0.4542260000000  0.5254300000000  0.5132740000000 1.0
C      1  0.4601500000000  0.4641780000000  0.5112390000000 1.0
C      1  0.5129620000000  0.4584850000000  0.5132010000000 1.0
C      1  0.5395150000000  0.5067350000000  0.5184070000000 1.0
C      1  0.5050650000000  0.5498800000000  0.5184800000000 1.0
C      1  0.4656030000000  0.5181100000000  0.4818890000000 1.0
C      1  0.4710150000000  0.4680080000000  0.4803670000000 1.0
C      1  0.5251890000000  0.4546710000000  0.4815440000000 1.0
C      1  0.5531020000000  0.5060740000000  0.4876940000000 1.0
C      1  0.5141770000000  0.5424890000000  0.4864520000000 1.0
C      1  0.5119690000000  0.4754900000000  0.5666370000000 1.0
C      1  0.5313040000000  0.5033230000000  0.5694840000000 1.0
C      1  0.5084520000000  0.5286380000000  0.5694480000000 1.0
C      1  0.4764770000000  0.5168770000000  0.5694860000000 1.0
C      1  0.4790560000000  0.4840400000000  0.5650350000000 1.0
C      1  0.5098470000000  0.4728260000000  0.4280260000000 1.0
C      1  0.5276050000000  0.5014580000000  0.4319370000000 1.0
C      1  0.5052660000000  0.5272780000000  0.4314800000000 1.0
C      1  0.4731350000000  0.5162050000000  0.4294260000000 1.0
C      1  0.4770610000000  0.4822490000000  0.4298980000000 1.0
C      1  0.5231990000000  0.5854290000000  0.5190400000000 1.0
C      1  0.4261310000000  0.5531470000000  0.5186220000000 1.0
C      1  0.4259090000000  0.4461210000000  0.5195360000000 1.0
C      1  0.5277890000000  0.4173840000000  0.5162350000000 1.0
C      1  0.5861780000000  0.5043990000000  0.5152380000000 1.0
C      1  0.5259480000000  0.5832820000000  0.4842540000000 1.0
C      1  0.4277990000000  0.5475890000000  0.4841700000000 1.0
C      1  0.4333200000000  0.4451900000000  0.4850260000000 1.0
C      1  0.5316270000000  0.4154690000000  0.4814160000000 1.0
C      1  0.5917490000000  0.5003470000000  0.4808110000000 1.0
C      1  0.3986910000000  0.4972510000000  0.5295680000000 1.0
C      1  0.4729730000000  0.4043900000000  0.5308850000000 1.0
C      1  0.5773100000000  0.4479760000000  0.5206190000000 1.0
C      1  0.5733320000000  0.5609340000000  0.5237790000000 1.0
C      1  0.4625790000000  0.5955680000000  0.5332130000000 1.0
C      1  0.4065350000000  0.4941820000000  0.4768800000000 1.0
C      1  0.4774820000000  0.4054010000000  0.4749170000000 1.0
C      1  0.5861900000000  0.4442490000000  0.4677120000000 1.0
C      1  0.5781610000000  0.5620970000000  0.4703410000000 1.0
C      1  0.4676810000000  0.5878880000000  0.4797360000000 1.0
C      1  0.5829540000000  0.5126950000000  0.5487100000000 1.0
C      1  0.5132340000000  0.5805320000000  0.5517610000000 1.0
C      1  0.4286040000000  0.5389630000000  0.5500050000000 1.0
C      1  0.4402410000000  0.4453640000000  0.5511760000000 1.0
C      1  0.5353330000000  0.4269810000000  0.5486670000000 1.0
C      1  0.5804340000000  0.5105520000000  0.4497260000000 1.0
C      1  0.5140650000000  0.5800560000000  0.4519080000000 1.0
C      1  0.4257500000000  0.5384680000000  0.4508560000000 1.0
C      1  0.4413460000000  0.4411560000000  0.4515140000000 1.0
C      1  0.5365530000000  0.4269260000000  0.4491580000000 1.0
C      1  0.5603720000000  0.4714060000000  0.5474870000000 1.0
C      1  0.5473190000000  0.5485180000000  0.5504070000000 1.0
C      1  0.4696290000000  0.5596450000000  0.5479370000000 1.0
C      1  0.4343500000000  0.4912350000000  0.5456800000000 1.0
C      1  0.4891680000000  0.4364570000000  0.5472380000000 1.0
C      1  0.5599480000000  0.4692030000000  0.4518280000000 1.0
C      1  0.5460440000000  0.5457380000000  0.4539990000000 1.0
C      1  0.4679970000000  0.5586170000000  0.4532660000000 1.0
C      1  0.4342380000000  0.4884410000000  0.4495990000000 1.0
C      1  0.4906600000000  0.4329560000000  0.4502590000000 1.0
C      1  0.4628470000000  0.4188340000000  0.4468000000000 1.0
C      1  0.5632480000000  0.4399330000000  0.4425690000000 1.0
C      1  0.5748280000000  0.5394470000000  0.4449440000000 1.0
C      1  0.4844160000000  0.5848570000000  0.4500980000000 1.0
C      1  0.4126880000000  0.5110190000000  0.4476520000000 1.0
C      1  0.4620830000000  0.4245030000000  0.5565830000000 1.0
C      1  0.5622630000000  0.4404510000000  0.5503500000000 1.0
C      1  0.5780900000000  0.5428270000000  0.5525490000000 1.0
C      1  0.4835020000000  0.5855770000000  0.5585940000000 1.0
C      1  0.4149820000000  0.5131200000000  0.5550100000000 1.0
C      1  0.5137740000000  0.4435860000000  0.5589800000000 1.0
C      1  0.5622860000000  0.4960890000000  0.5618910000000 1.0
C      1  0.5236720000000  0.5565270000000  0.5642250000000 1.0
C      1  0.4550590000000  0.5398560000000  0.5611190000000 1.0
C      1  0.4483030000000  0.4714600000000  0.5598970000000 1.0
C      1  0.5142670000000  0.4410800000000  0.4369050000000 1.0
C      1  0.5601750000000  0.4936650000000  0.4381010000000 1.0
C      1  0.5222580000000  0.5542700000000  0.4415350000000 1.0
C      1  0.4523670000000  0.5400260000000  0.4382430000000 1.0
C      1  0.4482660000000  0.4661920000000  0.4371160000000 1.0
C      1  0.5600480000000  0.4734930000000  0.4841910000000 1.0
C      1  0.5459320000000  0.5452350000000  0.4869110000000 1.0
C      1  0.4691310000000  0.5483770000000  0.4842380000000 1.0
C      1  0.4449070000000  0.4839400000000  0.4804070000000 1.0
C      1  0.4988860000000  0.4384130000000  0.4818650000000 1.0
C      1  0.5529290000000  0.4791500000000  0.5169110000000 1.0
C      1  0.5359720000000  0.5476240000000  0.5193290000000 1.0
C      1  0.4659000000000  0.5561660000000  0.5158460000000 1.0
C      1  0.4370230000000  0.4893980000000  0.5131120000000 1.0
C      1  0.4891090000000  0.4370470000000  0.5143990000000 1.0
C      1  0.4339880000000  0.5142750000000  0.4807910000000 1.0
C      1  0.4662900000000  0.4368880000000  0.4816290000000 1.0
C      1  0.5558170000000  0.4395970000000  0.4812460000000 1.0
C      1  0.5765270000000  0.5306540000000  0.4834510000000 1.0
C      1  0.4952920000000  0.5679260000000  0.4842010000000 1.0
C      1  0.4208090000000  0.5195060000000  0.5164720000000 1.0
C      1  0.4558130000000  0.4308960000000  0.5181400000000 1.0
C      1  0.5431420000000  0.4480590000000  0.5164780000000 1.0
C      1  0.5625050000000  0.5287030000000  0.5191660000000 1.0
C      1  0.4895450000000  0.5803080000000  0.5201180000000 1.0
C      1  0.4889850000000  0.4792860000000  0.4612320000000 1.0
C      1  0.5200240000000  0.4749820000000  0.4608720000000 1.0
C      1  0.5331380000000  0.5026750000000  0.4659080000000 1.0
C      1  0.5110570000000  0.5234990000000  0.4644560000000 1.0
C      1  0.4836470000000  0.5094350000000  0.4600120000000 1.0
C      1  0.4738590000000  0.4820340000000  0.5312070000000 1.0
C      1  0.5039990000000  0.4776000000000  0.5338700000000 1.0
C      1  0.5184930000000  0.5050240000000  0.5388400000000 1.0
C      1  0.4970580000000  0.5279400000000  0.5373060000000 1.0
C      1  0.4695060000000  0.5125820000000  0.5357230000000 1.0
C      1  0.4426710000000  0.5773880000000  0.4912720000000 1.0
C      1  0.4095130000000  0.4687940000000  0.4907480000000 1.0
C      1  0.5025220000000  0.3995700000000  0.4891700000000 1.0
C      1  0.5990770000000  0.4671210000000  0.4797600000000 1.0
C      1  0.5599450000000  0.5819340000000  0.4810990000000 1.0
C      1  0.4386940000000  0.5847750000000  0.5206410000000 1.0
C      1  0.4024530000000  0.4705920000000  0.5198600000000 1.0
C      1  0.4991770000000  0.3989310000000  0.5193870000000 1.0
C      1  0.5912520000000  0.4713100000000  0.5089610000000 1.0
C      1  0.5559960000000  0.5809040000000  0.5110290000000 1.0
END
