TITL C-2782235-7892-1064 0.000933146021938307 125000 -691.260806323717 0 0 120 (C5) n - 1
REM
REM in /home/nfs/bkarasulu/CARBON/AIRSS/Generating-Clusters/REBO/Higher-Symm/SD-CG/HFTN-CG
REM
REM
REM
REM
REM
REM ./C.cell (12c818d87b63d06a65506943cc24bca4)
REM
REM compiler GCC version 9.2.1 20190827 (Red Hat 9.2.1-1)
REM options -cpp -mtune=generic -march=x86-64 -g -O0 -fpre-include=/usr/include/finclude/math-vector-fortran.h
REM seed -132534498 -896899074 -1446633559 -1545009927 -2092101811 -364845535 1954479092 284171278 -1331593347 1832269196 102900539 -220824397 1042133530 -1902295197 447549270 2096468480 -1096335916 -1915656070 -461319425 -1013251137 -1364463803 400255206 -894001964 56729004 1928129963 -1586220906 -1714271 1864049659 -103160029 -313089702 994372822 161393274 1808582890
REM
CELL 1.54180   50.00000   50.00000   50.00000   90.00000   90.00000   90.00000
LATT -1
SFAC C  
C      1  0.4969810000000  0.4893190000000  0.5583120000000 1.0
C      1  0.4969820000000  0.5521570000000  0.5281770000000 1.0
C      1  0.4969910000000  0.5429150000000  0.4591020000000 1.0
C      1  0.4969950000000  0.4743660000000  0.4465460000000 1.0
C      1  0.4969890000000  0.4412410000000  0.5078610000000 1.0
C      1  0.4872580000000  0.5060540000000  0.4722800000000 1.0
C      1  0.4872580000000  0.4755080000000  0.4856750000000 1.0
C      1  0.4872540000000  0.4788090000000  0.5188650000000 1.0
C      1  0.4872520000000  0.5113940000000  0.5259820000000 1.0
C      1  0.4872540000000  0.5282320000000  0.4971910000000 1.0
C      1  0.5192910000000  0.5204460000000  0.5192870000000 1.0
C      1  0.5192950000000  0.5246590000000  0.4865170000000 1.0
C      1  0.5192980000000  0.4947960000000  0.4723840000000 1.0
C      1  0.5192960000000  0.4721260000000  0.4964180000000 1.0
C      1  0.5192920000000  0.4879780000000  0.5254060000000 1.0
C      1  0.5384820000000  0.5704640000000  0.5129740000000 1.0
C      1  0.5384930000000  0.5341110000000  0.4369990000000 1.0
C      1  0.5384960000000  0.4506200000000  0.4480960000000 1.0
C      1  0.5384870000000  0.4353740000000  0.5309280000000 1.0
C      1  0.5384780000000  0.5094410000000  0.5710260000000 1.0
C      1  0.4644430000000  0.5570850000000  0.5271460000000 1.0
C      1  0.4644520000000  0.5434610000000  0.4540930000000 1.0
C      1  0.4644570000000  0.4697730000000  0.4444760000000 1.0
C      1  0.4644500000000  0.4378550000000  0.5115850000000 1.0
C      1  0.4644420000000  0.4918170000000  0.5626790000000 1.0
C      1  0.4552670000000  0.3902820000000  0.4511520000000 1.0
C      1  0.4552490000000  0.4196420000000  0.5892470000000 1.0
C      1  0.4552400000000  0.5600510000000  0.6039990000000 1.0
C      1  0.4552530000000  0.6174690000000  0.4750200000000 1.0
C      1  0.4552690000000  0.5125460000000  0.3805550000000 1.0
C      1  0.4947420000000  0.5169740000000  0.5691560000000 1.0
C      1  0.4947480000000  0.5710170000000  0.5052270000000 1.0
C      1  0.4947580000000  0.5269170000000  0.4340730000000 1.0
C      1  0.4947600000000  0.4456180000000  0.4540270000000 1.0
C      1  0.4947500000000  0.4394730000000  0.5375130000000 1.0
C      1  0.5279880000000  0.4416850000000  0.5013090000000 1.0
C      1  0.5279790000000  0.4832230000000  0.5558690000000 1.0
C      1  0.5279790000000  0.5479480000000  0.5332240000000 1.0
C      1  0.5279870000000  0.5464130000000  0.4646690000000 1.0
C      1  0.5279930000000  0.4807380000000  0.4449450000000 1.0
C      1  0.4686870000000  0.5921690000000  0.4838950000000 1.0
C      1  0.4687000000000  0.5131680000000  0.4073610000000 1.0
C      1  0.4686980000000  0.4159670000000  0.4588460000000 1.0
C      1  0.4686840000000  0.4348950000000  0.5671990000000 1.0
C      1  0.4686770000000  0.5437940000000  0.5826800000000 1.0
C      1  0.4351100000000  0.5476220000000  0.4808860000000 1.0
C      1  0.4351160000000  0.4965430000000  0.4487940000000 1.0
C      1  0.4351130000000  0.4502370000000  0.4874560000000 1.0
C      1  0.4351060000000  0.4726980000000  0.5434430000000 1.0
C      1  0.4351030000000  0.5328850000000  0.5393820000000 1.0
C      1  0.5733070000000  0.4689330000000  0.5394580000000 1.0
C      1  0.5733040000000  0.5279200000000  0.5417490000000 1.0
C      1  0.5733100000000  0.5483280000000  0.4863570000000 1.0
C      1  0.5733160000000  0.5019530000000  0.4498310000000 1.0
C      1  0.5733150000000  0.4528840000000  0.4826490000000 1.0
C      1  0.4559840000000  0.5182720000000  0.5202500000000 1.0
C      1  0.4559870000000  0.5249080000000  0.4888740000000 1.0
C      1  0.4559900000000  0.4971190000000  0.4728670000000 1.0
C      1  0.4559890000000  0.4733080000000  0.4943490000000 1.0
C      1  0.4559850000000  0.4863810000000  0.5236330000000 1.0
C      1  0.5173740000000  0.5951090000000  0.5125740000000 1.0
C      1  0.5173880000000  0.5413470000000  0.4134340000000 1.0
C      1  0.5173910000000  0.4304460000000  0.4339280000000 1.0
C      1  0.5173780000000  0.4156670000000  0.5457350000000 1.0
C      1  0.5173680000000  0.5174350000000  0.5943400000000 1.0
C      1  0.5287130000000  0.5574440000000  0.5649230000000 1.0
C      1  0.5287240000000  0.5794950000000  0.4654330000000 1.0
C      1  0.5287350000000  0.4916880000000  0.4137180000000 1.0
C      1  0.5287300000000  0.4153700000000  0.4812460000000 1.0
C      1  0.5287170000000  0.4560100000000  0.5746960000000 1.0
C      1  0.4162270000000  0.4762960000000  0.4931080000000 1.0
C      1  0.4162230000000  0.4861270000000  0.5204040000000 1.0
C      1  0.4162220000000  0.5151250000000  0.5194880000000 1.0
C      1  0.4162250000000  0.5232150000000  0.4916270000000 1.0
C      1  0.4162280000000  0.4992180000000  0.4753230000000 1.0
C      1  0.5584430000000  0.4772850000000  0.4922240000000 1.0
C      1  0.5584400000000  0.4855810000000  0.5192080000000 1.0
C      1  0.5584380000000  0.5138070000000  0.5196570000000 1.0
C      1  0.5584410000000  0.5229560000000  0.4929500000000 1.0
C      1  0.5584440000000  0.5003850000000  0.4759960000000 1.0
C      1  0.5523900000000  0.5091060000000  0.4308360000000 1.0
C      1  0.5523890000000  0.4370310000000  0.4699730000000 1.0
C      1  0.5523790000000  0.4519800000000  0.5506150000000 1.0
C      1  0.5523740000000  0.5332950000000  0.5613170000000 1.0
C      1  0.5523810000000  0.5686000000000  0.4872900000000 1.0
C      1  0.4325350000000  0.4910960000000  0.5703910000000 1.0
C      1  0.4325370000000  0.5641990000000  0.5302110000000 1.0
C      1  0.4325470000000  0.5485770000000  0.4482700000000 1.0
C      1  0.4325520000000  0.4658180000000  0.4378070000000 1.0
C      1  0.4325450000000  0.4302930000000  0.5132810000000 1.0
C      1  0.5031310000000  0.5932000000000  0.4817350000000 1.0
C      1  0.5031440000000  0.5114290000000  0.4057170000000 1.0
C      1  0.5031420000000  0.4138630000000  0.4599960000000 1.0
C      1  0.5031280000000  0.4353360000000  0.5695590000000 1.0
C      1  0.5031210000000  0.5461720000000  0.5829950000000 1.0
C      1  0.5273360000000  0.3921330000000  0.5021710000000 1.0
C      1  0.5273200000000  0.4687300000000  0.6032620000000 1.0
C      1  0.5273190000000  0.5885430000000  0.5616520000000 1.0
C      1  0.5273350000000  0.5859940000000  0.4348460000000 1.0
C      1  0.5273450000000  0.4646060000000  0.3980850000000 1.0
C      1  0.4480920000000  0.4426910000000  0.5410860000000 1.0
C      1  0.4480850000000  0.5213700000000  0.5671930000000 1.0
C      1  0.4480910000000  0.5705130000000  0.5004330000000 1.0
C      1  0.4481010000000  0.5222060000000  0.4330660000000 1.0
C      1  0.4481020000000  0.4432080000000  0.4581900000000 1.0
C      1  0.5981240000000  0.4748950000000  0.4907950000000 1.0
C      1  0.5981200000000  0.4834790000000  0.5210450000000 1.0
C      1  0.5981180000000  0.5149020000000  0.5222280000000 1.0
C      1  0.5981210000000  0.5257370000000  0.4927090000000 1.0
C      1  0.5981250000000  0.5010110000000  0.4732820000000 1.0
C      1  0.5208860000000  0.4414210000000  0.4050200000000 1.0
C      1  0.5208740000000  0.3915650000000  0.5263640000000 1.0
C      1  0.5208590000000  0.4915640000000  0.6112770000000 1.0
C      1  0.5208620000000  0.6032220000000  0.5424130000000 1.0
C      1  0.5208790000000  0.5722330000000  0.4149390000000 1.0
C      1  0.4791830000000  0.5406620000000  0.5516390000000 1.0
C      1  0.4791910000000  0.5616790000000  0.4772830000000 1.0
C      1  0.4791990000000  0.4974570000000  0.4343170000000 1.0
C      1  0.4791960000000  0.4367480000000  0.4821190000000 1.0
C      1  0.4791860000000  0.4634500000000  0.5546280000000 1.0
END
