TITL C-2782238-9940-1160 -0.000768421487164417 125000 -888.084575093529 0 0 152 (C1) n - 1
REM
REM in /home/nfs/bkarasulu/CARBON/AIRSS/Generating-Clusters/REBO/Higher-Symm/SD-CG/HFTN-CG
REM
REM
REM
REM
REM
REM ./C.cell (12c818d87b63d06a65506943cc24bca4)
REM
REM compiler GCC version 9.2.1 20190827 (Red Hat 9.2.1-1)
REM options -cpp -mtune=generic -march=x86-64 -g -O0 -fpre-include=/usr/include/finclude/math-vector-fortran.h
REM seed 1538440582 541199890 2017723397 -723465702 1167142122 -1780162512 1175698835 1374954861 -1063300069 1880608996 -2116579625 -1543137977 -526565954 401128692 724121094 -303832075 1041453575 -562249478 -1788590414 167124491 -21704086 -64851860 949412179 -1747946673 -2082993127 1069588637 1663411032 1637622482 -1464025106 -82109783 -1326295915 78443993 -1748266414
REM
CELL 1.54180   50.00000   50.00000   50.00000   90.00000   90.00000   90.00000
LATT -1
SFAC C  
C      1  0.4426770000000  0.5188320000000  0.4945630000000 1.0
C      1  0.5606440000000  0.4827390000000  0.4930350000000 1.0
C      1  0.5364900000000  0.5163900000000  0.4106280000000 1.0
C      1  0.4662140000000  0.4871940000000  0.3977000000000 1.0
C      1  0.4948150000000  0.5909130000000  0.5694200000000 1.0
C      1  0.5060730000000  0.4122370000000  0.5835510000000 1.0
C      1  0.5942490000000  0.4828500000000  0.4876360000000 1.0
C      1  0.4031020000000  0.5159130000000  0.4957760000000 1.0
C      1  0.4342570000000  0.4914300000000  0.4291790000000 1.0
C      1  0.5762440000000  0.5000940000000  0.4288910000000 1.0
C      1  0.5420540000000  0.4886370000000  0.5547390000000 1.0
C      1  0.4684220000000  0.5237430000000  0.5644780000000 1.0
C      1  0.4141690000000  0.5021150000000  0.4720500000000 1.0
C      1  0.5816670000000  0.5051090000000  0.4678390000000 1.0
C      1  0.5142730000000  0.5607970000000  0.4753950000000 1.0
C      1  0.4827450000000  0.4446350000000  0.4660220000000 1.0
C      1  0.5543450000000  0.4177390000000  0.5286740000000 1.0
C      1  0.4462960000000  0.5791000000000  0.5335120000000 1.0
C      1  0.4899890000000  0.3952080000000  0.4813080000000 1.0
C      1  0.5024290000000  0.6008500000000  0.4796530000000 1.0
C      1  0.4893520000000  0.4065710000000  0.5130670000000 1.0
C      1  0.5059860000000  0.5976650000000  0.5109010000000 1.0
C      1  0.4562430000000  0.4782390000000  0.4932480000000 1.0
C      1  0.5391080000000  0.5186980000000  0.4934750000000 1.0
C      1  0.5412950000000  0.4684240000000  0.4070660000000 1.0
C      1  0.4544950000000  0.5273280000000  0.4005830000000 1.0
C      1  0.5085240000000  0.5263390000000  0.4272270000000 1.0
C      1  0.4824260000000  0.4822560000000  0.4241830000000 1.0
C      1  0.4860430000000  0.4269780000000  0.5953590000000 1.0
C      1  0.5168250000000  0.5766310000000  0.5828290000000 1.0
C      1  0.5300630000000  0.4564760000000  0.4830490000000 1.0
C      1  0.4765810000000  0.5417100000000  0.4825940000000 1.0
C      1  0.4827450000000  0.4520650000000  0.5266380000000 1.0
C      1  0.5147040000000  0.5380250000000  0.5185670000000 1.0
C      1  0.4845480000000  0.5379770000000  0.4060160000000 1.0
C      1  0.5095670000000  0.4679650000000  0.4141750000000 1.0
C      1  0.4462590000000  0.5081520000000  0.4634760000000 1.0
C      1  0.5494940000000  0.4948160000000  0.4631960000000 1.0
C      1  0.4332800000000  0.4812590000000  0.5692700000000 1.0
C      1  0.5574190000000  0.5329550000000  0.5768390000000 1.0
C      1  0.5173420000000  0.4433430000000  0.4332980000000 1.0
C      1  0.4830560000000  0.5561520000000  0.4335040000000 1.0
C      1  0.4301090000000  0.5304550000000  0.5488300000000 1.0
C      1  0.5790650000000  0.4752450000000  0.5389270000000 1.0
C      1  0.4700220000000  0.5543870000000  0.5131260000000 1.0
C      1  0.5317750000000  0.4452150000000  0.5114230000000 1.0
C      1  0.4215790000000  0.5057530000000  0.5390590000000 1.0
C      1  0.5783520000000  0.5090810000000  0.5404860000000 1.0
C      1  0.5129310000000  0.4373610000000  0.4647940000000 1.0
C      1  0.4856340000000  0.5664830000000  0.4644710000000 1.0
C      1  0.5783860000000  0.5581430000000  0.4623740000000 1.0
C      1  0.4226340000000  0.4478690000000  0.4567930000000 1.0
C      1  0.4712830000000  0.5940660000000  0.4714750000000 1.0
C      1  0.5184100000000  0.4068260000000  0.4733770000000 1.0
C      1  0.5330170000000  0.4707270000000  0.4461320000000 1.0
C      1  0.4656410000000  0.5292130000000  0.4457100000000 1.0
C      1  0.4959550000000  0.5182800000000  0.5082820000000 1.0
C      1  0.5007700000000  0.4702920000000  0.5083320000000 1.0
C      1  0.5043740000000  0.5136090000000  0.6086140000000 1.0
C      1  0.5022670000000  0.4852740000000  0.6051300000000 1.0
C      1  0.5557050000000  0.5406510000000  0.5495840000000 1.0
C      1  0.4378820000000  0.4675130000000  0.5458220000000 1.0
C      1  0.4523020000000  0.6019230000000  0.4482740000000 1.0
C      1  0.5433260000000  0.3961070000000  0.4562930000000 1.0
C      1  0.4756510000000  0.5136210000000  0.5265100000000 1.0
C      1  0.5217900000000  0.4820110000000  0.5229430000000 1.0
C      1  0.4660450000000  0.4405530000000  0.4366760000000 1.0
C      1  0.5300470000000  0.5483490000000  0.4527600000000 1.0
C      1  0.4436050000000  0.4949460000000  0.5173640000000 1.0
C      1  0.5547450000000  0.5031600000000  0.5166710000000 1.0
C      1  0.5738060000000  0.5515030000000  0.5300020000000 1.0
C      1  0.4253770000000  0.4526220000000  0.5239470000000 1.0
C      1  0.4950110000000  0.4411950000000  0.5522990000000 1.0
C      1  0.4820910000000  0.5462760000000  0.5798260000000 1.0
C      1  0.5795190000000  0.4544460000000  0.4976250000000 1.0
C      1  0.4185260000000  0.5416440000000  0.5043050000000 1.0
C      1  0.5517960000000  0.4773820000000  0.5994200000000 1.0
C      1  0.4551690000000  0.5216790000000  0.6021060000000 1.0
C      1  0.4375710000000  0.4590250000000  0.4328890000000 1.0
C      1  0.5759500000000  0.5299790000000  0.4450990000000 1.0
C      1  0.4644730000000  0.4146600000000  0.4831320000000 1.0
C      1  0.5354620000000  0.5946390000000  0.4734360000000 1.0
C      1  0.5050170000000  0.4087080000000  0.5496760000000 1.0
C      1  0.4959490000000  0.6010100000000  0.5432540000000 1.0
C      1  0.5970050000000  0.4943290000000  0.5168210000000 1.0
C      1  0.4027430000000  0.4962950000000  0.5178640000000 1.0
C      1  0.5493960000000  0.5013160000000  0.5817080000000 1.0
C      1  0.4574350000000  0.4967070000000  0.5823240000000 1.0
C      1  0.5130340000000  0.5006770000000  0.5474320000000 1.0
C      1  0.4839520000000  0.4971020000000  0.5524720000000 1.0
C      1  0.4833990000000  0.4809910000000  0.4865490000000 1.0
C      1  0.5135620000000  0.5070840000000  0.4890820000000 1.0
C      1  0.4406490000000  0.4300990000000  0.5128280000000 1.0
C      1  0.5640520000000  0.5731460000000  0.5144790000000 1.0
C      1  0.4084610000000  0.4716250000000  0.4757680000000 1.0
C      1  0.5843350000000  0.5326390000000  0.4840810000000 1.0
C      1  0.5540350000000  0.4320350000000  0.5533310000000 1.0
C      1  0.4456350000000  0.5728730000000  0.5614090000000 1.0
C      1  0.5815130000000  0.4390870000000  0.4454880000000 1.0
C      1  0.4314330000000  0.5567160000000  0.4483620000000 1.0
C      1  0.4697960000000  0.4896050000000  0.4473350000000 1.0
C      1  0.5287540000000  0.5162320000000  0.4533460000000 1.0
C      1  0.5709990000000  0.4595040000000  0.5888120000000 1.0
C      1  0.4342850000000  0.5397900000000  0.5960130000000 1.0
C      1  0.4800940000000  0.5268570000000  0.6147070000000 1.0
C      1  0.5264000000000  0.4707410000000  0.6104470000000 1.0
C      1  0.4802010000000  0.4505590000000  0.5793030000000 1.0
C      1  0.5092470000000  0.5490310000000  0.5876630000000 1.0
C      1  0.4920960000000  0.4220100000000  0.4344920000000 1.0
C      1  0.5136440000000  0.5680760000000  0.4361960000000 1.0
C      1  0.5263530000000  0.4314410000000  0.5639550000000 1.0
C      1  0.4715090000000  0.5729220000000  0.5739550000000 1.0
C      1  0.5484360000000  0.4648600000000  0.5311830000000 1.0
C      1  0.4576600000000  0.5373610000000  0.5350100000000 1.0
C      1  0.5153820000000  0.5934420000000  0.4488960000000 1.0
C      1  0.4897920000000  0.3973480000000  0.4473970000000 1.0
C      1  0.5434470000000  0.4195270000000  0.4887010000000 1.0
C      1  0.4553450000000  0.5746500000000  0.4900200000000 1.0
C      1  0.4315580000000  0.5653410000000  0.5117800000000 1.0
C      1  0.5685840000000  0.4308150000000  0.5056280000000 1.0
C      1  0.4293070000000  0.5501170000000  0.5698210000000 1.0
C      1  0.5716750000000  0.4525110000000  0.5612340000000 1.0
C      1  0.5130730000000  0.4810750000000  0.4718740000000 1.0
C      1  0.4967010000000  0.5273450000000  0.4591090000000 1.0
C      1  0.5565370000000  0.5756530000000  0.4813710000000 1.0
C      1  0.4349900000000  0.4255690000000  0.4795640000000 1.0
C      1  0.4353850000000  0.5822470000000  0.4389330000000 1.0
C      1  0.5619870000000  0.4149750000000  0.4515070000000 1.0
C      1  0.4797860000000  0.4765860000000  0.5900160000000 1.0
C      1  0.5291660000000  0.5260280000000  0.5935660000000 1.0
C      1  0.4761470000000  0.5859000000000  0.5222480000000 1.0
C      1  0.5212310000000  0.4144070000000  0.5215090000000 1.0
C      1  0.4568990000000  0.4394910000000  0.4044330000000 1.0
C      1  0.5639810000000  0.5554360000000  0.4022200000000 1.0
C      1  0.4745610000000  0.4428410000000  0.4958970000000 1.0
C      1  0.5189000000000  0.5606930000000  0.5032130000000 1.0
C      1  0.4442970000000  0.5465180000000  0.4744870000000 1.0
C      1  0.5558610000000  0.4446500000000  0.4671000000000 1.0
C      1  0.4644120000000  0.4154080000000  0.5229680000000 1.0
C      1  0.5356880000000  0.5828320000000  0.5147290000000 1.0
C      1  0.4373590000000  0.4583140000000  0.4846950000000 1.0
C      1  0.5532580000000  0.5423920000000  0.4865360000000 1.0
C      1  0.5903470000000  0.5278770000000  0.5143530000000 1.0
C      1  0.4070070000000  0.4689380000000  0.5084050000000 1.0
C      1  0.4888740000000  0.5080540000000  0.3944720000000 1.0
C      1  0.5141590000000  0.4970860000000  0.4009890000000 1.0
C      1  0.5584180000000  0.4806470000000  0.4267180000000 1.0
C      1  0.4456350000000  0.5152630000000  0.4242050000000 1.0
C      1  0.4659150000000  0.4762970000000  0.5354010000000 1.0
C      1  0.5353570000000  0.5229620000000  0.5353380000000 1.0
C      1  0.5576220000000  0.5337230000000  0.4184210000000 1.0
C      1  0.4457180000000  0.4669020000000  0.3999740000000 1.0
END
