TITL C-2782239-8622-1475 -0.00492319445761994 125000 -400.416828796653 0 0 69 (C1) n - 1
REM
REM in /home/nfs/bkarasulu/CARBON/AIRSS/Generating-Clusters/REBO/Higher-Symm/SD-CG/HFTN-CG
REM
REM
REM
REM
REM
REM ./C.cell (12c818d87b63d06a65506943cc24bca4)
REM
REM compiler GCC version 9.2.1 20190827 (Red Hat 9.2.1-1)
REM options -cpp -mtune=generic -march=x86-64 -g -O0 -fpre-include=/usr/include/finclude/math-vector-fortran.h
REM seed 1980451019 824397486 426168296 -172021642 -1250424522 596944453 1181486212 1486870543 -2136922901 717614513 -233486351 1285315607 -1676809354 1015239335 83428327 1784176029 1408581554 -93623306 -1456118746 298569141 974796765 1425535258 436076171 -401743580 -419430420 1849428994 -886981969 -2034148917 1271154436 -2139006169 1353951008 -949732420 1063881683
REM
CELL 1.54180   50.00000   50.00000   50.00000   90.00000   90.00000   90.00000
LATT -1
SFAC C  
C      1  0.4939300000000  0.5361920000000  0.4364990000000 1.0
C      1  0.4932860000000  0.5709920000000  0.5141660000000 1.0
C      1  0.4925070000000  0.5076820000000  0.5702380000000 1.0
C      1  0.4940530000000  0.4339080000000  0.5293890000000 1.0
C      1  0.4919100000000  0.4536470000000  0.4470010000000 1.0
C      1  0.5396140000000  0.4775640000000  0.5666370000000 1.0
C      1  0.5401730000000  0.4297980000000  0.4996710000000 1.0
C      1  0.5381150000000  0.4785510000000  0.4324180000000 1.0
C      1  0.5387050000000  0.5571350000000  0.4597780000000 1.0
C      1  0.5397550000000  0.5566700000000  0.5412620000000 1.0
C      1  0.4645320000000  0.5644400000000  0.4738820000000 1.0
C      1  0.4679000000000  0.5478260000000  0.5526980000000 1.0
C      1  0.4654570000000  0.4654740000000  0.5557780000000 1.0
C      1  0.4666190000000  0.4345850000000  0.4837710000000 1.0
C      1  0.4648030000000  0.4971680000000  0.4342130000000 1.0
C      1  0.4301610000000  0.4536030000000  0.5099480000000 1.0
C      1  0.4344820000000  0.4714010000000  0.4647690000000 1.0
C      1  0.4327510000000  0.5195420000000  0.4748050000000 1.0
C      1  0.4297820000000  0.5367970000000  0.5105430000000 1.0
C      1  0.4276920000000  0.5017480000000  0.5293600000000 1.0
C      1  0.5628340000000  0.4475030000000  0.4993300000000 1.0
C      1  0.5617140000000  0.4846910000000  0.4477970000000 1.0
C      1  0.5614760000000  0.5436890000000  0.4710410000000 1.0
C      1  0.5627910000000  0.5409430000000  0.5322890000000 1.0
C      1  0.5628760000000  0.4839210000000  0.5499930000000 1.0
C      1  0.4723130000000  0.4936490000000  0.5561640000000 1.0
C      1  0.4735130000000  0.4415370000000  0.5111870000000 1.0
C      1  0.4722240000000  0.4739490000000  0.4518260000000 1.0
C      1  0.4731720000000  0.5428070000000  0.4543940000000 1.0
C      1  0.4722270000000  0.5540410000000  0.5236020000000 1.0
C      1  0.4719260000000  0.5256750000000  0.4799040000000 1.0
C      1  0.4690990000000  0.5301620000000  0.5074820000000 1.0
C      1  0.4671670000000  0.5064020000000  0.5294580000000 1.0
C      1  0.4665590000000  0.4688400000000  0.5161040000000 1.0
C      1  0.4704610000000  0.4815860000000  0.4788910000000 1.0
C      1  0.5597570000000  0.4730780000000  0.4788670000000 1.0
C      1  0.5584660000000  0.5111180000000  0.4675850000000 1.0
C      1  0.5581590000000  0.5306000000000  0.5022000000000 1.0
C      1  0.5579610000000  0.5108630000000  0.5368880000000 1.0
C      1  0.5597410000000  0.4754040000000  0.5185810000000 1.0
C      1  0.5270800000000  0.4720830000000  0.5218580000000 1.0
C      1  0.5268000000000  0.4701980000000  0.4813690000000 1.0
C      1  0.5249440000000  0.5082910000000  0.4666820000000 1.0
C      1  0.5248420000000  0.5336430000000  0.4980990000000 1.0
C      1  0.5255620000000  0.5115680000000  0.5316190000000 1.0
C      1  0.5190750000000  0.4627940000000  0.4496400000000 1.0
C      1  0.5198620000000  0.5365060000000  0.4483870000000 1.0
C      1  0.5195040000000  0.5600650000000  0.5188290000000 1.0
C      1  0.5190060000000  0.4998060000000  0.5626460000000 1.0
C      1  0.5202310000000  0.4396310000000  0.5198070000000 1.0
C      1  0.4893280000000  0.5753360000000  0.4851410000000 1.0
C      1  0.4909250000000  0.5370220000000  0.5656390000000 1.0
C      1  0.4892560000000  0.4489950000000  0.5547900000000 1.0
C      1  0.4903550000000  0.4329020000000  0.4676200000000 1.0
C      1  0.4889770000000  0.5097870000000  0.4246680000000 1.0
C      1  0.4407500000000  0.4502930000000  0.4831250000000 1.0
C      1  0.4410630000000  0.4985560000000  0.4560660000000 1.0
C      1  0.4411580000000  0.5505210000000  0.4855980000000 1.0
C      1  0.4442840000000  0.5297950000000  0.5387060000000 1.0
C      1  0.4403830000000  0.4740430000000  0.5339120000000 1.0
C      1  0.5166320000000  0.4374690000000  0.4803000000000 1.0
C      1  0.5150680000000  0.4994240000000  0.4350340000000 1.0
C      1  0.5150420000000  0.5607170000000  0.4794540000000 1.0
C      1  0.5169970000000  0.5380350000000  0.5516630000000 1.0
C      1  0.5165670000000  0.4615810000000  0.5526990000000 1.0
C      1  0.5179860000000  0.4988250000000  0.4999540000000 1.0
C      1  0.5671150000000  0.4996880000000  0.4984330000000 1.0
C      1  0.4167650000000  0.5089920000000  0.5010800000000 1.0
C      1  0.4850190000000  0.4936140000000  0.5045200000000 1.0
END
