TITL C-2782236-320-961 0.00264679481927363 125000 -656.292060035136 0 0 118 (C1) n - 1
REM
REM in /home/nfs/bkarasulu/CARBON/AIRSS/Generating-Clusters/REBO/Higher-Symm/SD-CG/HFTN-CG
REM
REM
REM
REM
REM
REM ./C.cell (12c818d87b63d06a65506943cc24bca4)
REM
REM compiler GCC version 9.2.1 20190827 (Red Hat 9.2.1-1)
REM options -cpp -mtune=generic -march=x86-64 -g -O0 -fpre-include=/usr/include/finclude/math-vector-fortran.h
REM seed -1997320218 -505409434 -219422122 368984605 -1753298527 -172312383 1059583639 1446595381 2025288598 454682781 258353504 1096373496 -1854144540 1842971774 1369240138 1673607916 2015468987 1069009144 66332188 1198833010 -351440491 -1343917530 -1393973940 -237594511 1552210207 1889329636 -536847937 -1485703995 -652399516 836740034 -878367269 -1944703852 -135004956
REM
CELL 1.54180   50.00000   50.00000   50.00000   90.00000   90.00000   90.00000
LATT -1
SFAC C  
C      1  0.4742840000000  0.5573400000000  0.5374310000000 1.0
C      1  0.5276490000000  0.5640340000000  0.4639690000000 1.0
C      1  0.5302550000000  0.5622950000000  0.5332220000000 1.0
C      1  0.4746050000000  0.5613250000000  0.4664710000000 1.0
C      1  0.5205490000000  0.4991810000000  0.4749380000000 1.0
C      1  0.4774970000000  0.4980700000000  0.5259820000000 1.0
C      1  0.4754420000000  0.4977200000000  0.4784370000000 1.0
C      1  0.5260690000000  0.4999460000000  0.5213620000000 1.0
C      1  0.4504480000000  0.5123280000000  0.4253170000000 1.0
C      1  0.5531820000000  0.5123440000000  0.5732560000000 1.0
C      1  0.5484030000000  0.5140280000000  0.4222580000000 1.0
C      1  0.4525490000000  0.5155510000000  0.5752530000000 1.0
C      1  0.4442650000000  0.5487200000000  0.4745380000000 1.0
C      1  0.5546270000000  0.5465360000000  0.5173280000000 1.0
C      1  0.5544590000000  0.5477260000000  0.4774830000000 1.0
C      1  0.4516500000000  0.5405450000000  0.5170480000000 1.0
C      1  0.5463610000000  0.5854300000000  0.5179170000000 1.0
C      1  0.4539110000000  0.5807830000000  0.4832050000000 1.0
C      1  0.4550870000000  0.5795130000000  0.5229080000000 1.0
C      1  0.5437460000000  0.5858580000000  0.4809890000000 1.0
C      1  0.4832870000000  0.4779900000000  0.4200520000000 1.0
C      1  0.5182000000000  0.4803270000000  0.5796760000000 1.0
C      1  0.5160520000000  0.4789310000000  0.4143610000000 1.0
C      1  0.4849210000000  0.4809970000000  0.5832560000000 1.0
C      1  0.5478620000000  0.4805700000000  0.4697530000000 1.0
C      1  0.4518010000000  0.4758640000000  0.5241890000000 1.0
C      1  0.4492170000000  0.4764950000000  0.4741220000000 1.0
C      1  0.5521030000000  0.4778700000000  0.5220980000000 1.0
C      1  0.5155410000000  0.4431800000000  0.4321060000000 1.0
C      1  0.4833900000000  0.4441080000000  0.5687730000000 1.0
C      1  0.4809110000000  0.4394000000000  0.4291760000000 1.0
C      1  0.5183060000000  0.4421150000000  0.5687620000000 1.0
C      1  0.5236570000000  0.5286560000000  0.5346500000000 1.0
C      1  0.4783880000000  0.5280330000000  0.4727640000000 1.0
C      1  0.4755500000000  0.5237770000000  0.5437360000000 1.0
C      1  0.5194210000000  0.5306920000000  0.4700560000000 1.0
C      1  0.5419400000000  0.5372580000000  0.4383100000000 1.0
C      1  0.4712710000000  0.5410860000000  0.5735240000000 1.0
C      1  0.4579830000000  0.5367880000000  0.4396500000000 1.0
C      1  0.5505770000000  0.5388360000000  0.5614030000000 1.0
C      1  0.5591790000000  0.5187020000000  0.5330570000000 1.0
C      1  0.4402900000000  0.5182110000000  0.4635020000000 1.0
C      1  0.4401100000000  0.5121620000000  0.5220930000000 1.0
C      1  0.5576670000000  0.5187290000000  0.4637420000000 1.0
C      1  0.4808480000000  0.4583460000000  0.5274810000000 1.0
C      1  0.5226380000000  0.4592980000000  0.4733680000000 1.0
C      1  0.5270020000000  0.4549800000000  0.5245820000000 1.0
C      1  0.4776790000000  0.4579060000000  0.4774980000000 1.0
C      1  0.5204790000000  0.4794820000000  0.5462230000000 1.0
C      1  0.4825970000000  0.4790050000000  0.4524630000000 1.0
C      1  0.4904530000000  0.4802080000000  0.5509130000000 1.0
C      1  0.5135710000000  0.4799050000000  0.4478040000000 1.0
C      1  0.4555040000000  0.4399090000000  0.5407680000000 1.0
C      1  0.5493280000000  0.4427140000000  0.4570750000000 1.0
C      1  0.5486600000000  0.4363640000000  0.5442770000000 1.0
C      1  0.4558960000000  0.4398210000000  0.4601240000000 1.0
C      1  0.4311170000000  0.4488320000000  0.4803580000000 1.0
C      1  0.5655740000000  0.4465900000000  0.5187810000000 1.0
C      1  0.5673670000000  0.4566600000000  0.4805120000000 1.0
C      1  0.4310300000000  0.4510730000000  0.5202020000000 1.0
C      1  0.5472520000000  0.4600730000000  0.5653450000000 1.0
C      1  0.4536080000000  0.4589410000000  0.4347920000000 1.0
C      1  0.4572510000000  0.4650430000000  0.5622350000000 1.0
C      1  0.5441310000000  0.4618110000000  0.4337280000000 1.0
C      1  0.5150410000000  0.4086340000000  0.5245220000000 1.0
C      1  0.4766950000000  0.4095050000000  0.4756280000000 1.0
C      1  0.4755530000000  0.4096270000000  0.5287710000000 1.0
C      1  0.5256130000000  0.4160640000000  0.4691280000000 1.0
C      1  0.4418880000000  0.4893350000000  0.4448210000000 1.0
C      1  0.5586600000000  0.4895530000000  0.5522440000000 1.0
C      1  0.5577660000000  0.4920050000000  0.4417400000000 1.0
C      1  0.4468200000000  0.4958240000000  0.5514400000000 1.0
C      1  0.5260020000000  0.5068700000000  0.4066600000000 1.0
C      1  0.4758700000000  0.5075770000000  0.5937550000000 1.0
C      1  0.4719890000000  0.5044740000000  0.4088860000000 1.0
C      1  0.5316940000000  0.5057070000000  0.5907740000000 1.0
C      1  0.4473410000000  0.4190620000000  0.4846930000000 1.0
C      1  0.5438360000000  0.4197710000000  0.5163370000000 1.0
C      1  0.5516620000000  0.4268800000000  0.4868890000000 1.0
C      1  0.4462190000000  0.4207520000000  0.5155440000000 1.0
C      1  0.4940730000000  0.5568590000000  0.5786850000000 1.0
C      1  0.5162940000000  0.5494020000000  0.4290650000000 1.0
C      1  0.5270290000000  0.5537990000000  0.5715560000000 1.0
C      1  0.4821230000000  0.5497490000000  0.4292510000000 1.0
C      1  0.5882600000000  0.4943480000000  0.5083440000000 1.0
C      1  0.4025010000000  0.4872890000000  0.4941490000000 1.0
C      1  0.6082600000000  0.5042540000000  0.5240300000000 1.0
C      1  0.3760690000000  0.4946240000000  0.4900910000000 1.0
C      1  0.5661760000000  0.5148330000000  0.4968870000000 1.0
C      1  0.4241850000000  0.5095550000000  0.4925850000000 1.0
C      1  0.4989100000000  0.5187180000000  0.4476390000000 1.0
C      1  0.5037480000000  0.5249510000000  0.5567480000000 1.0
C      1  0.4722850000000  0.5966820000000  0.5043500000000 1.0
C      1  0.5238800000000  0.6008550000000  0.5013650000000 1.0
C      1  0.4326440000000  0.5630690000000  0.5032440000000 1.0
C      1  0.5691030000000  0.5702020000000  0.4976610000000 1.0
C      1  0.4989680000000  0.5146850000000  0.4195770000000 1.0
C      1  0.5041800000000  0.5174800000000  0.5840840000000 1.0
C      1  0.4788520000000  0.5420090000000  0.5009970000000 1.0
C      1  0.5268760000000  0.5442080000000  0.4981420000000 1.0
C      1  0.4973230000000  0.4210660000000  0.4510570000000 1.0
C      1  0.4985570000000  0.4232500000000  0.5484080000000 1.0
C      1  0.6097190000000  0.5496210000000  0.5104870000000 1.0
C      1  0.3951910000000  0.5580240000000  0.4810610000000 1.0
C      1  0.4995530000000  0.5704420000000  0.4501010000000 1.0
C      1  0.5039470000000  0.5682670000000  0.5495000000000 1.0
C      1  0.4096840000000  0.4603790000000  0.4994860000000 1.0
C      1  0.5854450000000  0.4672070000000  0.5029740000000 1.0
C      1  0.5902450000000  0.5340940000000  0.5044230000000 1.0
C      1  0.4080460000000  0.5365750000000  0.4861570000000 1.0
C      1  0.5018260000000  0.4546680000000  0.5953510000000 1.0
C      1  0.4987160000000  0.4521200000000  0.4037920000000 1.0
C      1  0.5015350000000  0.5587680000000  0.5056140000000 1.0
C      1  0.4991160000000  0.5875930000000  0.5045670000000 1.0
C      1  0.5024310000000  0.4565990000000  0.5009300000000 1.0
C      1  0.5031640000000  0.4243380000000  0.4901980000000 1.0
C      1  0.4911620000000  0.3970180000000  0.5038480000000 1.0
C      1  0.5000650000000  0.4916780000000  0.5011070000000 1.0
END
