TITL C-2782238-9940-248 0.00099230982671042 125000 -999.47317314714 0 0 177 (C1) n - 1
REM
REM in /home/nfs/bkarasulu/CARBON/AIRSS/Generating-Clusters/REBO/Higher-Symm/SD-CG/HFTN-CG
REM
REM
REM
REM
REM
REM ./C.cell (12c818d87b63d06a65506943cc24bca4)
REM
REM compiler GCC version 9.2.1 20190827 (Red Hat 9.2.1-1)
REM options -cpp -mtune=generic -march=x86-64 -g -O0 -fpre-include=/usr/include/finclude/math-vector-fortran.h
REM seed -1113459970 -132145214 1847476182 -2048209581 -2044124965 -124900741 -520121005 404594898 -659522762 2146148719 -185645266 -1750098093 1091588349 1210659057 753190713 1248445854 -758632077 -2089700734 -2077399862 9316583 -1758095677 -1037942931 1931033823 -554593313 -496689917 706240806 -2143190472 -283578644 -926758141 1513539143 -1699085639 2108399690 -151664439
REM
CELL 1.54180   50.00000   50.00000   50.00000   90.00000   90.00000   90.00000
LATT -1
SFAC C  
C      1  0.4311390000000  0.4329190000000  0.4409920000000 1.0
C      1  0.4384180000000  0.4835510000000  0.5827680000000 1.0
C      1  0.4356240000000  0.5836210000000  0.4702890000000 1.0
C      1  0.5570840000000  0.4311340000000  0.4398700000000 1.0
C      1  0.5652980000000  0.4846260000000  0.5842840000000 1.0
C      1  0.5615570000000  0.5822730000000  0.4712550000000 1.0
C      1  0.4425850000000  0.5671670000000  0.4411130000000 1.0
C      1  0.4344760000000  0.5173850000000  0.5859390000000 1.0
C      1  0.4375970000000  0.4163320000000  0.4702360000000 1.0
C      1  0.5669790000000  0.5636610000000  0.4431780000000 1.0
C      1  0.5611140000000  0.5187590000000  0.5872580000000 1.0
C      1  0.5620260000000  0.4188900000000  0.4715340000000 1.0
C      1  0.4768600000000  0.4364350000000  0.4169120000000 1.0
C      1  0.4861400000000  0.4557280000000  0.5960380000000 1.0
C      1  0.4808190000000  0.6043340000000  0.4855980000000 1.0
C      1  0.5096610000000  0.4372810000000  0.4083990000000 1.0
C      1  0.5189880000000  0.4602590000000  0.5988220000000 1.0
C      1  0.5132240000000  0.6062510000000  0.4905270000000 1.0
C      1  0.4903680000000  0.5581770000000  0.4115740000000 1.0
C      1  0.4793090000000  0.5451650000000  0.6041750000000 1.0
C      1  0.4849520000000  0.3906610000000  0.4905220000000 1.0
C      1  0.5228270000000  0.5633990000000  0.4124220000000 1.0
C      1  0.5127080000000  0.5496110000000  0.6021540000000 1.0
C      1  0.5171670000000  0.3885540000000  0.4847910000000 1.0
C      1  0.5139220000000  0.5734110000000  0.5131210000000 1.0
C      1  0.5127690000000  0.4711400000000  0.4293830000000 1.0
C      1  0.5190270000000  0.4621810000000  0.5588970000000 1.0
C      1  0.4824930000000  0.5695450000000  0.5057160000000 1.0
C      1  0.4850960000000  0.4879360000000  0.4308310000000 1.0
C      1  0.4879440000000  0.4505100000000  0.5525860000000 1.0
C      1  0.5184700000000  0.4338140000000  0.5117320000000 1.0
C      1  0.5199810000000  0.5295510000000  0.4339200000000 1.0
C      1  0.5182570000000  0.5449290000000  0.5552790000000 1.0
C      1  0.4910930000000  0.4303380000000  0.5272540000000 1.0
C      1  0.4881300000000  0.5206990000000  0.4296930000000 1.0
C      1  0.4870560000000  0.5438830000000  0.5523650000000 1.0
C      1  0.5080090000000  0.4427160000000  0.4411630000000 1.0
C      1  0.5144040000000  0.4860920000000  0.5777340000000 1.0
C      1  0.5209000000000  0.5740110000000  0.4816010000000 1.0
C      1  0.4689390000000  0.4423590000000  0.4491660000000 1.0
C      1  0.4760920000000  0.4764050000000  0.5716780000000 1.0
C      1  0.4734520000000  0.5728220000000  0.4758710000000 1.0
C      1  0.5194380000000  0.5574960000000  0.4452490000000 1.0
C      1  0.5111140000000  0.5258410000000  0.5787350000000 1.0
C      1  0.5143470000000  0.4224030000000  0.4836410000000 1.0
C      1  0.4800400000000  0.5512290000000  0.4428750000000 1.0
C      1  0.4714220000000  0.5287070000000  0.5766570000000 1.0
C      1  0.4743760000000  0.4216660000000  0.4849720000000 1.0
C      1  0.6135210000000  0.5284910000000  0.4772320000000 1.0
C      1  0.5923470000000  0.4614900000000  0.4964460000000 1.0
C      1  0.5853530000000  0.5100390000000  0.5197740000000 1.0
C      1  0.3957740000000  0.5132860000000  0.4763570000000 1.0
C      1  0.4102790000000  0.4648490000000  0.4980780000000 1.0
C      1  0.4161140000000  0.5191940000000  0.5230250000000 1.0
C      1  0.6209160000000  0.5084470000000  0.4602400000000 1.0
C      1  0.5914980000000  0.5339000000000  0.5026980000000 1.0
C      1  0.5918240000000  0.4781220000000  0.5190590000000 1.0
C      1  0.3962220000000  0.4863050000000  0.4755570000000 1.0
C      1  0.4096760000000  0.5350880000000  0.4986030000000 1.0
C      1  0.4148330000000  0.4826560000000  0.5211400000000 1.0
C      1  0.4652550000000  0.4436900000000  0.5068590000000 1.0
C      1  0.4620840000000  0.5284100000000  0.5379340000000 1.0
C      1  0.4601550000000  0.5166160000000  0.4518020000000 1.0
C      1  0.5425720000000  0.4480120000000  0.5177370000000 1.0
C      1  0.5429940000000  0.5365330000000  0.5388780000000 1.0
C      1  0.5424060000000  0.5131230000000  0.4498850000000 1.0
C      1  0.4587950000000  0.5483770000000  0.5122380000000 1.0
C      1  0.4626630000000  0.4648840000000  0.5337370000000 1.0
C      1  0.4544130000000  0.4841640000000  0.4471170000000 1.0
C      1  0.5399170000000  0.5514430000000  0.5105490000000 1.0
C      1  0.5405740000000  0.4684910000000  0.5389980000000 1.0
C      1  0.5359590000000  0.4806710000000  0.4499290000000 1.0
C      1  0.4874310000000  0.5160310000000  0.4691840000000 1.0
C      1  0.4909290000000  0.4630990000000  0.4993630000000 1.0
C      1  0.4902610000000  0.5103690000000  0.5313740000000 1.0
C      1  0.5166690000000  0.5100770000000  0.4683270000000 1.0
C      1  0.5220370000000  0.4660120000000  0.4886700000000 1.0
C      1  0.5194300000000  0.5202300000000  0.5241160000000 1.0
C      1  0.4757310000000  0.4844770000000  0.4695030000000 1.0
C      1  0.4854770000000  0.5299860000000  0.5060470000000 1.0
C      1  0.4901130000000  0.4814100000000  0.5274170000000 1.0
C      1  0.5058330000000  0.4807210000000  0.4669640000000 1.0
C      1  0.5132370000000  0.5376740000000  0.4962330000000 1.0
C      1  0.5206520000000  0.4811890000000  0.5182190000000 1.0
C      1  0.5670850000000  0.5337620000000  0.4267160000000 1.0
C      1  0.5646950000000  0.4172950000000  0.5056280000000 1.0
C      1  0.5670410000000  0.5471310000000  0.5688180000000 1.0
C      1  0.4372900000000  0.5366500000000  0.4265230000000 1.0
C      1  0.4338900000000  0.4193700000000  0.5040000000000 1.0
C      1  0.4365510000000  0.5441200000000  0.5648210000000 1.0
C      1  0.5622440000000  0.4620630000000  0.4264010000000 1.0
C      1  0.5664950000000  0.5801230000000  0.5048720000000 1.0
C      1  0.5647960000000  0.4546540000000  0.5674460000000 1.0
C      1  0.4331640000000  0.4625530000000  0.4243990000000 1.0
C      1  0.4363890000000  0.5800670000000  0.5040990000000 1.0
C      1  0.4344120000000  0.4536320000000  0.5666050000000 1.0
C      1  0.4353330000000  0.5488590000000  0.4897150000000 1.0
C      1  0.4426320000000  0.4571260000000  0.4609290000000 1.0
C      1  0.4426580000000  0.4808300000000  0.5495150000000 1.0
C      1  0.5664240000000  0.5483540000000  0.4916410000000 1.0
C      1  0.5563500000000  0.4578410000000  0.4599950000000 1.0
C      1  0.5638030000000  0.4848540000000  0.5511070000000 1.0
C      1  0.4361960000000  0.4506980000000  0.4903190000000 1.0
C      1  0.4420260000000  0.5409510000000  0.4606960000000 1.0
C      1  0.4410080000000  0.5120040000000  0.5534980000000 1.0
C      1  0.5678420000000  0.4468330000000  0.4886280000000 1.0
C      1  0.5625300000000  0.5364230000000  0.4612360000000 1.0
C      1  0.5622410000000  0.5166980000000  0.5538750000000 1.0
C      1  0.4181860000000  0.5654440000000  0.5503230000000 1.0
C      1  0.4170810000000  0.5128570000000  0.4201760000000 1.0
C      1  0.4145300000000  0.4209320000000  0.5296790000000 1.0
C      1  0.5861650000000  0.5673740000000  0.5523440000000 1.0
C      1  0.5848590000000  0.5090350000000  0.4179330000000 1.0
C      1  0.5828350000000  0.4192940000000  0.5321070000000 1.0
C      1  0.4154310000000  0.4331440000000  0.5511810000000 1.0
C      1  0.4157260000000  0.4880190000000  0.4202850000000 1.0
C      1  0.4171100000000  0.5790520000000  0.5297250000000 1.0
C      1  0.5826160000000  0.4324570000000  0.5529920000000 1.0
C      1  0.5828690000000  0.4844990000000  0.4180200000000 1.0
C      1  0.5859650000000  0.5802900000000  0.5311220000000 1.0
C      1  0.4617170000000  0.5157490000000  0.6060370000000 1.0
C      1  0.4698560000000  0.5798030000000  0.4282820000000 1.0
C      1  0.4641390000000  0.3971680000000  0.4642750000000 1.0
C      1  0.5329610000000  0.5220500000000  0.6027320000000 1.0
C      1  0.5402310000000  0.5806730000000  0.4364560000000 1.0
C      1  0.5340340000000  0.4069400000000  0.4616340000000 1.0
C      1  0.4652480000000  0.4819860000000  0.6030790000000 1.0
C      1  0.4587090000000  0.4137680000000  0.4350530000000 1.0
C      1  0.4635600000000  0.5974360000000  0.4567230000000 1.0
C      1  0.5379220000000  0.4888020000000  0.6000300000000 1.0
C      1  0.5287450000000  0.4196360000000  0.4306790000000 1.0
C      1  0.5340500000000  0.5993160000000  0.4643250000000 1.0
C      1  0.6050200000000  0.4747170000000  0.5480740000000 1.0
C      1  0.6136350000000  0.5544450000000  0.5187890000000 1.0
C      1  0.6231120000000  0.4814610000000  0.4603040000000 1.0
C      1  0.3995620000000  0.4911480000000  0.5462250000000 1.0
C      1  0.3829360000000  0.5562240000000  0.4975660000000 1.0
C      1  0.3780990000000  0.4622990000000  0.4746450000000 1.0
C      1  0.5995450000000  0.5047110000000  0.5475490000000 1.0
C      1  0.6126070000000  0.4631630000000  0.4772860000000 1.0
C      1  0.6270320000000  0.5495630000000  0.4932790000000 1.0
C      1  0.4000110000000  0.5183090000000  0.5505580000000 1.0
C      1  0.3838500000000  0.4433190000000  0.4967240000000 1.0
C      1  0.3769140000000  0.5367930000000  0.4759280000000 1.0
C      1  0.4814900000000  0.3989700000000  0.5228790000000 1.0
C      1  0.4843390000000  0.5664090000000  0.5776110000000 1.0
C      1  0.4842360000000  0.5279820000000  0.3971470000000 1.0
C      1  0.5151360000000  0.4001650000000  0.5168790000000 1.0
C      1  0.5184100000000  0.5713570000000  0.5763330000000 1.0
C      1  0.5182450000000  0.5313330000000  0.4009450000000 1.0
C      1  0.4847460000000  0.5999210000000  0.5194310000000 1.0
C      1  0.4817130000000  0.4276980000000  0.5770540000000 1.0
C      1  0.4827350000000  0.4671960000000  0.4036560000000 1.0
C      1  0.5185580000000  0.6035330000000  0.5241870000000 1.0
C      1  0.5152670000000  0.4342370000000  0.5768000000000 1.0
C      1  0.5164800000000  0.4685880000000  0.3968400000000 1.0
C      1  0.4552010000000  0.5138810000000  0.4082010000000 1.0
C      1  0.4539430000000  0.4146900000000  0.5314740000000 1.0
C      1  0.4574280000000  0.5698600000000  0.5566760000000 1.0
C      1  0.5460850000000  0.5131160000000  0.4091020000000 1.0
C      1  0.5437830000000  0.4109830000000  0.5320710000000 1.0
C      1  0.5468720000000  0.5723160000000  0.5575090000000 1.0
C      1  0.4533260000000  0.4840730000000  0.4072790000000 1.0
C      1  0.4566380000000  0.5845100000000  0.5315540000000 1.0
C      1  0.4548210000000  0.4284350000000  0.5561800000000 1.0
C      1  0.5439630000000  0.4848380000000  0.4087710000000 1.0
C      1  0.5464850000000  0.5857000000000  0.5322070000000 1.0
C      1  0.5429430000000  0.4302250000000  0.5572450000000 1.0
C      1  0.4628960000000  0.4824380000000  0.4981570000000 1.0
C      1  0.5486610000000  0.4842170000000  0.4901410000000 1.0
C      1  0.4616780000000  0.5144650000000  0.4916330000000 1.0
C      1  0.5397940000000  0.5172510000000  0.4898550000000 1.0
C      1  0.4411850000000  0.5002640000000  0.5145890000000 1.0
C      1  0.5480540000000  0.5022820000000  0.5189620000000 1.0
C      1  0.4903880000000  0.5038530000000  0.5706010000000 1.0
C      1  0.4945230000000  0.4387980000000  0.4672340000000 1.0
C      1  0.4988950000000  0.5582300000000  0.4671370000000 1.0
END
