TITL C-2782228-2999-1023 0.000397946179177635 125000 -389.948151674018 0 0 68 (C1) n - 1
REM
REM in /home/nfs/bkarasulu/CARBON/AIRSS/Generating-Clusters/REBO/Higher-Symm/SD-CG/HFTN-CG
REM
REM
REM
REM
REM
REM ./C.cell (12c818d87b63d06a65506943cc24bca4)
REM
REM compiler GCC version 9.2.1 20190827 (Red Hat 9.2.1-1)
REM options -cpp -mtune=generic -march=x86-64 -g -O0 -fpre-include=/usr/include/finclude/math-vector-fortran.h
REM seed 471493535 1368845510 -236434483 -1260334268 1394820545 1937888169 458919343 -839761992 -1311776108 527924041 -294687435 -190549488 -789648342 2012450817 -1155239186 -1725814490 -323977014 -785110456 -1284566469 -1166392430 -343924412 1822209469 -494936769 -1143130327 164650954 1411401985 -1352849621 -955446024 -908791146 998981870 631852626 322760948 1471898092
REM
CELL 1.54180   50.00000   50.00000   50.00000   90.00000   90.00000   90.00000
LATT -1
SFAC C  
C      1  0.4627770000000  0.5187520000000  0.4845090000000 1.0
C      1  0.4887500000000  0.5228360000000  0.5373690000000 1.0
C      1  0.5406740000000  0.5198760000000  0.5176040000000 1.0
C      1  0.5150270000000  0.5207540000000  0.4701130000000 1.0
C      1  0.5368820000000  0.5153160000000  0.4891470000000 1.0
C      1  0.5185720000000  0.5213810000000  0.5384770000000 1.0
C      1  0.4694290000000  0.5173870000000  0.5149530000000 1.0
C      1  0.4836510000000  0.5204640000000  0.4625770000000 1.0
C      1  0.4844900000000  0.4702140000000  0.4597760000000 1.0
C      1  0.4638340000000  0.4678130000000  0.5160650000000 1.0
C      1  0.5213340000000  0.4746170000000  0.5414770000000 1.0
C      1  0.5414540000000  0.4757260000000  0.4865900000000 1.0
C      1  0.5174050000000  0.4713420000000  0.4651460000000 1.0
C      1  0.5440770000000  0.4798830000000  0.5196740000000 1.0
C      1  0.4886540000000  0.4715690000000  0.5366110000000 1.0
C      1  0.4616120000000  0.4643290000000  0.4831830000000 1.0
C      1  0.5167990000000  0.4962520000000  0.4473070000000 1.0
C      1  0.4464750000000  0.4904080000000  0.4748780000000 1.0
C      1  0.4782920000000  0.4965110000000  0.5504180000000 1.0
C      1  0.5675310000000  0.4974150000000  0.5288820000000 1.0
C      1  0.4769900000000  0.4940200000000  0.4446330000000 1.0
C      1  0.5618080000000  0.4982900000000  0.4742850000000 1.0
C      1  0.5230440000000  0.4983360000000  0.5633630000000 1.0
C      1  0.4490620000000  0.4929540000000  0.5234360000000 1.0
C      1  0.4452780000000  0.5409260000000  0.5128020000000 1.0
C      1  0.5274530000000  0.5468330000000  0.5610850000000 1.0
C      1  0.5577470000000  0.5482580000000  0.4709210000000 1.0
C      1  0.4774720000000  0.5442680000000  0.4387680000000 1.0
C      1  0.5632660000000  0.5440500000000  0.5253710000000 1.0
C      1  0.4771410000000  0.5469730000000  0.5572680000000 1.0
C      1  0.4380210000000  0.5416760000000  0.4795760000000 1.0
C      1  0.5107360000000  0.5431400000000  0.4441200000000 1.0
C      1  0.5917260000000  0.4944230000000  0.5119080000000 1.0
C      1  0.5099740000000  0.5087800000000  0.4168250000000 1.0
C      1  0.4187980000000  0.5071030000000  0.4853200000000 1.0
C      1  0.4691820000000  0.5027220000000  0.5792020000000 1.0
C      1  0.4200150000000  0.5079060000000  0.5141840000000 1.0
C      1  0.4803690000000  0.5066570000000  0.4134820000000 1.0
C      1  0.5896330000000  0.4951630000000  0.4866530000000 1.0
C      1  0.4992370000000  0.4980490000000  0.5843690000000 1.0
C      1  0.5669530000000  0.5221070000000  0.5474980000000 1.0
C      1  0.5353630000000  0.5218030000000  0.4358610000000 1.0
C      1  0.4346390000000  0.5168640000000  0.4564670000000 1.0
C      1  0.4561610000000  0.5268070000000  0.5641850000000 1.0
C      1  0.4385620000000  0.5210460000000  0.5398410000000 1.0
C      1  0.4558140000000  0.5187870000000  0.4340750000000 1.0
C      1  0.5576680000000  0.5247590000000  0.4564130000000 1.0
C      1  0.5460820000000  0.5226630000000  0.5670570000000 1.0
C      1  0.4788040000000  0.4374640000000  0.4590870000000 1.0
C      1  0.4588450000000  0.4357220000000  0.5109290000000 1.0
C      1  0.5142390000000  0.4413400000000  0.5394040000000 1.0
C      1  0.5354900000000  0.4422480000000  0.4853320000000 1.0
C      1  0.5091610000000  0.4391350000000  0.4636530000000 1.0
C      1  0.5373720000000  0.4484670000000  0.5155190000000 1.0
C      1  0.4836490000000  0.4384690000000  0.5344540000000 1.0
C      1  0.4539270000000  0.4315760000000  0.4811490000000 1.0
C      1  0.4634190000000  0.5624530000000  0.4845920000000 1.0
C      1  0.4889740000000  0.5627090000000  0.5343700000000 1.0
C      1  0.5385910000000  0.5597200000000  0.5148360000000 1.0
C      1  0.5126820000000  0.5618210000000  0.4719320000000 1.0
C      1  0.5366220000000  0.5605770000000  0.4861110000000 1.0
C      1  0.5179820000000  0.5612360000000  0.5352960000000 1.0
C      1  0.4706020000000  0.5635870000000  0.5133350000000 1.0
C      1  0.4833670000000  0.5625210000000  0.4655590000000 1.0
C      1  0.5408130000000  0.4233270000000  0.5361970000000 1.0
C      1  0.5329780000000  0.4172170000000  0.4652350000000 1.0
C      1  0.4610090000000  0.4155840000000  0.5361590000000 1.0
C      1  0.4555580000000  0.4157640000000  0.4531240000000 1.0
END
