TITL C-2782226-7400-1006 0.00328473635248674 125000 -648.863093286954 0 0 110 (C1) n - 1
REM
REM in /home/nfs/bkarasulu/CARBON/AIRSS/Generating-Clusters/REBO/Higher-Symm/SD-CG/HFTN-CG
REM
REM
REM
REM
REM
REM ./C.cell (12c818d87b63d06a65506943cc24bca4)
REM
REM compiler GCC version 9.2.1 20190827 (Red Hat 9.2.1-1)
REM options -cpp -mtune=generic -march=x86-64 -g -O0 -fpre-include=/usr/include/finclude/math-vector-fortran.h
REM seed -1539195679 929436620 1891868101 411290753 899265478 1651649650 -885296739 1700528356 1029707790 -137779180 848376656 -1213487122 -1081763219 -1166056013 120324453 2108301044 -123415073 -2118182751 -1409706683 281962827 2031786438 -685075617 -1135479694 639955155 -865093689 -308924073 1068405751 686877121 1557026796 -5992437 -72290144 1856214426 766562938
REM
CELL 1.54180   50.00000   50.00000   50.00000   90.00000   90.00000   90.00000
LATT -1
SFAC C  
C      1  0.4417490000000  0.5259340000000  0.4986120000000 1.0
C      1  0.4839020000000  0.5227450000000  0.5511830000000 1.0
C      1  0.5416860000000  0.5229960000000  0.5295490000000 1.0
C      1  0.5446920000000  0.5276660000000  0.4697540000000 1.0
C      1  0.4815700000000  0.5274830000000  0.4482020000000 1.0
C      1  0.5768990000000  0.5221340000000  0.4699800000000 1.0
C      1  0.4955670000000  0.5272210000000  0.4183890000000 1.0
C      1  0.4171620000000  0.5249770000000  0.4771830000000 1.0
C      1  0.4555370000000  0.5233990000000  0.5683140000000 1.0
C      1  0.5514470000000  0.5211920000000  0.5614290000000 1.0
C      1  0.5005990000000  0.5589990000000  0.5528980000000 1.0
C      1  0.5521120000000  0.5587520000000  0.5150560000000 1.0
C      1  0.5366690000000  0.5620470000000  0.4513650000000 1.0
C      1  0.4608260000000  0.5614170000000  0.4516820000000 1.0
C      1  0.4456630000000  0.5610530000000  0.5169900000000 1.0
C      1  0.4594800000000  0.4355860000000  0.4802960000000 1.0
C      1  0.4688140000000  0.4352810000000  0.5327820000000 1.0
C      1  0.5218520000000  0.4333020000000  0.5385190000000 1.0
C      1  0.5407660000000  0.4333500000000  0.4910840000000 1.0
C      1  0.5083230000000  0.4342250000000  0.4567630000000 1.0
C      1  0.5749530000000  0.4599050000000  0.4681120000000 1.0
C      1  0.4945250000000  0.4572720000000  0.4264640000000 1.0
C      1  0.4255860000000  0.4575200000000  0.4823900000000 1.0
C      1  0.4600130000000  0.4606850000000  0.5658200000000 1.0
C      1  0.5543030000000  0.4611880000000  0.5626940000000 1.0
C      1  0.4210540000000  0.4634740000000  0.5310200000000 1.0
C      1  0.5071280000000  0.4577610000000  0.5847680000000 1.0
C      1  0.5817000000000  0.4559730000000  0.5196240000000 1.0
C      1  0.5461860000000  0.4639200000000  0.4282970000000 1.0
C      1  0.4460900000000  0.4626870000000  0.4346170000000 1.0
C      1  0.5714590000000  0.5275700000000  0.4308050000000 1.0
C      1  0.4563080000000  0.5260680000000  0.4119710000000 1.0
C      1  0.4025230000000  0.5269290000000  0.5140770000000 1.0
C      1  0.4841740000000  0.5285190000000  0.5954830000000 1.0
C      1  0.5868240000000  0.5287370000000  0.5446490000000 1.0
C      1  0.4717840000000  0.4172580000000  0.5052990000000 1.0
C      1  0.4958750000000  0.4160310000000  0.5281830000000 1.0
C      1  0.5248190000000  0.4130630000000  0.5119120000000 1.0
C      1  0.5186830000000  0.4110220000000  0.4791400000000 1.0
C      1  0.4860410000000  0.4163850000000  0.4750220000000 1.0
C      1  0.5098520000000  0.5741750000000  0.4386940000000 1.0
C      1  0.4361470000000  0.5721400000000  0.4681690000000 1.0
C      1  0.4513170000000  0.5689440000000  0.5476340000000 1.0
C      1  0.5306150000000  0.5669430000000  0.5604980000000 1.0
C      1  0.5703080000000  0.5687370000000  0.4906930000000 1.0
C      1  0.4276570000000  0.5549680000000  0.4895390000000 1.0
C      1  0.4699890000000  0.5522130000000  0.5617880000000 1.0
C      1  0.5503080000000  0.5510140000000  0.5469160000000 1.0
C      1  0.5651210000000  0.5538730000000  0.4667140000000 1.0
C      1  0.4882080000000  0.5567190000000  0.4337970000000 1.0
C      1  0.4741020000000  0.4831990000000  0.4692080000000 1.0
C      1  0.4623810000000  0.4841730000000  0.5148040000000 1.0
C      1  0.5020970000000  0.4731950000000  0.5543440000000 1.0
C      1  0.5522330000000  0.4730560000000  0.5163310000000 1.0
C      1  0.5202400000000  0.4854740000000  0.4684600000000 1.0
C      1  0.4992560000000  0.5609250000000  0.5213970000000 1.0
C      1  0.5226360000000  0.5605200000000  0.5042570000000 1.0
C      1  0.5136070000000  0.5612900000000  0.4763420000000 1.0
C      1  0.4843320000000  0.5611580000000  0.4762820000000 1.0
C      1  0.4754980000000  0.5611860000000  0.5044760000000 1.0
C      1  0.4204430000000  0.4909060000000  0.5476180000000 1.0
C      1  0.5152920000000  0.4898870000000  0.5929100000000 1.0
C      1  0.5914270000000  0.4883820000000  0.5152500000000 1.0
C      1  0.5330960000000  0.4914080000000  0.4186300000000 1.0
C      1  0.4302090000000  0.4896740000000  0.4415650000000 1.0
C      1  0.5851420000000  0.5169320000000  0.4977090000000 1.0
C      1  0.5245130000000  0.5226500000000  0.4185220000000 1.0
C      1  0.4270990000000  0.5206770000000  0.4500190000000 1.0
C      1  0.4318010000000  0.5211610000000  0.5517390000000 1.0
C      1  0.5285830000000  0.5183400000000  0.5795900000000 1.0
C      1  0.5344960000000  0.5088710000000  0.4481910000000 1.0
C      1  0.4589810000000  0.5068930000000  0.4493310000000 1.0
C      1  0.4370670000000  0.5059760000000  0.5211690000000 1.0
C      1  0.5014340000000  0.5043260000000  0.5647040000000 1.0
C      1  0.5609540000000  0.5044430000000  0.5181630000000 1.0
C      1  0.4740840000000  0.5009580000000  0.4128680000000 1.0
C      1  0.4052530000000  0.5003530000000  0.4978980000000 1.0
C      1  0.4704840000000  0.5012710000000  0.5896500000000 1.0
C      1  0.5779090000000  0.5009750000000  0.5541590000000 1.0
C      1  0.5774250000000  0.5006840000000  0.4435680000000 1.0
C      1  0.4532510000000  0.4822270000000  0.5462890000000 1.0
C      1  0.5332210000000  0.4812510000000  0.5658580000000 1.0
C      1  0.5720650000000  0.4801040000000  0.4892900000000 1.0
C      1  0.5103530000000  0.4794820000000  0.4390070000000 1.0
C      1  0.4424620000000  0.4791780000000  0.4708190000000 1.0
C      1  0.5224050000000  0.4595980000000  0.4851520000000 1.0
C      1  0.4917590000000  0.4580720000000  0.4738380000000 1.0
C      1  0.4730160000000  0.4590400000000  0.5010630000000 1.0
C      1  0.4929290000000  0.4590580000000  0.5288250000000 1.0
C      1  0.5248880000000  0.4591760000000  0.5171360000000 1.0
C      1  0.4909730000000  0.5218330000000  0.5225500000000 1.0
C      1  0.5164460000000  0.5216920000000  0.5141890000000 1.0
C      1  0.5193760000000  0.5151610000000  0.4845950000000 1.0
C      1  0.4891600000000  0.5121410000000  0.4747980000000 1.0
C      1  0.4707270000000  0.5133140000000  0.5010580000000 1.0
C      1  0.5697860000000  0.4406920000000  0.4918150000000 1.0
C      1  0.5252700000000  0.4436190000000  0.4315600000000 1.0
C      1  0.4408500000000  0.4426570000000  0.4558210000000 1.0
C      1  0.4406270000000  0.4449510000000  0.5427340000000 1.0
C      1  0.5301830000000  0.4418190000000  0.5658630000000 1.0
C      1  0.4768200000000  0.4732210000000  0.5853060000000 1.0
C      1  0.5759240000000  0.4728790000000  0.5486460000000 1.0
C      1  0.5701320000000  0.4723600000000  0.4429970000000 1.0
C      1  0.4699720000000  0.4718790000000  0.4201070000000 1.0
C      1  0.4121570000000  0.4712870000000  0.5041340000000 1.0
C      1  0.4208280000000  0.5413250000000  0.5292810000000 1.0
C      1  0.5048830000000  0.5404390000000  0.5811370000000 1.0
C      1  0.5797320000000  0.5395430000000  0.5201420000000 1.0
C      1  0.5478210000000  0.5413490000000  0.4293120000000 1.0
C      1  0.4450440000000  0.5402540000000  0.4327060000000 1.0
END
