TITL C-2782237-5345-82 -5.51859370856417e-07 125000 -51.6947700181919 0 0 9 (D3h) n - 1
REM
REM in /home/nfs/bkarasulu/CARBON/AIRSS/Generating-Clusters/REBO/Higher-Symm/SD-CG/HFTN-CG
REM
REM
REM
REM
REM
REM ./C.cell (12c818d87b63d06a65506943cc24bca4)
REM
REM compiler GCC version 9.2.1 20190827 (Red Hat 9.2.1-1)
REM options -cpp -mtune=generic -march=x86-64 -g -O0 -fpre-include=/usr/include/finclude/math-vector-fortran.h
REM seed 1506174680 -261892403 -1997308650 -1732494851 1157337641 258406201 1763568501 923301590 50901391 -743355901 -843727471 -1429529806 1393909566 2036467390 -652279903 1915955029 1015999359 25490623 2107954243 1880933049 833933959 511470352 218014214 -1567346966 -1589413436 915955571 -632264956 -69481501 -686537189 755521495 -269166192 -1838534650 -974951028
REM
CELL 1.54180   50.00000   50.00000   50.00000   90.00000   90.00000   90.00000
LATT -1
SFAC C  
C      1  0.5000000000000  0.4873400000000  0.4623970000000 1.0
C      1  0.5000000000000  0.4661310000000  0.4793320000000 1.0
C      1  0.5000000000000  0.4607700000000  0.5059380000000 1.0
C      1  0.5000000000000  0.4737650000000  0.5297650000000 1.0
C      1  0.5000000000000  0.4990360000000  0.5396650000000 1.0
C      1  0.5000000000000  0.5247570000000  0.5310050000000 1.0
C      1  0.5000000000000  0.5388950000000  0.5078370000000 1.0
C      1  0.5000000000000  0.5348330000000  0.4810030000000 1.0
C      1  0.5000000000000  0.5144720000000  0.4630570000000 1.0
END
