TITL C-2782229-3092-204 0.00151695551097103 125000 -296.806629340108 0 0 54 (C2h) n - 1
REM
REM in /home/nfs/bkarasulu/CARBON/AIRSS/Generating-Clusters/REBO/Higher-Symm/SD-CG/HFTN-CG
REM
REM
REM
REM
REM
REM ./C.cell (12c818d87b63d06a65506943cc24bca4)
REM
REM compiler GCC version 9.2.1 20190827 (Red Hat 9.2.1-1)
REM options -cpp -mtune=generic -march=x86-64 -g -O0 -fpre-include=/usr/include/finclude/math-vector-fortran.h
REM seed -2118919520 -2090469675 469390332 -894943336 1324257953 1648316197 2138904653 1718402982 -1232469009 -907798727 1715330730 -375663709 1049896992 132643977 -876561769 -407095793 2099951717 -2142558338 1149520626 -1337743344 -2088696754 -1378530782 -1394194636 -85162978 -77239493 1952624891 1823655019 -982086124 -242289349 -2028332400 -511147203 -1100943288 2039773372
REM
CELL 1.54180   50.00000   50.00000   50.00000   90.00000   90.00000   90.00000
LATT -1
SFAC C  
C      1  0.5166650000000  0.5189030000000  0.5806250000000 1.0
C      1  0.4858420000000  0.5153230000000  0.4195660000000 1.0
C      1  0.5141580000000  0.4875940000000  0.5804340000000 1.0
C      1  0.4833350000000  0.4840140000000  0.4193750000000 1.0
C      1  0.4858810000000  0.5153580000000  0.5801760000000 1.0
C      1  0.5166480000000  0.5188220000000  0.4194800000000 1.0
C      1  0.4833520000000  0.4840950000000  0.5805200000000 1.0
C      1  0.5141190000000  0.4875590000000  0.4198240000000 1.0
C      1  0.5462750000000  0.5281250000000  0.4865480000000 1.0
C      1  0.4572140000000  0.5264870000000  0.5133850000000 1.0
C      1  0.5427860000000  0.4764310000000  0.4866150000000 1.0
C      1  0.4537250000000  0.4747930000000  0.5134520000000 1.0
C      1  0.4572810000000  0.5266110000000  0.4860870000000 1.0
C      1  0.5464530000000  0.5280670000000  0.5137660000000 1.0
C      1  0.4535470000000  0.4748510000000  0.4862340000000 1.0
C      1  0.5427190000000  0.4763060000000  0.5139130000000 1.0
C      1  0.4752360000000  0.5297060000000  0.4439880000000 1.0
C      1  0.5255600000000  0.5333070000000  0.5549960000000 1.0
C      1  0.4744400000000  0.4696100000000  0.4450040000000 1.0
C      1  0.5247640000000  0.4732110000000  0.5560120000000 1.0
C      1  0.5252910000000  0.5332860000000  0.4451440000000 1.0
C      1  0.4754340000000  0.5296650000000  0.5556600000000 1.0
C      1  0.5245660000000  0.4732530000000  0.4443400000000 1.0
C      1  0.4747090000000  0.4696320000000  0.5548560000000 1.0
C      1  0.4817440000000  0.5669680000000  0.4831420000000 1.0
C      1  0.5205730000000  0.5582850000000  0.5164720000000 1.0
C      1  0.4794270000000  0.4446330000000  0.4835280000000 1.0
C      1  0.5182560000000  0.4359490000000  0.5168580000000 1.0
C      1  0.5201740000000  0.5580770000000  0.4835050000000 1.0
C      1  0.4820320000000  0.5674620000000  0.5170980000000 1.0
C      1  0.5179680000000  0.4354550000000  0.4829020000000 1.0
C      1  0.4798260000000  0.4448400000000  0.5164950000000 1.0
C      1  0.5512040000000  0.4879840000000  0.4582900000000 1.0
C      1  0.4474400000000  0.4859140000000  0.5421820000000 1.0
C      1  0.5525600000000  0.5170040000000  0.4578180000000 1.0
C      1  0.4487960000000  0.5149340000000  0.5417100000000 1.0
C      1  0.4469640000000  0.4858900000000  0.4573660000000 1.0
C      1  0.5515020000000  0.4879730000000  0.5421650000000 1.0
C      1  0.4484980000000  0.5149450000000  0.4578350000000 1.0
C      1  0.5530360000000  0.5170280000000  0.5426340000000 1.0
C      1  0.4854980000000  0.5153090000000  0.4725380000000 1.0
C      1  0.5172300000000  0.5190460000000  0.5257980000000 1.0
C      1  0.4827700000000  0.4838720000000  0.4742020000000 1.0
C      1  0.5145020000000  0.4876080000000  0.5274620000000 1.0
C      1  0.5167120000000  0.5192690000000  0.4745910000000 1.0
C      1  0.4857520000000  0.5153190000000  0.5269450000000 1.0
C      1  0.5142480000000  0.4875980000000  0.4730550000000 1.0
C      1  0.4832880000000  0.4836490000000  0.5254090000000 1.0
C      1  0.5013410000000  0.4526110000000  0.4584140000000 1.0
C      1  0.5016750000000  0.4525490000000  0.5417490000000 1.0
C      1  0.4983250000000  0.5503690000000  0.4582510000000 1.0
C      1  0.4986590000000  0.5503060000000  0.5415860000000 1.0
C      1  0.4957210000000  0.5411720000000  0.5004990000000 1.0
C      1  0.5042790000000  0.4617460000000  0.4995010000000 1.0
END
