TITL C-2782237-5345-77 0.00544331946190354 125000 -365.773240825095 0 0 63 (C1) n - 1
REM
REM in /home/nfs/bkarasulu/CARBON/AIRSS/Generating-Clusters/REBO/Higher-Symm/SD-CG/HFTN-CG
REM
REM
REM
REM
REM
REM ./C.cell (12c818d87b63d06a65506943cc24bca4)
REM
REM compiler GCC version 9.2.1 20190827 (Red Hat 9.2.1-1)
REM options -cpp -mtune=generic -march=x86-64 -g -O0 -fpre-include=/usr/include/finclude/math-vector-fortran.h
REM seed -857039879 -1605753871 -270319493 683472608 -1790455050 2112276431 93095674 -1067774352 -876768436 -966847793 253520133 1431010315 -1148506217 -685602848 -407398880 -589464776 -885468494 -383600137 1969414037 2028621184 -932536912 -1447087561 -141618382 1232994528 -1236743479 1747790027 -2108350645 1296222486 -1729815271 -1182109189 -719276608 -1009567060 355573970
REM
CELL 1.54180   50.00000   50.00000   50.00000   90.00000   90.00000   90.00000
LATT -1
SFAC C  
C      1  0.4952530000000  0.5169720000000  0.5274860000000 1.0
C      1  0.5371440000000  0.5080550000000  0.4288980000000 1.0
C      1  0.5575430000000  0.5553390000000  0.4648680000000 1.0
C      1  0.4326390000000  0.5399700000000  0.5115980000000 1.0
C      1  0.5329180000000  0.4547000000000  0.4814740000000 1.0
C      1  0.5335760000000  0.5030600000000  0.5608140000000 1.0
C      1  0.4974330000000  0.5364710000000  0.5508000000000 1.0
C      1  0.5185080000000  0.5321560000000  0.4268730000000 1.0
C      1  0.5525870000000  0.4932970000000  0.5412820000000 1.0
C      1  0.4917180000000  0.5222680000000  0.4981980000000 1.0
C      1  0.5258290000000  0.5319040000000  0.5581950000000 1.0
C      1  0.5284470000000  0.4829780000000  0.4422430000000 1.0
C      1  0.4268940000000  0.5017980000000  0.4566030000000 1.0
C      1  0.5089660000000  0.4861630000000  0.4872240000000 1.0
C      1  0.5529490000000  0.5118990000000  0.5130210000000 1.0
C      1  0.5076770000000  0.5541260000000  0.4804700000000 1.0
C      1  0.5281390000000  0.4910260000000  0.5101030000000 1.0
C      1  0.5720180000000  0.4792570000000  0.4703420000000 1.0
C      1  0.4747920000000  0.4770470000000  0.5724970000000 1.0
C      1  0.4762700000000  0.4598870000000  0.4663760000000 1.0
C      1  0.5085810000000  0.4928130000000  0.5317040000000 1.0
C      1  0.5394020000000  0.5590250000000  0.4915180000000 1.0
C      1  0.5070280000000  0.4818340000000  0.5625050000000 1.0
C      1  0.5513250000000  0.5246300000000  0.4753310000000 1.0
C      1  0.5730860000000  0.5073650000000  0.4880730000000 1.0
C      1  0.5230610000000  0.5233820000000  0.4848320000000 1.0
C      1  0.5015870000000  0.4232940000000  0.5084180000000 1.0
C      1  0.4528280000000  0.4638950000000  0.4802430000000 1.0
C      1  0.4554280000000  0.5415230000000  0.4664720000000 1.0
C      1  0.4600780000000  0.4448970000000  0.5387630000000 1.0
C      1  0.4288310000000  0.5430490000000  0.4817730000000 1.0
C      1  0.4812510000000  0.4506880000000  0.5597300000000 1.0
C      1  0.5431540000000  0.5501810000000  0.5428340000000 1.0
C      1  0.4303010000000  0.5069400000000  0.5172900000000 1.0
C      1  0.4765700000000  0.5502720000000  0.4908970000000 1.0
C      1  0.4814010000000  0.4770270000000  0.5049340000000 1.0
C      1  0.4677320000000  0.5405420000000  0.5440720000000 1.0
C      1  0.4703630000000  0.5015170000000  0.4837250000000 1.0
C      1  0.4587820000000  0.5509790000000  0.5185860000000 1.0
C      1  0.4248300000000  0.4763680000000  0.4729160000000 1.0
C      1  0.4327690000000  0.4747310000000  0.5060650000000 1.0
C      1  0.4408490000000  0.5102200000000  0.4865100000000 1.0
C      1  0.5097920000000  0.4525470000000  0.5463840000000 1.0
C      1  0.5606060000000  0.4703300000000  0.5209440000000 1.0
C      1  0.5803490000000  0.4782590000000  0.5016170000000 1.0
C      1  0.4406460000000  0.4663220000000  0.5376350000000 1.0
C      1  0.5462370000000  0.4705060000000  0.4615710000000 1.0
C      1  0.4535050000000  0.5175140000000  0.4495300000000 1.0
C      1  0.5416740000000  0.4513920000000  0.5090890000000 1.0
C      1  0.4503180000000  0.4866610000000  0.5588240000000 1.0
C      1  0.4907750000000  0.4603320000000  0.4164070000000 1.0
C      1  0.5030990000000  0.4556710000000  0.4782730000000 1.0
C      1  0.5043660000000  0.5065660000000  0.4637520000000 1.0
C      1  0.5066910000000  0.5371760000000  0.4514650000000 1.0
C      1  0.5463130000000  0.5423950000000  0.5153010000000 1.0
C      1  0.4621140000000  0.4958780000000  0.5220500000000 1.0
C      1  0.4855970000000  0.4507690000000  0.5200480000000 1.0
C      1  0.5228350000000  0.4370450000000  0.5240860000000 1.0
C      1  0.5546680000000  0.5290300000000  0.4434600000000 1.0
C      1  0.4771140000000  0.4968640000000  0.4512960000000 1.0
C      1  0.5513490000000  0.5740860000000  0.5528000000000 1.0
C      1  0.4549450000000  0.5146250000000  0.5476530000000 1.0
C      1  0.4964680000000  0.4724880000000  0.4412580000000 1.0
END
