TITL C-2782226-7400-465 0.300520441849257 125000 -775.966406418066 0 0 136 (C1) n - 1
REM
REM in /home/nfs/bkarasulu/CARBON/AIRSS/Generating-Clusters/REBO/Higher-Symm/SD-CG/HFTN-CG
REM
REM
REM
REM
REM
REM ./C.cell (12c818d87b63d06a65506943cc24bca4)
REM
REM compiler GCC version 9.2.1 20190827 (Red Hat 9.2.1-1)
REM options -cpp -mtune=generic -march=x86-64 -g -O0 -fpre-include=/usr/include/finclude/math-vector-fortran.h
REM seed -389810296 273923581 1086390134 -318962970 -852879480 587765092 1395227644 -1860700222 1760592256 -20501895 -324038733 -1054425799 701618024 -22811997 -57389974 636247093 1176752255 -1886477550 -1212615487 936175240 1129258886 -812391080 -802503505 -61421498 1611750059 28870160 1916035397 -782004850 119964301 -1391308083 -536084470 -1770173619 -830912324
REM
CELL 1.54180   50.00000   50.00000   50.00000   90.00000   90.00000   90.00000
LATT -1
SFAC C  
C      1  0.5276890000000  0.5539750000000  0.5902130000000 1.0
C      1  0.5916870000000  0.5513680000000  0.4768670000000 1.0
C      1  0.4801440000000  0.5506760000000  0.4137240000000 1.0
C      1  0.4079720000000  0.5552110000000  0.5266950000000 1.0
C      1  0.4737350000000  0.5563710000000  0.5858290000000 1.0
C      1  0.4166870000000  0.5572980000000  0.4761570000000 1.0
C      1  0.5326610000000  0.5454920000000  0.4090100000000 1.0
C      1  0.5782450000000  0.5525830000000  0.5289510000000 1.0
C      1  0.5245360000000  0.4137480000000  0.5370650000000 1.0
C      1  0.5439360000000  0.4150940000000  0.4776990000000 1.0
C      1  0.4815800000000  0.4105420000000  0.4610520000000 1.0
C      1  0.4650890000000  0.4123330000000  0.5198130000000 1.0
C      1  0.4908060000000  0.4131380000000  0.5421570000000 1.0
C      1  0.4587410000000  0.4132380000000  0.4862880000000 1.0
C      1  0.5154560000000  0.4139800000000  0.4589840000000 1.0
C      1  0.5448520000000  0.4162750000000  0.5108720000000 1.0
C      1  0.5115520000000  0.5179850000000  0.5361760000000 1.0
C      1  0.5362950000000  0.5169690000000  0.4826700000000 1.0
C      1  0.4845810000000  0.5174870000000  0.4595750000000 1.0
C      1  0.4612440000000  0.5180590000000  0.5121240000000 1.0
C      1  0.4815580000000  0.5159570000000  0.5324610000000 1.0
C      1  0.4624500000000  0.5180870000000  0.4808350000000 1.0
C      1  0.5164200000000  0.5158080000000  0.4602800000000 1.0
C      1  0.5304700000000  0.5153290000000  0.5137400000000 1.0
C      1  0.5427010000000  0.5761990000000  0.4835700000000 1.0
C      1  0.4871260000000  0.5789360000000  0.4603990000000 1.0
C      1  0.4585210000000  0.5757360000000  0.5165650000000 1.0
C      1  0.5153170000000  0.5758350000000  0.5414530000000 1.0
C      1  0.4639110000000  0.5798290000000  0.4830790000000 1.0
C      1  0.5213920000000  0.5779230000000  0.4590870000000 1.0
C      1  0.5340910000000  0.5775220000000  0.5167260000000 1.0
C      1  0.4814110000000  0.5749640000000  0.5371760000000 1.0
C      1  0.4063430000000  0.4901050000000  0.5218880000000 1.0
C      1  0.5200160000000  0.4897560000000  0.5928720000000 1.0
C      1  0.5922220000000  0.4878780000000  0.4790950000000 1.0
C      1  0.4745280000000  0.4875700000000  0.4056710000000 1.0
C      1  0.5939700000000  0.4933690000000  0.5384090000000 1.0
C      1  0.4727270000000  0.4910330000000  0.5906280000000 1.0
C      1  0.4064900000000  0.4917200000000  0.4738560000000 1.0
C      1  0.5255510000000  0.4826270000000  0.4096520000000 1.0
C      1  0.5420010000000  0.5459230000000  0.5095760000000 1.0
C      1  0.5104550000000  0.5471890000000  0.4535950000000 1.0
C      1  0.4540860000000  0.5483220000000  0.4870090000000 1.0
C      1  0.4836310000000  0.5432280000000  0.5496490000000 1.0
C      1  0.4456230000000  0.5453560000000  0.5189140000000 1.0
C      1  0.4764260000000  0.5481060000000  0.4532170000000 1.0
C      1  0.5526830000000  0.5443900000000  0.4787460000000 1.0
C      1  0.5176700000000  0.5446120000000  0.5529910000000 1.0
C      1  0.4900140000000  0.4776240000000  0.5382490000000 1.0
C      1  0.5278680000000  0.4764220000000  0.5056930000000 1.0
C      1  0.4961390000000  0.4766700000000  0.4651890000000 1.0
C      1  0.4559700000000  0.4758430000000  0.4910830000000 1.0
C      1  0.5206130000000  0.4792390000000  0.5341730000000 1.0
C      1  0.4643910000000  0.4767850000000  0.5204100000000 1.0
C      1  0.4683450000000  0.4816600000000  0.4660470000000 1.0
C      1  0.5104330000000  0.4869290000000  0.4869960000000 1.0
C      1  0.5641710000000  0.5062680000000  0.4749460000000 1.0
C      1  0.4747800000000  0.5052320000000  0.4343790000000 1.0
C      1  0.4350350000000  0.5071250000000  0.5231960000000 1.0
C      1  0.5215420000000  0.5062870000000  0.5632880000000 1.0
C      1  0.4367410000000  0.5053950000000  0.4725090000000 1.0
C      1  0.5274490000000  0.5029240000000  0.4363710000000 1.0
C      1  0.5572280000000  0.5035190000000  0.5275390000000 1.0
C      1  0.4730630000000  0.5060010000000  0.5605850000000 1.0
C      1  0.5606300000000  0.5215960000000  0.4198040000000 1.0
C      1  0.4232490000000  0.5215390000000  0.4375220000000 1.0
C      1  0.4416580000000  0.5123390000000  0.5845270000000 1.0
C      1  0.5872170000000  0.5044260000000  0.5686040000000 1.0
C      1  0.4321390000000  0.5256940000000  0.4116750000000 1.0
C      1  0.5867550000000  0.5201200000000  0.4295220000000 1.0
C      1  0.5699420000000  0.5187500000000  0.5792540000000 1.0
C      1  0.4220830000000  0.5163190000000  0.5659030000000 1.0
C      1  0.4300140000000  0.5798600000000  0.4889520000000 1.0
C      1  0.4879920000000  0.5767790000000  0.5706220000000 1.0
C      1  0.5681390000000  0.5755150000000  0.5145270000000 1.0
C      1  0.5238020000000  0.5718660000000  0.4251110000000 1.0
C      1  0.5770320000000  0.5751770000000  0.4860790000000 1.0
C      1  0.5172990000000  0.5772400000000  0.5758760000000 1.0
C      1  0.4241350000000  0.5789510000000  0.5182140000000 1.0
C      1  0.4943660000000  0.5727230000000  0.4275280000000 1.0
C      1  0.4883840000000  0.4260880000000  0.4312230000000 1.0
C      1  0.4357480000000  0.4294000000000  0.5177710000000 1.0
C      1  0.5202500000000  0.4274180000000  0.5678340000000 1.0
C      1  0.5719610000000  0.4350680000000  0.4820110000000 1.0
C      1  0.5216140000000  0.4255980000000  0.4286910000000 1.0
C      1  0.5721990000000  0.4346980000000  0.5162670000000 1.0
C      1  0.4864950000000  0.4293140000000  0.5719510000000 1.0
C      1  0.4294650000000  0.4309190000000  0.4850260000000 1.0
C      1  0.4755790000000  0.4424160000000  0.4651930000000 1.0
C      1  0.4714970000000  0.4444410000000  0.5269120000000 1.0
C      1  0.5315410000000  0.4469260000000  0.5321150000000 1.0
C      1  0.5364180000000  0.4463990000000  0.4681170000000 1.0
C      1  0.5071880000000  0.4481670000000  0.4584580000000 1.0
C      1  0.5386800000000  0.4481550000000  0.4993110000000 1.0
C      1  0.5004680000000  0.4455000000000  0.5385420000000 1.0
C      1  0.4649560000000  0.4454060000000  0.4957790000000 1.0
C      1  0.5857330000000  0.5206970000000  0.5198030000000 1.0
C      1  0.5180810000000  0.5159840000000  0.4071040000000 1.0
C      1  0.4104940000000  0.5244940000000  0.4828880000000 1.0
C      1  0.4828770000000  0.5236850000000  0.5880750000000 1.0
C      1  0.4077030000000  0.5235380000000  0.5141480000000 1.0
C      1  0.4879330000000  0.5191110000000  0.4069520000000 1.0
C      1  0.5903700000000  0.5202610000000  0.4898470000000 1.0
C      1  0.5137570000000  0.5233040000000  0.5907700000000 1.0
C      1  0.4529090000000  0.5466370000000  0.4286660000000 1.0
C      1  0.4288900000000  0.5397180000000  0.5454910000000 1.0
C      1  0.5463300000000  0.5368730000000  0.5697920000000 1.0
C      1  0.5729570000000  0.5388860000000  0.4535320000000 1.0
C      1  0.5412930000000  0.5401280000000  0.4408700000000 1.0
C      1  0.5539270000000  0.5344560000000  0.5395490000000 1.0
C      1  0.4539220000000  0.5403690000000  0.5663750000000 1.0
C      1  0.4372670000000  0.5422760000000  0.4579280000000 1.0
C      1  0.4357010000000  0.4503330000000  0.5434480000000 1.0
C      1  0.5451100000000  0.4494560000000  0.5693700000000 1.0
C      1  0.5643330000000  0.4523010000000  0.4535000000000 1.0
C      1  0.4569390000000  0.4515280000000  0.4425020000000 1.0
C      1  0.5685300000000  0.4475350000000  0.5465180000000 1.0
C      1  0.4584440000000  0.4461920000000  0.5656610000000 1.0
C      1  0.4283400000000  0.4467280000000  0.4564880000000 1.0
C      1  0.5420310000000  0.4510240000000  0.4277800000000 1.0
C      1  0.5525660000000  0.4824170000000  0.4303570000000 1.0
C      1  0.4302410000000  0.4795090000000  0.4524800000000 1.0
C      1  0.4537610000000  0.4789890000000  0.5646450000000 1.0
C      1  0.5633180000000  0.4801800000000  0.5476950000000 1.0
C      1  0.4519060000000  0.4819100000000  0.4298620000000 1.0
C      1  0.5732960000000  0.4832460000000  0.4527910000000 1.0
C      1  0.5426760000000  0.4819750000000  0.5700130000000 1.0
C      1  0.4301440000000  0.4825150000000  0.5445210000000 1.0
C      1  0.4788220000000  0.4556210000000  0.4166970000000 1.0
C      1  0.4172910000000  0.4584140000000  0.5154720000000 1.0
C      1  0.5149180000000  0.4571570000000  0.5842220000000 1.0
C      1  0.5910970000000  0.4609650000000  0.4934410000000 1.0
C      1  0.5108110000000  0.4542360000000  0.4138650000000 1.0
C      1  0.5909170000000  0.4623050000000  0.5253890000000 1.0
C      1  0.4820160000000  0.4603570000000  0.5858770000000 1.0
C      1  0.4123930000000  0.4608290000000  0.4829860000000 1.0
END
