TITL C-2782235-7892-1055 0.197408650854244 125000 -448.996581032839 0 0 76 (C1) n - 1
REM
REM in /home/nfs/bkarasulu/CARBON/AIRSS/Generating-Clusters/REBO/Higher-Symm/SD-CG/HFTN-CG
REM
REM
REM
REM
REM
REM ./C.cell (12c818d87b63d06a65506943cc24bca4)
REM
REM compiler GCC version 9.2.1 20190827 (Red Hat 9.2.1-1)
REM options -cpp -mtune=generic -march=x86-64 -g -O0 -fpre-include=/usr/include/finclude/math-vector-fortran.h
REM seed 976356515 1017508894 -678338131 804357231 -2087640692 -1846967062 1934894357 -1845008589 -1094701908 -1422699548 -422119073 1857630228 924215089 -1713892194 1326918710 871484926 -1560815013 2090096066 -1135142586 899010880 -1961740334 2084881300 -1923936998 -173901634 1589523859 1632440843 -69241181 -708958139 -1276792784 416563325 140284781 -1363955416 -1612201627
REM
CELL 1.54180   50.00000   50.00000   50.00000   90.00000   90.00000   90.00000
LATT -1
SFAC C  
C      1  0.4481490000000  0.4511720000000  0.4536200000000 1.0
C      1  0.5641340000000  0.4832360000000  0.4565940000000 1.0
C      1  0.4733610000000  0.4403070000000  0.4525980000000 1.0
C      1  0.5728570000000  0.4742410000000  0.5358590000000 1.0
C      1  0.4275740000000  0.4995970000000  0.5112110000000 1.0
C      1  0.5121820000000  0.4452170000000  0.4666130000000 1.0
C      1  0.5122920000000  0.5164580000000  0.5360680000000 1.0
C      1  0.4679190000000  0.5042930000000  0.5448970000000 1.0
C      1  0.4244670000000  0.5035620000000  0.4611780000000 1.0
C      1  0.5294580000000  0.4562300000000  0.4331140000000 1.0
C      1  0.5329300000000  0.5081340000000  0.4211230000000 1.0
C      1  0.5191730000000  0.5549900000000  0.4926760000000 1.0
C      1  0.4635390000000  0.4984940000000  0.4573750000000 1.0
C      1  0.4904360000000  0.4890280000000  0.4413910000000 1.0
C      1  0.5119610000000  0.4609330000000  0.5687930000000 1.0
C      1  0.4259630000000  0.5652490000000  0.5404540000000 1.0
C      1  0.4846260000000  0.5224720000000  0.5256860000000 1.0
C      1  0.4797990000000  0.4231970000000  0.4737950000000 1.0
C      1  0.4649090000000  0.5434690000000  0.5160990000000 1.0
C      1  0.5510510000000  0.5274600000000  0.4424730000000 1.0
C      1  0.4966440000000  0.4597600000000  0.4411670000000 1.0
C      1  0.5434820000000  0.5533220000000  0.5567480000000 1.0
C      1  0.4994830000000  0.5410030000000  0.5740350000000 1.0
C      1  0.4192150000000  0.5169070000000  0.4892740000000 1.0
C      1  0.5122640000000  0.4886050000000  0.5756770000000 1.0
C      1  0.5584680000000  0.4567050000000  0.5506270000000 1.0
C      1  0.5392490000000  0.4989350000000  0.4696440000000 1.0
C      1  0.4894910000000  0.4439750000000  0.5723090000000 1.0
C      1  0.5580160000000  0.5487720000000  0.5298290000000 1.0
C      1  0.5458960000000  0.4794310000000  0.4318380000000 1.0
C      1  0.6020320000000  0.5238360000000  0.5314970000000 1.0
C      1  0.5239090000000  0.5255150000000  0.4951000000000 1.0
C      1  0.5551320000000  0.5389700000000  0.4970590000000 1.0
C      1  0.5586660000000  0.4186650000000  0.4601270000000 1.0
C      1  0.4808120000000  0.5282180000000  0.4102170000000 1.0
C      1  0.5012180000000  0.4505470000000  0.4935380000000 1.0
C      1  0.4535600000000  0.4571060000000  0.5418420000000 1.0
C      1  0.5630530000000  0.4910580000000  0.4888070000000 1.0
C      1  0.4804390000000  0.4170030000000  0.5300660000000 1.0
C      1  0.4730340000000  0.4357870000000  0.5037260000000 1.0
C      1  0.5106600000000  0.5150230000000  0.5654570000000 1.0
C      1  0.4462170000000  0.5249530000000  0.4460260000000 1.0
C      1  0.4412480000000  0.5441260000000  0.5330850000000 1.0
C      1  0.5145440000000  0.4769300000000  0.5071140000000 1.0
C      1  0.5575630000000  0.5342200000000  0.4652400000000 1.0
C      1  0.5202240000000  0.4468530000000  0.5217430000000 1.0
C      1  0.5067130000000  0.4178490000000  0.5155750000000 1.0
C      1  0.5307070000000  0.4986260000000  0.5238590000000 1.0
C      1  0.5443210000000  0.5697180000000  0.5082120000000 1.0
C      1  0.5033740000000  0.4110150000000  0.4878660000000 1.0
C      1  0.5163990000000  0.5618540000000  0.5621970000000 1.0
C      1  0.5181470000000  0.5064040000000  0.4507290000000 1.0
C      1  0.5061410000000  0.5043850000000  0.4930880000000 1.0
C      1  0.4761530000000  0.5682820000000  0.4747940000000 1.0
C      1  0.4395830000000  0.4756070000000  0.5001060000000 1.0
C      1  0.4993120000000  0.5087260000000  0.4159620000000 1.0
C      1  0.5614030000000  0.4975220000000  0.5186030000000 1.0
C      1  0.5309840000000  0.4514970000000  0.5493120000000 1.0
C      1  0.5379870000000  0.4343870000000  0.4543610000000 1.0
C      1  0.4690930000000  0.4759300000000  0.5539080000000 1.0
C      1  0.4774820000000  0.4250960000000  0.5566420000000 1.0
C      1  0.4836150000000  0.5544720000000  0.4502280000000 1.0
C      1  0.4657950000000  0.5422340000000  0.4304790000000 1.0
C      1  0.5156550000000  0.5858830000000  0.5169770000000 1.0
C      1  0.4573350000000  0.5526920000000  0.4894520000000 1.0
C      1  0.4422560000000  0.4771510000000  0.4688770000000 1.0
C      1  0.4531170000000  0.5240670000000  0.5651540000000 1.0
C      1  0.4376360000000  0.5378270000000  0.4756910000000 1.0
C      1  0.5076870000000  0.5824660000000  0.5441920000000 1.0
C      1  0.5005900000000  0.5327650000000  0.4576040000000 1.0
C      1  0.4866210000000  0.5107960000000  0.4746210000000 1.0
C      1  0.5760310000000  0.5230900000000  0.5269320000000 1.0
C      1  0.4521350000000  0.4550320000000  0.5136730000000 1.0
C      1  0.4979740000000  0.5765360000000  0.4911660000000 1.0
C      1  0.4335970000000  0.5137800000000  0.5379760000000 1.0
C      1  0.4708610000000  0.5403510000000  0.5783550000000 1.0
END
