TITL C-2782225-7408-385 0.00427663855548656 125000 -741.586725473376 0 0 126 (C1) n - 1
REM
REM in /home/nfs/bkarasulu/CARBON/AIRSS/Generating-Clusters/REBO/Higher-Symm/SD-CG/HFTN-CG
REM
REM
REM
REM
REM
REM ./C.cell (12c818d87b63d06a65506943cc24bca4)
REM
REM compiler GCC version 9.2.1 20190827 (Red Hat 9.2.1-1)
REM options -cpp -mtune=generic -march=x86-64 -g -O0 -fpre-include=/usr/include/finclude/math-vector-fortran.h
REM seed 1619271426 -1161636647 1672801161 1572851494 -1219697214 -1392203890 -748590851 -805154908 1200889159 1007095676 -816159013 -1033624272 82079199 1340556507 221067814 -218975169 784767756 1405832894 -1056778053 -1822420754 2076224644 615033446 -1294399846 -151350303 -1839508314 -1800602362 1688016325 -1794540962 274218654 -623552223 -324487329 -1810164127 -1717678203
REM
CELL 1.54180   50.00000   50.00000   50.00000   90.00000   90.00000   90.00000
LATT -1
SFAC C  
C      1  0.4755730000000  0.5790040000000  0.4437080000000 1.0
C      1  0.5245700000000  0.4237760000000  0.5574310000000 1.0
C      1  0.5311930000000  0.4750450000000  0.5916950000000 1.0
C      1  0.4624290000000  0.5267010000000  0.4126360000000 1.0
C      1  0.4037860000000  0.4858190000000  0.4658460000000 1.0
C      1  0.5885720000000  0.5134920000000  0.5360320000000 1.0
C      1  0.5192430000000  0.5391680000000  0.4637640000000 1.0
C      1  0.4787930000000  0.4632660000000  0.5338870000000 1.0
C      1  0.5585350000000  0.4638430000000  0.4750290000000 1.0
C      1  0.4259680000000  0.5394010000000  0.5406580000000 1.0
C      1  0.4947730000000  0.5571810000000  0.4724130000000 1.0
C      1  0.5037790000000  0.4432760000000  0.5259710000000 1.0
C      1  0.5495040000000  0.4181050000000  0.5413360000000 1.0
C      1  0.4500040000000  0.5863100000000  0.4594810000000 1.0
C      1  0.4660540000000  0.4533950000000  0.5606900000000 1.0
C      1  0.5326500000000  0.5440310000000  0.4347720000000 1.0
C      1  0.4843480000000  0.4083340000000  0.5172160000000 1.0
C      1  0.5155570000000  0.5894940000000  0.4849360000000 1.0
C      1  0.5041370000000  0.5545860000000  0.5476000000000 1.0
C      1  0.4939580000000  0.4510970000000  0.4637740000000 1.0
C      1  0.4732310000000  0.5007580000000  0.5673750000000 1.0
C      1  0.5274140000000  0.5044790000000  0.4320150000000 1.0
C      1  0.4607620000000  0.5590430000000  0.4749490000000 1.0
C      1  0.5378540000000  0.4437100000000  0.5244490000000 1.0
C      1  0.5493440000000  0.5677070000000  0.5731760000000 1.0
C      1  0.4592980000000  0.4372650000000  0.4313330000000 1.0
C      1  0.4655010000000  0.5282780000000  0.5780930000000 1.0
C      1  0.5348370000000  0.4765230000000  0.4171080000000 1.0
C      1  0.4357510000000  0.5145300000000  0.5681720000000 1.0
C      1  0.5640260000000  0.4892210000000  0.4309070000000 1.0
C      1  0.4374900000000  0.5082200000000  0.4205990000000 1.0
C      1  0.5596850000000  0.4892360000000  0.5863900000000 1.0
C      1  0.4757830000000  0.4228730000000  0.5667490000000 1.0
C      1  0.5233600000000  0.5756780000000  0.4318090000000 1.0
C      1  0.4615340000000  0.4133380000000  0.4756120000000 1.0
C      1  0.5475830000000  0.5536370000000  0.5134080000000 1.0
C      1  0.4864500000000  0.5097300000000  0.3977690000000 1.0
C      1  0.5039580000000  0.4946280000000  0.5976790000000 1.0
C      1  0.5248870000000  0.5020750000000  0.5717450000000 1.0
C      1  0.4757070000000  0.5008930000000  0.4297720000000 1.0
C      1  0.4423290000000  0.5480840000000  0.5664820000000 1.0
C      1  0.5439850000000  0.4689710000000  0.4494560000000 1.0
C      1  0.4489110000000  0.4787950000000  0.5701140000000 1.0
C      1  0.5551270000000  0.5220690000000  0.4318460000000 1.0
C      1  0.5611980000000  0.5672830000000  0.5419160000000 1.0
C      1  0.4658790000000  0.4135710000000  0.4451850000000 1.0
C      1  0.4769710000000  0.4773990000000  0.5906070000000 1.0
C      1  0.5073480000000  0.5282230000000  0.3919080000000 1.0
C      1  0.5593510000000  0.4534430000000  0.5060020000000 1.0
C      1  0.4380610000000  0.5496710000000  0.4928010000000 1.0
C      1  0.5774880000000  0.4864870000000  0.4622490000000 1.0
C      1  0.4173100000000  0.5076720000000  0.5404160000000 1.0
C      1  0.5087640000000  0.5514610000000  0.4128120000000 1.0
C      1  0.4892610000000  0.4476400000000  0.5849410000000 1.0
C      1  0.5207830000000  0.5558800000000  0.5767210000000 1.0
C      1  0.4768560000000  0.4462870000000  0.4107730000000 1.0
C      1  0.4575370000000  0.5728530000000  0.5309140000000 1.0
C      1  0.5489160000000  0.4090140000000  0.4748770000000 1.0
C      1  0.4367190000000  0.5550590000000  0.5199380000000 1.0
C      1  0.5634970000000  0.4320350000000  0.4803880000000 1.0
C      1  0.4804820000000  0.5106100000000  0.4604640000000 1.0
C      1  0.5191160000000  0.4916010000000  0.5439810000000 1.0
C      1  0.6074790000000  0.4694080000000  0.4981590000000 1.0
C      1  0.3932580000000  0.5238150000000  0.4976140000000 1.0
C      1  0.5150190000000  0.4571510000000  0.4455940000000 1.0
C      1  0.4724620000000  0.5623460000000  0.5585310000000 1.0
C      1  0.5693740000000  0.5715180000000  0.4846650000000 1.0
C      1  0.4368000000000  0.4267760000000  0.5170830000000 1.0
C      1  0.4247010000000  0.5683030000000  0.4603930000000 1.0
C      1  0.5755350000000  0.4355830000000  0.5376750000000 1.0
C      1  0.5324850000000  0.5231480000000  0.5109420000000 1.0
C      1  0.4664690000000  0.4854900000000  0.4900180000000 1.0
C      1  0.5116940000000  0.5003880000000  0.5114910000000 1.0
C      1  0.4866610000000  0.5104850000000  0.4939410000000 1.0
C      1  0.5183190000000  0.5954620000000  0.5409480000000 1.0
C      1  0.5160040000000  0.3969190000000  0.4371990000000 1.0
C      1  0.5317510000000  0.5402900000000  0.5403120000000 1.0
C      1  0.4701330000000  0.4681440000000  0.4668970000000 1.0
C      1  0.5420320000000  0.5290870000000  0.4818860000000 1.0
C      1  0.4554160000000  0.4743060000000  0.5156420000000 1.0
C      1  0.4409560000000  0.4818740000000  0.4245360000000 1.0
C      1  0.5591150000000  0.5162960000000  0.5867810000000 1.0
C      1  0.5875280000000  0.4626450000000  0.5207910000000 1.0
C      1  0.4106490000000  0.5421230000000  0.4777570000000 1.0
C      1  0.5307270000000  0.4019670000000  0.4954480000000 1.0
C      1  0.4697350000000  0.5979620000000  0.5157840000000 1.0
C      1  0.5139370000000  0.5264860000000  0.5908230000000 1.0
C      1  0.4832660000000  0.4782860000000  0.4064150000000 1.0
C      1  0.4670020000000  0.5384860000000  0.4505680000000 1.0
C      1  0.5294470000000  0.4626800000000  0.5495420000000 1.0
C      1  0.4789730000000  0.5532190000000  0.4236770000000 1.0
C      1  0.5192820000000  0.4485440000000  0.5784190000000 1.0
C      1  0.4880380000000  0.5630020000000  0.5217620000000 1.0
C      1  0.4912960000000  0.4241420000000  0.4741260000000 1.0
C      1  0.5041220000000  0.4103920000000  0.4966580000000 1.0
C      1  0.4956830000000  0.5914650000000  0.5046870000000 1.0
C      1  0.5053170000000  0.5842180000000  0.4553520000000 1.0
C      1  0.4959720000000  0.4159750000000  0.5448480000000 1.0
C      1  0.5110350000000  0.4701360000000  0.5113010000000 1.0
C      1  0.4870150000000  0.5417280000000  0.4994270000000 1.0
C      1  0.4472050000000  0.4606590000000  0.4472310000000 1.0
C      1  0.5530250000000  0.5356880000000  0.5645750000000 1.0
C      1  0.4190700000000  0.4637190000000  0.4615370000000 1.0
C      1  0.5757170000000  0.5364370000000  0.5407060000000 1.0
C      1  0.4319750000000  0.4523470000000  0.5233550000000 1.0
C      1  0.5705160000000  0.5450280000000  0.4782890000000 1.0
C      1  0.4890770000000  0.3996300000000  0.4363070000000 1.0
C      1  0.5418020000000  0.5897260000000  0.5285770000000 1.0
C      1  0.4579830000000  0.4120680000000  0.5052090000000 1.0
C      1  0.5419660000000  0.5829310000000  0.4969930000000 1.0
C      1  0.4338490000000  0.4811420000000  0.5414050000000 1.0
C      1  0.5664440000000  0.5162520000000  0.4616670000000 1.0
C      1  0.6043540000000  0.4809810000000  0.4762030000000 1.0
C      1  0.3961990000000  0.5100570000000  0.5179440000000 1.0
C      1  0.4360910000000  0.5444750000000  0.4470650000000 1.0
C      1  0.5596330000000  0.4536760000000  0.5564720000000 1.0
C      1  0.5080610000000  0.4589500000000  0.4142540000000 1.0
C      1  0.4893400000000  0.5466530000000  0.5837210000000 1.0
C      1  0.4882810000000  0.4916280000000  0.5425930000000 1.0
C      1  0.5089130000000  0.5144090000000  0.4474380000000 1.0
C      1  0.4941140000000  0.5930110000000  0.5517780000000 1.0
C      1  0.5401470000000  0.4008750000000  0.4491200000000 1.0
C      1  0.5877520000000  0.4859800000000  0.5419220000000 1.0
C      1  0.4046010000000  0.5132820000000  0.4608160000000 1.0
C      1  0.4216270000000  0.5221340000000  0.4390230000000 1.0
C      1  0.5737990000000  0.4767640000000  0.5653310000000 1.0
END
