TITL C-2782229-3092-1221 0.00317608625878543 125000 -289.282191780138 0 0 51 (C1) n - 1
REM
REM in /home/nfs/bkarasulu/CARBON/AIRSS/Generating-Clusters/REBO/Higher-Symm/SD-CG/HFTN-CG
REM
REM
REM
REM
REM
REM ./C.cell (12c818d87b63d06a65506943cc24bca4)
REM
REM compiler GCC version 9.2.1 20190827 (Red Hat 9.2.1-1)
REM options -cpp -mtune=generic -march=x86-64 -g -O0 -fpre-include=/usr/include/finclude/math-vector-fortran.h
REM seed 1892576280 921689296 -1814745283 564987403 555594561 476140649 -1552455936 863744260 604097355 1173097506 -902841362 1121736352 1678083570 70200131 2084233677 665006324 1937165657 1946994631 682681335 -1216197963 1693168952 1556473957 -957130145 -1466390181 2111589404 -1612231129 14773251 -618847206 1108085753 -2081329515 1486613432 -837915911 -1477962956
REM
CELL 1.54180   50.00000   50.00000   50.00000   90.00000   90.00000   90.00000
LATT -1
SFAC C  
C      1  0.4549250000000  0.5407830000000  0.5220820000000 1.0
C      1  0.4633250000000  0.4631420000000  0.4795480000000 1.0
C      1  0.5456490000000  0.4594910000000  0.5239260000000 1.0
C      1  0.5356080000000  0.5415910000000  0.4756940000000 1.0
C      1  0.4628840000000  0.4935540000000  0.4342210000000 1.0
C      1  0.5136390000000  0.4535660000000  0.5726860000000 1.0
C      1  0.5317050000000  0.5142740000000  0.4288040000000 1.0
C      1  0.4810320000000  0.5262330000000  0.5673970000000 1.0
C      1  0.5472580000000  0.5231030000000  0.5327460000000 1.0
C      1  0.4715730000000  0.5531190000000  0.4670130000000 1.0
C      1  0.4491020000000  0.4774060000000  0.5334160000000 1.0
C      1  0.5255370000000  0.4518040000000  0.4648020000000 1.0
C      1  0.5220290000000  0.4885370000000  0.4848940000000 1.0
C      1  0.5096530000000  0.5247180000000  0.5196570000000 1.0
C      1  0.4766670000000  0.5089290000000  0.4849680000000 1.0
C      1  0.4927120000000  0.4793840000000  0.5243840000000 1.0
C      1  0.4854850000000  0.4651890000000  0.5688180000000 1.0
C      1  0.5383290000000  0.4879470000000  0.4266430000000 1.0
C      1  0.5056480000000  0.5143190000000  0.5617930000000 1.0
C      1  0.4563250000000  0.5194760000000  0.4300580000000 1.0
C      1  0.5546510000000  0.4925210000000  0.4837900000000 1.0
C      1  0.5063690000000  0.5576840000000  0.5169600000000 1.0
C      1  0.4436650000000  0.5076870000000  0.4831780000000 1.0
C      1  0.4948630000000  0.4466920000000  0.5172350000000 1.0
C      1  0.5350360000000  0.5425500000000  0.5076470000000 1.0
C      1  0.4587750000000  0.5357810000000  0.4911480000000 1.0
C      1  0.4671830000000  0.4624550000000  0.5105250000000 1.0
C      1  0.5417590000000  0.4630620000000  0.4922990000000 1.0
C      1  0.4349610000000  0.4760810000000  0.4800130000000 1.0
C      1  0.5260850000000  0.4360900000000  0.5173280000000 1.0
C      1  0.5615460000000  0.5245950000000  0.4802680000000 1.0
C      1  0.4741540000000  0.5652590000000  0.5192830000000 1.0
C      1  0.4588040000000  0.5296440000000  0.5533380000000 1.0
C      1  0.4803190000000  0.4805970000000  0.4557820000000 1.0
C      1  0.5345120000000  0.4718240000000  0.5529400000000 1.0
C      1  0.5163230000000  0.5251220000000  0.4530660000000 1.0
C      1  0.4594450000000  0.4665520000000  0.5609170000000 1.0
C      1  0.5364820000000  0.4642110000000  0.4392830000000 1.0
C      1  0.5289770000000  0.5275700000000  0.5571940000000 1.0
C      1  0.4589710000000  0.5442550000000  0.4406300000000 1.0
C      1  0.4299080000000  0.4916460000000  0.5092050000000 1.0
C      1  0.5090510000000  0.4361180000000  0.4891570000000 1.0
C      1  0.5665950000000  0.5090460000000  0.5096260000000 1.0
C      1  0.4898860000000  0.5686520000000  0.4901910000000 1.0
C      1  0.4424470000000  0.5107960000000  0.5327030000000 1.0
C      1  0.4916170000000  0.4512460000000  0.4656060000000 1.0
C      1  0.5556290000000  0.4901320000000  0.5346250000000 1.0
C      1  0.5055170000000  0.5535610000000  0.4652690000000 1.0
C      1  0.5046870000000  0.4859010000000  0.5518550000000 1.0
C      1  0.5017040000000  0.5018240000000  0.4654610000000 1.0
C      1  0.5003100000000  0.5005920000000  0.5052680000000 1.0
END
