TITL C-2782228-2999-607 -8.56601880522487e-05 125000 -68.2501516961015 0 0 15 (Cs) n - 1
REM
REM in /home/nfs/bkarasulu/CARBON/AIRSS/Generating-Clusters/REBO/Higher-Symm/SD-CG/HFTN-CG
REM
REM
REM
REM
REM
REM ./C.cell (12c818d87b63d06a65506943cc24bca4)
REM
REM compiler GCC version 9.2.1 20190827 (Red Hat 9.2.1-1)
REM options -cpp -mtune=generic -march=x86-64 -g -O0 -fpre-include=/usr/include/finclude/math-vector-fortran.h
REM seed 1221329149 1563337806 -788685761 -1592096505 1003453246 1166173129 1582134621 -1429165020 -229492945 950168594 -2072204714 1755685376 940925630 -934251095 584373470 2145653243 661109676 1844750050 705624133 -1003354302 997387699 178659003 1482543421 1924305144 -1073863277 1402345178 -1679107708 -886792011 -461687114 253008541 -1589617634 -1396534363 1662463855
REM
CELL 1.54180   50.00000   50.00000   50.00000   90.00000   90.00000   90.00000
LATT -1
SFAC C  
C      1  0.5010930000000  0.4760200000000  0.4990620000000 1.0
C      1  0.5021650000000  0.4874260000000  0.5274650000000 1.0
C      1  0.5023450000000  0.5190340000000  0.5234370000000 1.0
C      1  0.5013600000000  0.5229650000000  0.4930810000000 1.0
C      1  0.5007490000000  0.4973520000000  0.4792480000000 1.0
C      1  0.5261510000000  0.4792850000000  0.5405450000000 1.0
C      1  0.5264390000000  0.5299260000000  0.5340920000000 1.0
C      1  0.5105900000000  0.5515250000000  0.4796740000000 1.0
C      1  0.5000730000000  0.4939090000000  0.4522000000000 1.0
C      1  0.5099830000000  0.4449090000000  0.4932580000000 1.0
C      1  0.4994220000000  0.4906010000000  0.4262100000000 1.0
C      1  0.4804160000000  0.4461140000000  0.4936220000000 1.0
C      1  0.4789560000000  0.4797560000000  0.5421360000000 1.0
C      1  0.4792440000000  0.5303980000000  0.5356840000000 1.0
C      1  0.4810120000000  0.5507810000000  0.4802850000000 1.0
END
