TITL C-2782240-8521-1439 -0.000575658330566739 125000 -294.528707806066 0 0 51 (D2) n - 1
REM
REM in /home/nfs/bkarasulu/CARBON/AIRSS/Generating-Clusters/REBO/Higher-Symm/SD-CG/HFTN-CG
REM
REM
REM
REM
REM
REM ./C.cell (12c818d87b63d06a65506943cc24bca4)
REM
REM compiler GCC version 9.2.1 20190827 (Red Hat 9.2.1-1)
REM options -cpp -mtune=generic -march=x86-64 -g -O0 -fpre-include=/usr/include/finclude/math-vector-fortran.h
REM seed 1411575169 -1511171429 -1626192116 1624454958 -1935995289 2028098927 1623410114 1610644997 -451030911 277672908 1524878349 1050082041 -1303172823 826277678 1566480966 -1067253930 -569031525 681128229 672954782 679278855 -1012165340 1563301485 -828924844 -1206754807 1815660434 562225664 -593499828 138027896 -1016903073 1423671557 -283179705 -2075666716 168083414
REM
CELL 1.54180   50.00000   50.00000   50.00000   90.00000   90.00000   90.00000
LATT -1
SFAC C  
C      1  0.5920760000000  0.4873430000000  0.5059230000000 1.0
C      1  0.5920530000000  0.5123450000000  0.4940410000000 1.0
C      1  0.4093040000000  0.5121430000000  0.5058600000000 1.0
C      1  0.4093360000000  0.4871450000000  0.4939710000000 1.0
C      1  0.5143750000000  0.5670690000000  0.4974250000000 1.0
C      1  0.5145200000000  0.4324490000000  0.5024820000000 1.0
C      1  0.4870110000000  0.4324200000000  0.4973950000000 1.0
C      1  0.4868620000000  0.5670380000000  0.5024920000000 1.0
C      1  0.4898760000000  0.4755670000000  0.4388150000000 1.0
C      1  0.4897780000000  0.5238970000000  0.5610740000000 1.0
C      1  0.5115530000000  0.5239380000000  0.4388300000000 1.0
C      1  0.5115610000000  0.4755740000000  0.5610750000000 1.0
C      1  0.5263100000000  0.4613740000000  0.5417800000000 1.0
C      1  0.5262570000000  0.5381700000000  0.4581360000000 1.0
C      1  0.4750440000000  0.5381020000000  0.5417720000000 1.0
C      1  0.4751580000000  0.4613300000000  0.4581060000000 1.0
C      1  0.5175080000000  0.4723030000000  0.5040770000000 1.0
C      1  0.5174510000000  0.5272210000000  0.4958330000000 1.0
C      1  0.4838730000000  0.5271840000000  0.5040720000000 1.0
C      1  0.4839360000000  0.4722670000000  0.4958120000000 1.0
C      1  0.4339550000000  0.4732910000000  0.4937390000000 1.0
C      1  0.4338920000000  0.5260510000000  0.5061090000000 1.0
C      1  0.5674340000000  0.5261990000000  0.4937950000000 1.0
C      1  0.5674870000000  0.4734350000000  0.5061500000000 1.0
C      1  0.4576750000000  0.4803770000000  0.4755720000000 1.0
C      1  0.4576150000000  0.5190160000000  0.5242930000000 1.0
C      1  0.5437270000000  0.5191170000000  0.4756090000000 1.0
C      1  0.5437510000000  0.4804640000000  0.5243190000000 1.0
C      1  0.4720670000000  0.5497830000000  0.4814550000000 1.0
C      1  0.4721630000000  0.4496430000000  0.5184210000000 1.0
C      1  0.5293310000000  0.4497100000000  0.4814620000000 1.0
C      1  0.5292080000000  0.5498400000000  0.5184560000000 1.0
C      1  0.5223660000000  0.4363140000000  0.5294650000000 1.0
C      1  0.5222490000000  0.5632210000000  0.4704480000000 1.0
C      1  0.4789960000000  0.5631650000000  0.5294670000000 1.0
C      1  0.4791570000000  0.4362750000000  0.4704140000000 1.0
C      1  0.5467580000000  0.4917260000000  0.4633710000000 1.0
C      1  0.5467140000000  0.5078620000000  0.5365590000000 1.0
C      1  0.4546530000000  0.5077720000000  0.4633400000000 1.0
C      1  0.4546440000000  0.4916150000000  0.5365240000000 1.0
C      1  0.5566940000000  0.5318650000000  0.5192000000000 1.0
C      1  0.5567780000000  0.4677450000000  0.4807380000000 1.0
C      1  0.4446760000000  0.4676170000000  0.5191500000000 1.0
C      1  0.4446200000000  0.5317490000000  0.4807060000000 1.0
C      1  0.4745910000000  0.4704510000000  0.5450360000000 1.0
C      1  0.4745600000000  0.5289800000000  0.4548420000000 1.0
C      1  0.5267600000000  0.5290240000000  0.5450630000000 1.0
C      1  0.5268570000000  0.4705210000000  0.4548530000000 1.0
C      1  0.5006680000000  0.4997340000000  0.5668140000000 1.0
C      1  0.5007160000000  0.4997530000000  0.4330830000000 1.0
C      1  0.5006920000000  0.4997440000000  0.4999490000000 1.0
END
