TITL C-2782233-7966-1459 0.00019604958190291 125000 -398.874437849684 0 0 70 (C1) n - 1
REM
REM in /home/nfs/bkarasulu/CARBON/AIRSS/Generating-Clusters/REBO/Higher-Symm/SD-CG/HFTN-CG
REM
REM
REM
REM
REM
REM ./C.cell (12c818d87b63d06a65506943cc24bca4)
REM
REM compiler GCC version 9.2.1 20190827 (Red Hat 9.2.1-1)
REM options -cpp -mtune=generic -march=x86-64 -g -O0 -fpre-include=/usr/include/finclude/math-vector-fortran.h
REM seed 1214130558 716866615 -1726377982 2017338629 -1373376427 1123377649 945376737 1665643485 -2027533607 4634143 1319029061 1657881181 891625213 1606859241 632640830 -1085205286 -383692409 1386939976 -1624936669 205326613 1554949635 -1631604921 1160309754 -1305581727 -496870583 -1336886513 -621770116 -1665010840 -1804262965 355777136 -519635896 -1747034564 -1144715713
REM
CELL 1.54180   50.00000   50.00000   50.00000   90.00000   90.00000   90.00000
LATT -1
SFAC C  
C      1  0.5152560000000  0.4734940000000  0.5813080000000 1.0
C      1  0.5783440000000  0.5266540000000  0.4843680000000 1.0
C      1  0.4853270000000  0.4735140000000  0.4196820000000 1.0
C      1  0.4225350000000  0.5266780000000  0.5162770000000 1.0
C      1  0.5271790000000  0.4618540000000  0.5220990000000 1.0
C      1  0.5213060000000  0.5369910000000  0.4744740000000 1.0
C      1  0.4738930000000  0.4619850000000  0.4790630000000 1.0
C      1  0.4791290000000  0.5364420000000  0.5270310000000 1.0
C      1  0.5175500000000  0.4232160000000  0.5236760000000 1.0
C      1  0.5235910000000  0.5758480000000  0.4830200000000 1.0
C      1  0.4829320000000  0.4232020000000  0.4773830000000 1.0
C      1  0.4768000000000  0.5751420000000  0.5177730000000 1.0
C      1  0.4339770000000  0.4837970000000  0.4981200000000 1.0
C      1  0.4996660000000  0.5162330000000  0.5674840000000 1.0
C      1  0.5666610000000  0.4836540000000  0.5023800000000 1.0
C      1  0.5018050000000  0.5161470000000  0.4339540000000 1.0
C      1  0.5464740000000  0.5236010000000  0.5244080000000 1.0
C      1  0.5212800000000  0.4768880000000  0.4567320000000 1.0
C      1  0.4549070000000  0.5236410000000  0.4765490000000 1.0
C      1  0.4791600000000  0.4776740000000  0.5438330000000 1.0
C      1  0.5277070000000  0.5756110000000  0.5108130000000 1.0
C      1  0.5106830000000  0.4238200000000  0.4729360000000 1.0
C      1  0.4727090000000  0.5754140000000  0.4900060000000 1.0
C      1  0.4898130000000  0.4241990000000  0.5281560000000 1.0
C      1  0.4969100000000  0.5684450000000  0.4710260000000 1.0
C      1  0.4707530000000  0.4309440000000  0.5039570000000 1.0
C      1  0.5035440000000  0.5679760000000  0.5296660000000 1.0
C      1  0.5296970000000  0.4308750000000  0.4970520000000 1.0
C      1  0.4700370000000  0.5487420000000  0.4604370000000 1.0
C      1  0.4620260000000  0.4527730000000  0.5297380000000 1.0
C      1  0.5307070000000  0.5486790000000  0.5401050000000 1.0
C      1  0.5384560000000  0.4523950000000  0.4710250000000 1.0
C      1  0.5012590000000  0.5402200000000  0.5500900000000 1.0
C      1  0.5500880000000  0.4588250000000  0.5002930000000 1.0
C      1  0.4997100000000  0.5404790000000  0.4509130000000 1.0
C      1  0.4505630000000  0.4590030000000  0.5003920000000 1.0
C      1  0.5323770000000  0.4372060000000  0.5449120000000 1.0
C      1  0.5446850000000  0.5607760000000  0.4688820000000 1.0
C      1  0.4684370000000  0.4374900000000  0.4561130000000 1.0
C      1  0.4557490000000  0.5600810000000  0.5319440000000 1.0
C      1  0.4941610000000  0.4595120000000  0.5690690000000 1.0
C      1  0.5689710000000  0.5417590000000  0.5062930000000 1.0
C      1  0.5058030000000  0.4586840000000  0.4320510000000 1.0
C      1  0.4319780000000  0.5416130000000  0.4943670000000 1.0
C      1  0.5203800000000  0.5140530000000  0.5071810000000 1.0
C      1  0.5012320000000  0.4906950000000  0.4805170000000 1.0
C      1  0.4803690000000  0.5137620000000  0.4941840000000 1.0
C      1  0.5001450000000  0.4908010000000  0.5204730000000 1.0
C      1  0.4793940000000  0.4975050000000  0.4346540000000 1.0
C      1  0.4371280000000  0.5022100000000  0.5200870000000 1.0
C      1  0.5218580000000  0.4973900000000  0.5665020000000 1.0
C      1  0.5631490000000  0.5023240000000  0.4805650000000 1.0
C      1  0.5749040000000  0.4899280000000  0.5518590000000 1.0
C      1  0.5517340000000  0.5090240000000  0.4296090000000 1.0
C      1  0.4263150000000  0.4904700000000  0.4485950000000 1.0
C      1  0.4500940000000  0.5082980000000  0.5746380000000 1.0
C      1  0.4361860000000  0.4980530000000  0.4731570000000 1.0
C      1  0.4748550000000  0.5019330000000  0.5644880000000 1.0
C      1  0.5648760000000  0.4977980000000  0.5274510000000 1.0
C      1  0.5264950000000  0.5018440000000  0.4378710000000 1.0
C      1  0.5196430000000  0.4380070000000  0.4479580000000 1.0
C      1  0.4473600000000  0.5626240000000  0.4802520000000 1.0
C      1  0.4808680000000  0.4388390000000  0.5528890000000 1.0
C      1  0.5531920000000  0.5626810000000  0.5201800000000 1.0
C      1  0.5350710000000  0.5081860000000  0.4778200000000 1.0
C      1  0.4736370000000  0.4905030000000  0.4618510000000 1.0
C      1  0.4658210000000  0.5073080000000  0.5237080000000 1.0
C      1  0.5275770000000  0.4903870000000  0.5393100000000 1.0
C      1  0.5002840000000  0.5392760000000  0.5008020000000 1.0
C      1  0.5005740000000  0.4639260000000  0.5005370000000 1.0
END
