TITL C-2782225-7408-411 -0.000170758817678232 125000 -477.599632638477 0 0 80 (C1) n - 1
REM
REM in /home/nfs/bkarasulu/CARBON/AIRSS/Generating-Clusters/REBO/Higher-Symm/SD-CG/HFTN-CG
REM
REM
REM
REM
REM
REM ./C.cell (12c818d87b63d06a65506943cc24bca4)
REM
REM compiler GCC version 9.2.1 20190827 (Red Hat 9.2.1-1)
REM options -cpp -mtune=generic -march=x86-64 -g -O0 -fpre-include=/usr/include/finclude/math-vector-fortran.h
REM seed 613556031 -592839945 1579867610 -1165404051 -1280589268 1830716403 1447632367 -929512519 2013433707 -561176520 2001841712 1273394407 819328507 -1379995901 -1006239693 -676524839 -1662069476 -362369921 -854905878 6805804 930375518 1451842391 -1445305472 -1087601465 -508765830 596929860 -1563253495 -1408163258 1398088063 693958205 -2043018052 1653713343 -1677771688
REM
CELL 1.54180   50.00000   50.00000   50.00000   90.00000   90.00000   90.00000
LATT -1
SFAC C  
C      1  0.4639150000000  0.4336560000000  0.5473410000000 1.0
C      1  0.5321050000000  0.4335200000000  0.5476710000000 1.0
C      1  0.5530090000000  0.4370690000000  0.4818540000000 1.0
C      1  0.4991570000000  0.4351910000000  0.4427990000000 1.0
C      1  0.4435810000000  0.4323590000000  0.4823100000000 1.0
C      1  0.5510740000000  0.5584620000000  0.5117940000000 1.0
C      1  0.5271410000000  0.5588870000000  0.4552610000000 1.0
C      1  0.4662950000000  0.5582290000000  0.4604990000000 1.0
C      1  0.4523410000000  0.5580300000000  0.5199690000000 1.0
C      1  0.5047340000000  0.5581780000000  0.5518310000000 1.0
C      1  0.4708490000000  0.4349210000000  0.4966830000000 1.0
C      1  0.4851220000000  0.4372910000000  0.5255040000000 1.0
C      1  0.5176420000000  0.4374120000000  0.5207770000000 1.0
C      1  0.5218790000000  0.4373770000000  0.4889600000000 1.0
C      1  0.4944120000000  0.4369460000000  0.4738410000000 1.0
C      1  0.4762940000000  0.4655900000000  0.4720250000000 1.0
C      1  0.4710630000000  0.4682910000000  0.5048320000000 1.0
C      1  0.4955040000000  0.4697140000000  0.5270790000000 1.0
C      1  0.5248590000000  0.4696890000000  0.5117990000000 1.0
C      1  0.5245970000000  0.4695230000000  0.4777970000000 1.0
C      1  0.5585500000000  0.4831630000000  0.4470560000000 1.0
C      1  0.4681120000000  0.4823690000000  0.4265350000000 1.0
C      1  0.4209950000000  0.4816160000000  0.5095580000000 1.0
C      1  0.4844550000000  0.4818700000000  0.5775180000000 1.0
C      1  0.5689030000000  0.4818150000000  0.5382560000000 1.0
C      1  0.5413860000000  0.5418870000000  0.4289680000000 1.0
C      1  0.4457880000000  0.5409130000000  0.4389200000000 1.0
C      1  0.4255010000000  0.5406940000000  0.5328390000000 1.0
C      1  0.5086550000000  0.5405310000000  0.5811680000000 1.0
C      1  0.5802780000000  0.5409210000000  0.5170240000000 1.0
C      1  0.4785960000000  0.5410110000000  0.5652240000000 1.0
C      1  0.5558560000000  0.5411220000000  0.5406900000000 1.0
C      1  0.5564750000000  0.5421690000000  0.4595100000000 1.0
C      1  0.4794350000000  0.5415670000000  0.4339000000000 1.0
C      1  0.4318830000000  0.5403210000000  0.4993890000000 1.0
C      1  0.4583750000000  0.4779350000000  0.5667270000000 1.0
C      1  0.5504580000000  0.4775430000000  0.5595350000000 1.0
C      1  0.5754620000000  0.4793170000000  0.4699240000000 1.0
C      1  0.4958390000000  0.4787970000000  0.4197230000000 1.0
C      1  0.4238590000000  0.4774490000000  0.4814770000000 1.0
C      1  0.5400820000000  0.5025850000000  0.5682290000000 1.0
C      1  0.5799850000000  0.5040590000000  0.4831110000000 1.0
C      1  0.5093040000000  0.5038610000000  0.4193030000000 1.0
C      1  0.4279010000000  0.5022120000000  0.4679960000000 1.0
C      1  0.4472890000000  0.5028650000000  0.5587590000000 1.0
C      1  0.4556410000000  0.5405840000000  0.5487880000000 1.0
C      1  0.5331920000000  0.5404680000000  0.5575110000000 1.0
C      1  0.5654170000000  0.5411290000000  0.4863340000000 1.0
C      1  0.5076650000000  0.5411180000000  0.4337480000000 1.0
C      1  0.4404760000000  0.5398370000000  0.4725510000000 1.0
C      1  0.4623780000000  0.5119940000000  0.4312810000000 1.0
C      1  0.4242100000000  0.5111520000000  0.5155780000000 1.0
C      1  0.4915500000000  0.5112820000000  0.5761750000000 1.0
C      1  0.5703240000000  0.5114950000000  0.5315190000000 1.0
C      1  0.5531430000000  0.5127400000000  0.4423980000000 1.0
C      1  0.4776640000000  0.5683360000000  0.5089920000000 1.0
C      1  0.5019330000000  0.5683640000000  0.5242790000000 1.0
C      1  0.5239510000000  0.5685320000000  0.5059080000000 1.0
C      1  0.5132430000000  0.5686750000000  0.4793020000000 1.0
C      1  0.4846540000000  0.5684730000000  0.4811990000000 1.0
C      1  0.4583060000000  0.5124420000000  0.4637260000000 1.0
C      1  0.4539630000000  0.5132350000000  0.5287950000000 1.0
C      1  0.5139830000000  0.5132440000000  0.5527340000000 1.0
C      1  0.5557620000000  0.5132000000000  0.5025040000000 1.0
C      1  0.5207510000000  0.5136200000000  0.4479100000000 1.0
C      1  0.5713920000000  0.4576460000000  0.4887800000000 1.0
C      1  0.5123730000000  0.4579750000000  0.4314710000000 1.0
C      1  0.4364280000000  0.4556680000000  0.4672740000000 1.0
C      1  0.4470010000000  0.4562020000000  0.5516060000000 1.0
C      1  0.5319460000000  0.4560570000000  0.5651930000000 1.0
C      1  0.5067050000000  0.4640720000000  0.5768080000000 1.0
C      1  0.5746210000000  0.4643500000000  0.5165910000000 1.0
C      1  0.5344430000000  0.4676660000000  0.4480740000000 1.0
C      1  0.4573660000000  0.4652180000000  0.4465510000000 1.0
C      1  0.4284740000000  0.4639750000000  0.5307440000000 1.0
C      1  0.5113600000000  0.5002770000000  0.4733320000000 1.0
C      1  0.4801270000000  0.4978420000000  0.4796580000000 1.0
C      1  0.4758080000000  0.5010640000000  0.5126860000000 1.0
C      1  0.5062320000000  0.5017350000000  0.5264800000000 1.0
C      1  0.5285240000000  0.5014080000000  0.5015570000000 1.0
END
