TITL C-2782233-7966-815 0.00220548085974627 125000 -727.530768633018 0 0 121 (C1) n - 1
REM
REM in /home/nfs/bkarasulu/CARBON/AIRSS/Generating-Clusters/REBO/Higher-Symm/SD-CG/HFTN-CG
REM
REM
REM
REM
REM
REM ./C.cell (12c818d87b63d06a65506943cc24bca4)
REM
REM compiler GCC version 9.2.1 20190827 (Red Hat 9.2.1-1)
REM options -cpp -mtune=generic -march=x86-64 -g -O0 -fpre-include=/usr/include/finclude/math-vector-fortran.h
REM seed -1580064241 -212737845 791784486 774919501 -1333173277 -1901239570 852452757 -101462547 1173410012 -654777071 -2138627419 156743749 1126728319 1252500776 1382783304 -1166366407 -1913947094 -1520106174 1100073284 -33630805 -548834510 -249940056 -532964956 -852714503 1770860154 -652407901 -1732025440 -1823881962 569920866 1103607438 1389174040 1282713556 -1629553492
REM
CELL 1.54180   50.00000   50.00000   50.00000   90.00000   90.00000   90.00000
LATT -1
SFAC C  
C      1  0.5491830000000  0.4416040000000  0.5640060000000 1.0
C      1  0.5471570000000  0.4406330000000  0.4360050000000 1.0
C      1  0.5487850000000  0.5570710000000  0.4395330000000 1.0
C      1  0.5511980000000  0.5616880000000  0.5567310000000 1.0
C      1  0.4475920000000  0.4416680000000  0.5588600000000 1.0
C      1  0.4429930000000  0.4429150000000  0.4383290000000 1.0
C      1  0.4502560000000  0.5543590000000  0.4388110000000 1.0
C      1  0.4503610000000  0.5624250000000  0.5523530000000 1.0
C      1  0.5139460000000  0.4769570000000  0.4112130000000 1.0
C      1  0.5133180000000  0.5927690000000  0.4763720000000 1.0
C      1  0.5180050000000  0.5271530000000  0.5909810000000 1.0
C      1  0.5219170000000  0.4106050000000  0.5249070000000 1.0
C      1  0.4815800000000  0.4733470000000  0.4127320000000 1.0
C      1  0.4832750000000  0.5859100000000  0.4698240000000 1.0
C      1  0.4859770000000  0.5298470000000  0.5873360000000 1.0
C      1  0.4884610000000  0.4116990000000  0.5211040000000 1.0
C      1  0.5672580000000  0.4380650000000  0.5028440000000 1.0
C      1  0.5644470000000  0.5036690000000  0.4401970000000 1.0
C      1  0.5648220000000  0.5642250000000  0.5017670000000 1.0
C      1  0.5592620000000  0.5096340000000  0.5707530000000 1.0
C      1  0.4383310000000  0.4374380000000  0.4942410000000 1.0
C      1  0.4326240000000  0.5047530000000  0.4335580000000 1.0
C      1  0.4321390000000  0.5644610000000  0.4970290000000 1.0
C      1  0.4382910000000  0.4991300000000  0.5617660000000 1.0
C      1  0.4063360000000  0.5189600000000  0.4995060000000 1.0
C      1  0.4054660000000  0.4962000000000  0.5203960000000 1.0
C      1  0.4077630000000  0.4661790000000  0.5137050000000 1.0
C      1  0.4045270000000  0.4994460000000  0.4715970000000 1.0
C      1  0.6028790000000  0.5425770000000  0.4911040000000 1.0
C      1  0.5920600000000  0.5051280000000  0.5326000000000 1.0
C      1  0.5940100000000  0.4829120000000  0.5070040000000 1.0
C      1  0.5939410000000  0.4909000000000  0.4739150000000 1.0
C      1  0.4203900000000  0.4857350000000  0.5457860000000 1.0
C      1  0.4175250000000  0.4553340000000  0.4888820000000 1.0
C      1  0.4132150000000  0.5175100000000  0.4487560000000 1.0
C      1  0.4187510000000  0.5463860000000  0.5134440000000 1.0
C      1  0.5761370000000  0.4901070000000  0.5555690000000 1.0
C      1  0.5824030000000  0.4561820000000  0.4894340000000 1.0
C      1  0.5837660000000  0.5129420000000  0.4579590000000 1.0
C      1  0.5867830000000  0.5509140000000  0.5132190000000 1.0
C      1  0.5793960000000  0.4678930000000  0.5338640000000 1.0
C      1  0.5812120000000  0.4659030000000  0.4608740000000 1.0
C      1  0.5863340000000  0.5392280000000  0.4680540000000 1.0
C      1  0.5844720000000  0.5329550000000  0.5354220000000 1.0
C      1  0.4237260000000  0.4538070000000  0.5396810000000 1.0
C      1  0.4157110000000  0.4733230000000  0.4667390000000 1.0
C      1  0.4171120000000  0.5369420000000  0.4724310000000 1.0
C      1  0.4280190000000  0.5447950000000  0.5393810000000 1.0
C      1  0.5402170000000  0.4927160000000  0.4198170000000 1.0
C      1  0.5390700000000  0.5786130000000  0.4900760000000 1.0
C      1  0.5348640000000  0.5045640000000  0.5863680000000 1.0
C      1  0.5487330000000  0.4167590000000  0.5175450000000 1.0
C      1  0.4561070000000  0.4908610000000  0.4170010000000 1.0
C      1  0.4590690000000  0.5803380000000  0.4882990000000 1.0
C      1  0.4661730000000  0.5066530000000  0.5797840000000 1.0
C      1  0.4641800000000  0.4165350000000  0.5016610000000 1.0
C      1  0.4559680000000  0.4246730000000  0.4487590000000 1.0
C      1  0.4643400000000  0.5406480000000  0.4235290000000 1.0
C      1  0.4655750000000  0.5810630000000  0.5404630000000 1.0
C      1  0.4656670000000  0.4533880000000  0.5757290000000 1.0
C      1  0.5286370000000  0.4237520000000  0.4470480000000 1.0
C      1  0.5329590000000  0.5434130000000  0.4262690000000 1.0
C      1  0.5325320000000  0.5752290000000  0.5422710000000 1.0
C      1  0.5342770000000  0.4529270000000  0.5798980000000 1.0
C      1  0.4864060000000  0.5490460000000  0.5628720000000 1.0
C      1  0.4831580000000  0.4348000000000  0.5422340000000 1.0
C      1  0.4816760000000  0.4528000000000  0.4366620000000 1.0
C      1  0.4873420000000  0.5614890000000  0.4518000000000 1.0
C      1  0.5160140000000  0.5453250000000  0.5663140000000 1.0
C      1  0.5127610000000  0.4329720000000  0.5442130000000 1.0
C      1  0.5108350000000  0.4571500000000  0.4342600000000 1.0
C      1  0.5157860000000  0.5646330000000  0.4607490000000 1.0
C      1  0.5151480000000  0.5159620000000  0.4193040000000 1.0
C      1  0.5149630000000  0.5802640000000  0.5142310000000 1.0
C      1  0.5178280000000  0.4782490000000  0.5860250000000 1.0
C      1  0.5089670000000  0.4259550000000  0.4659460000000 1.0
C      1  0.4812790000000  0.5130460000000  0.4172840000000 1.0
C      1  0.4809710000000  0.5808070000000  0.5125160000000 1.0
C      1  0.4846010000000  0.4797260000000  0.5812030000000 1.0
C      1  0.4763250000000  0.4197610000000  0.4712000000000 1.0
C      1  0.5371670000000  0.5367170000000  0.4932930000000 1.0
C      1  0.5320690000000  0.5068660000000  0.5416260000000 1.0
C      1  0.5329040000000  0.4586580000000  0.5103560000000 1.0
C      1  0.5338050000000  0.4889800000000  0.4610420000000 1.0
C      1  0.4754940000000  0.5330050000000  0.4910860000000 1.0
C      1  0.4732520000000  0.5085500000000  0.5329910000000 1.0
C      1  0.4692940000000  0.4673130000000  0.5065020000000 1.0
C      1  0.4732490000000  0.4917420000000  0.4665650000000 1.0
C      1  0.4737570000000  0.4604650000000  0.5352520000000 1.0
C      1  0.4732710000000  0.4620800000000  0.4617030000000 1.0
C      1  0.4781960000000  0.5369380000000  0.4614940000000 1.0
C      1  0.4786430000000  0.5377550000000  0.5381740000000 1.0
C      1  0.5243930000000  0.4577140000000  0.5370840000000 1.0
C      1  0.5234210000000  0.4632860000000  0.4588680000000 1.0
C      1  0.5268270000000  0.5394170000000  0.4678150000000 1.0
C      1  0.5262380000000  0.5340350000000  0.5423820000000 1.0
C      1  0.4442010000000  0.4998400000000  0.4756680000000 1.0
C      1  0.4457660000000  0.5231110000000  0.4956220000000 1.0
C      1  0.4437420000000  0.5076270000000  0.5219990000000 1.0
C      1  0.4416280000000  0.4840650000000  0.5024120000000 1.0
C      1  0.5544860000000  0.4923110000000  0.4789680000000 1.0
C      1  0.5557520000000  0.5165250000000  0.4981080000000 1.0
C      1  0.5532750000000  0.5009050000000  0.5246330000000 1.0
C      1  0.5526530000000  0.4774650000000  0.5054380000000 1.0
C      1  0.5161060000000  0.4497570000000  0.4874620000000 1.0
C      1  0.5200370000000  0.5138110000000  0.4523770000000 1.0
C      1  0.5211870000000  0.5473760000000  0.5159050000000 1.0
C      1  0.5158100000000  0.4835130000000  0.5500820000000 1.0
C      1  0.4839540000000  0.4482190000000  0.4875710000000 1.0
C      1  0.4884290000000  0.5114800000000  0.4486170000000 1.0
C      1  0.4891600000000  0.5499620000000  0.5122100000000 1.0
C      1  0.4839430000000  0.4855710000000  0.5490910000000 1.0
C      1  0.5651200000000  0.5366710000000  0.5574830000000 1.0
C      1  0.5631830000000  0.4410160000000  0.5366120000000 1.0
C      1  0.5594660000000  0.4699960000000  0.4369830000000 1.0
C      1  0.5610570000000  0.5600680000000  0.4679660000000 1.0
C      1  0.4471880000000  0.5303650000000  0.5634540000000 1.0
C      1  0.4455460000000  0.4312790000000  0.5264120000000 1.0
C      1  0.4348160000000  0.4721560000000  0.4399120000000 1.0
C      1  0.4389530000000  0.5589510000000  0.4659330000000 1.0
C      1  0.4778800000000  0.4999600000000  0.4997860000000 1.0
END
