TITL C-2782234-8014-734 -0.00374179264633563 125000 -932.758976379557 0 0 161 (C1) n - 1
REM
REM in /home/nfs/bkarasulu/CARBON/AIRSS/Generating-Clusters/REBO/Higher-Symm/SD-CG/HFTN-CG
REM
REM
REM
REM
REM
REM ./C.cell (12c818d87b63d06a65506943cc24bca4)
REM
REM compiler GCC version 9.2.1 20190827 (Red Hat 9.2.1-1)
REM options -cpp -mtune=generic -march=x86-64 -g -O0 -fpre-include=/usr/include/finclude/math-vector-fortran.h
REM seed 1009863099 1627643825 -457879792 -1047877037 540448162 -22357803 -642290059 110394056 1723958390 -155816876 1598505914 2016668277 178512559 379437734 -147859165 772157744 785605558 446163281 419202659 -1315769672 -1557189272 140993479 1500175709 1025096084 -1614553711 -100850745 317110770 -823206559 -575023763 -2115003385 965295391 606934381 -1914590239
REM
CELL 1.54180   50.00000   50.00000   50.00000   90.00000   90.00000   90.00000
LATT -1
SFAC C  
C      1  0.5070610000000  0.5251910000000  0.4479970000000 1.0
C      1  0.5289670000000  0.5018800000000  0.4518100000000 1.0
C      1  0.5110620000000  0.4747440000000  0.4472390000000 1.0
C      1  0.4791710000000  0.4803790000000  0.4423760000000 1.0
C      1  0.4764070000000  0.5123640000000  0.4475060000000 1.0
C      1  0.4015790000000  0.4999380000000  0.4900940000000 1.0
C      1  0.4737630000000  0.5872630000000  0.4946610000000 1.0
C      1  0.5786890000000  0.5613800000000  0.4965640000000 1.0
C      1  0.5810470000000  0.4421780000000  0.4936990000000 1.0
C      1  0.4730690000000  0.4111950000000  0.4976380000000 1.0
C      1  0.4561740000000  0.4324130000000  0.4162000000000 1.0
C      1  0.4226380000000  0.4968450000000  0.4104680000000 1.0
C      1  0.4835620000000  0.5713030000000  0.4248670000000 1.0
C      1  0.5521180000000  0.5389810000000  0.4204430000000 1.0
C      1  0.5493920000000  0.4455620000000  0.4136270000000 1.0
C      1  0.4878470000000  0.4523580000000  0.5320080000000 1.0
C      1  0.4517190000000  0.4923450000000  0.5282010000000 1.0
C      1  0.4816050000000  0.5445850000000  0.5366850000000 1.0
C      1  0.5462180000000  0.5331410000000  0.5317390000000 1.0
C      1  0.5423320000000  0.4739670000000  0.5288500000000 1.0
C      1  0.5853750000000  0.4696330000000  0.4355710000000 1.0
C      1  0.5101680000000  0.4017840000000  0.4424040000000 1.0
C      1  0.4130960000000  0.4718770000000  0.4325030000000 1.0
C      1  0.4509740000000  0.5705050000000  0.4325740000000 1.0
C      1  0.5504740000000  0.5692500000000  0.4361760000000 1.0
C      1  0.4326420000000  0.4576560000000  0.5095910000000 1.0
C      1  0.4343690000000  0.5574610000000  0.5150960000000 1.0
C      1  0.5303460000000  0.5757620000000  0.5162050000000 1.0
C      1  0.5643480000000  0.5145210000000  0.5133030000000 1.0
C      1  0.5336860000000  0.4485600000000  0.5101950000000 1.0
C      1  0.5228460000000  0.5005800000000  0.4973430000000 1.0
C      1  0.5018700000000  0.4817420000000  0.4957420000000 1.0
C      1  0.4774920000000  0.4946480000000  0.4978510000000 1.0
C      1  0.4824040000000  0.5212250000000  0.5044290000000 1.0
C      1  0.5107450000000  0.5268380000000  0.5031690000000 1.0
C      1  0.4280030000000  0.4670860000000  0.4027480000000 1.0
C      1  0.4378590000000  0.5429810000000  0.4173040000000 1.0
C      1  0.5286730000000  0.5593640000000  0.4125160000000 1.0
C      1  0.5693090000000  0.4901620000000  0.4236780000000 1.0
C      1  0.5191420000000  0.4227840000000  0.4257030000000 1.0
C      1  0.5160660000000  0.4598930000000  0.5439890000000 1.0
C      1  0.4634430000000  0.4669100000000  0.5420090000000 1.0
C      1  0.4669840000000  0.5144050000000  0.5421580000000 1.0
C      1  0.5149720000000  0.5392880000000  0.5409310000000 1.0
C      1  0.5331250000000  0.5036980000000  0.5427110000000 1.0
C      1  0.4952760000000  0.5643370000000  0.4818360000000 1.0
C      1  0.5712490000000  0.5334880000000  0.4788890000000 1.0
C      1  0.5441700000000  0.4500120000000  0.4804250000000 1.0
C      1  0.4649960000000  0.4386320000000  0.4790520000000 1.0
C      1  0.4264320000000  0.5184710000000  0.4785100000000 1.0
C      1  0.5489560000000  0.5595940000000  0.5758500000000 1.0
C      1  0.5645790000000  0.4847040000000  0.5881160000000 1.0
C      1  0.5019530000000  0.4257010000000  0.5730440000000 1.0
C      1  0.4257900000000  0.4850990000000  0.5775170000000 1.0
C      1  0.4602960000000  0.5482720000000  0.5775710000000 1.0
C      1  0.5193330000000  0.4496300000000  0.4602320000000 1.0
C      1  0.4573360000000  0.4643420000000  0.4579810000000 1.0
C      1  0.4559040000000  0.5268110000000  0.4633880000000 1.0
C      1  0.5156140000000  0.5516930000000  0.4601570000000 1.0
C      1  0.5561830000000  0.5095940000000  0.4595880000000 1.0
C      1  0.6134700000000  0.4778960000000  0.4759710000000 1.0
C      1  0.5143910000000  0.3817240000000  0.4862930000000 1.0
C      1  0.4021020000000  0.4651640000000  0.4708170000000 1.0
C      1  0.4357920000000  0.5820580000000  0.4836930000000 1.0
C      1  0.5495670000000  0.5887800000000  0.4839770000000 1.0
C      1  0.4355410000000  0.4869420000000  0.4688500000000 1.0
C      1  0.4674530000000  0.5490600000000  0.4801700000000 1.0
C      1  0.5433240000000  0.5504870000000  0.4744070000000 1.0
C      1  0.5607970000000  0.4762090000000  0.4810330000000 1.0
C      1  0.4971230000000  0.4369700000000  0.4788890000000 1.0
C      1  0.5595680000000  0.4925920000000  0.5597300000000 1.0
C      1  0.5236920000000  0.4379320000000  0.5608660000000 1.0
C      1  0.4411710000000  0.4598550000000  0.5649170000000 1.0
C      1  0.4499190000000  0.5249680000000  0.5658530000000 1.0
C      1  0.5214670000000  0.5633010000000  0.5589400000000 1.0
C      1  0.5598990000000  0.5328870000000  0.5724320000000 1.0
C      1  0.5517450000000  0.4584580000000  0.5788410000000 1.0
C      1  0.4798080000000  0.4425960000000  0.5731640000000 1.0
C      1  0.4245530000000  0.5116580000000  0.5676890000000 1.0
C      1  0.4867040000000  0.5553740000000  0.5759630000000 1.0
C      1  0.5616950000000  0.5858860000000  0.5130260000000 1.0
C      1  0.5969830000000  0.4700450000000  0.4968030000000 1.0
C      1  0.4931220000000  0.3860700000000  0.5048510000000 1.0
C      1  0.4046610000000  0.4694630000000  0.5019040000000 1.0
C      1  0.4461790000000  0.5872410000000  0.5140550000000 1.0
C      1  0.4122440000000  0.5503690000000  0.5382660000000 1.0
C      1  0.5202490000000  0.5979110000000  0.5396530000000 1.0
C      1  0.5950780000000  0.5122650000000  0.5387140000000 1.0
C      1  0.5389560000000  0.4129290000000  0.5339530000000 1.0
C      1  0.4284000000000  0.4369770000000  0.5350470000000 1.0
C      1  0.6121810000000  0.4748600000000  0.4485760000000 1.0
C      1  0.5301940000000  0.3934890000000  0.4642380000000 1.0
C      1  0.4148790000000  0.4452650000000  0.4538190000000 1.0
C      1  0.4250100000000  0.5761590000000  0.4542280000000 1.0
C      1  0.5369260000000  0.5913830000000  0.4564060000000 1.0
C      1  0.5203110000000  0.4470420000000  0.4052900000000 1.0
C      1  0.4539010000000  0.4565070000000  0.4016170000000 1.0
C      1  0.4422720000000  0.5168600000000  0.4071490000000 1.0
C      1  0.5011390000000  0.5534600000000  0.4099910000000 1.0
C      1  0.5503270000000  0.5109970000000  0.4192980000000 1.0
C      1  0.5040940000000  0.4531870000000  0.5043630000000 1.0
C      1  0.4496460000000  0.4808450000000  0.4965940000000 1.0
C      1  0.4602420000000  0.5438100000000  0.5101930000000 1.0
C      1  0.5269400000000  0.5499680000000  0.5011570000000 1.0
C      1  0.5508540000000  0.4966400000000  0.4970220000000 1.0
C      1  0.4842180000000  0.4758610000000  0.6161720000000 1.0
C      1  0.4733590000000  0.5052140000000  0.6195370000000 1.0
C      1  0.4981790000000  0.5249400000000  0.6181400000000 1.0
C      1  0.5223480000000  0.5072580000000  0.6117340000000 1.0
C      1  0.5146380000000  0.4781060000000  0.6149020000000 1.0
C      1  0.5753140000000  0.4699050000000  0.5211560000000 1.0
C      1  0.4876170000000  0.4212070000000  0.5343370000000 1.0
C      1  0.4178200000000  0.4911080000000  0.5254050000000 1.0
C      1  0.4610760000000  0.5714670000000  0.5410680000000 1.0
C      1  0.5624070000000  0.5590910000000  0.5330190000000 1.0
C      1  0.5118310000000  0.4090720000000  0.5358930000000 1.0
C      1  0.4144580000000  0.4657490000000  0.5445640000000 1.0
C      1  0.4342720000000  0.5669200000000  0.5538300000000 1.0
C      1  0.5484410000000  0.5827490000000  0.5511130000000 1.0
C      1  0.5817710000000  0.4887500000000  0.5432460000000 1.0
C      1  0.4695460000000  0.5071330000000  0.4143440000000 1.0
C      1  0.4968020000000  0.5236540000000  0.4152960000000 1.0
C      1  0.5198310000000  0.5011760000000  0.4187380000000 1.0
C      1  0.5061780000000  0.4720690000000  0.4141150000000 1.0
C      1  0.4752290000000  0.4761070000000  0.4088340000000 1.0
C      1  0.5089600000000  0.5950450000000  0.4755420000000 1.0
C      1  0.6013110000000  0.5171030000000  0.4775690000000 1.0
C      1  0.5494180000000  0.4169190000000  0.4723800000000 1.0
C      1  0.4344870000000  0.4257900000000  0.4708170000000 1.0
C      1  0.4123490000000  0.5488750000000  0.4706380000000 1.0
C      1  0.4012870000000  0.5190510000000  0.5160830000000 1.0
C      1  0.4832270000000  0.5919750000000  0.5270910000000 1.0
C      1  0.5921260000000  0.5498360000000  0.5259650000000 1.0
C      1  0.5689060000000  0.4377250000000  0.5255030000000 1.0
C      1  0.4579520000000  0.4122850000000  0.5264760000000 1.0
C      1  0.5046570000000  0.5309710000000  0.5849780000000 1.0
C      1  0.5336690000000  0.5132070000000  0.5814850000000 1.0
C      1  0.5253950000000  0.4798260000000  0.5828640000000 1.0
C      1  0.4920180000000  0.4708920000000  0.5829630000000 1.0
C      1  0.4848000000000  0.5034690000000  0.5878770000000 1.0
C      1  0.4630240000000  0.5783370000000  0.4634230000000 1.0
C      1  0.5695160000000  0.5701380000000  0.4643790000000 1.0
C      1  0.5793780000000  0.4573600000000  0.4632950000000 1.0
C      1  0.4929410000000  0.4058790000000  0.4703380000000 1.0
C      1  0.4041160000000  0.4941590000000  0.4564300000000 1.0
C      1  0.5834540000000  0.5338870000000  0.5555620000000 1.0
C      1  0.5552280000000  0.4333770000000  0.5560170000000 1.0
C      1  0.4548610000000  0.4303730000000  0.5553310000000 1.0
C      1  0.4057520000000  0.5219870000000  0.5493070000000 1.0
C      1  0.4955100000000  0.5826700000000  0.5576230000000 1.0
C      1  0.5013000000000  0.5795250000000  0.4461180000000 1.0
C      1  0.5847400000000  0.5021050000000  0.4586390000000 1.0
C      1  0.5453210000000  0.4341020000000  0.4441030000000 1.0
C      1  0.4513680000000  0.4343780000000  0.4425240000000 1.0
C      1  0.4312000000000  0.5384630000000  0.4455950000000 1.0
C      1  0.5504310000000  0.4190610000000  0.5043450000000 1.0
C      1  0.4363330000000  0.4255350000000  0.5036490000000 1.0
C      1  0.4082990000000  0.5463280000000  0.5019300000000 1.0
C      1  0.5096290000000  0.5994050000000  0.5070290000000 1.0
C      1  0.5960720000000  0.5215170000000  0.5078340000000 1.0
C      1  0.4997700000000  0.5101230000000  0.5446870000000 1.0
END
