TITL C-2782227-3064-920 -0.119316529658749 125000 -236.462577289116 0 0 46 (C3) n - 1
REM
REM in /home/nfs/bkarasulu/CARBON/AIRSS/Generating-Clusters/REBO/Higher-Symm/SD-CG/HFTN-CG
REM
REM
REM
REM
REM
REM ./C.cell (12c818d87b63d06a65506943cc24bca4)
REM
REM compiler GCC version 9.2.1 20190827 (Red Hat 9.2.1-1)
REM options -cpp -mtune=generic -march=x86-64 -g -O0 -fpre-include=/usr/include/finclude/math-vector-fortran.h
REM seed -739497791 1040761651 -1777531418 -640734463 1399724472 1987865488 1994367556 -170543586 -11170420 -136885238 132395570 1484359069 616998192 -61103483 862040796 -1615257255 546447492 -1952422496 173350827 -830574870 -400382227 -1585296326 1085848993 -1313272196 2071429598 -1111721598 675744172 578060571 1394150074 1802748771 -582734504 -1142565949 -1046953012
REM
CELL 1.54180   50.00000   50.00000   50.00000   90.00000   90.00000   90.00000
LATT -1
SFAC C  
C      1  0.4393190000000  0.5062270000000  0.3924490000000 1.0
C      1  0.6226700000000  0.5062260000000  0.5008790000000 1.0
C      1  0.4370910000000  0.5066550000000  0.6054500000000 1.0
C      1  0.4280190000000  0.5581520000000  0.4356130000000 1.0
C      1  0.5909420000000  0.5580260000000  0.4693030000000 1.0
C      1  0.4803040000000  0.5584050000000  0.5935530000000 1.0
C      1  0.5473860000000  0.5493870000000  0.5001010000000 1.0
C      1  0.4754100000000  0.5495530000000  0.5404680000000 1.0
C      1  0.4764390000000  0.5493870000000  0.4579520000000 1.0
C      1  0.4529980000000  0.4298070000000  0.5090040000000 1.0
C      1  0.5148870000000  0.4296260000000  0.4547550000000 1.0
C      1  0.5309240000000  0.4297680000000  0.5354780000000 1.0
C      1  0.4446470000000  0.5122640000000  0.4585850000000 1.0
C      1  0.5627310000000  0.5121520000000  0.4724010000000 1.0
C      1  0.4917240000000  0.5124260000000  0.5677570000000 1.0
C      1  0.4507590000000  0.4866740000000  0.4393810000000 1.0
C      1  0.5763060000000  0.4866200000000  0.4873990000000 1.0
C      1  0.4719470000000  0.4869130000000  0.5721160000000 1.0
C      1  0.5328260000000  0.5299270000000  0.5099070000000 1.0
C      1  0.4741960000000  0.5300230000000  0.5230350000000 1.0
C      1  0.4921420000000  0.5298870000000  0.4656960000000 1.0
C      1  0.4690880000000  0.4492900000000  0.5159570000000 1.0
C      1  0.5008220000000  0.4491510000000  0.4651360000000 1.0
C      1  0.5289680000000  0.4492230000000  0.5180280000000 1.0
C      1  0.4418300000000  0.5080480000000  0.4192250000000 1.0
C      1  0.5982260000000  0.5080030000000  0.4896590000000 1.0
C      1  0.4590310000000  0.5083680000000  0.5898840000000 1.0
C      1  0.4361340000000  0.5328810000000  0.4375740000000 1.0
C      1  0.5851850000000  0.5327800000000  0.4754510000000 1.0
C      1  0.4778570000000  0.5331270000000  0.5855940000000 1.0
C      1  0.5148820000000  0.5027050000000  0.5484820000000 1.0
C      1  0.4497610000000  0.5026620000000  0.4883170000000 1.0
C      1  0.5344260000000  0.5025090000000  0.4620030000000 1.0
C      1  0.4936660000000  0.4763410000000  0.5509680000000 1.0
C      1  0.4582130000000  0.4762190000000  0.4688070000000 1.0
C      1  0.5470940000000  0.4761340000000  0.4791840000000 1.0
C      1  0.5269800000000  0.4689920000000  0.5002970000000 1.0
C      1  0.4854390000000  0.4690870000000  0.5230210000000 1.0
C      1  0.4865290000000  0.4689910000000  0.4756840000000 1.0
C      1  0.5080890000000  0.5100860000000  0.4735600000000 1.0
C      1  0.5180420000000  0.5101660000000  0.5198640000000 1.0
C      1  0.4729640000000  0.5101910000000  0.5053320000000 1.0
C      1  0.5379620000000  0.4723860000000  0.4465140000000 1.0
C      1  0.4344730000000  0.4726010000000  0.4930580000000 1.0
C      1  0.5265260000000  0.4726250000000  0.5594100000000 1.0
C      1  0.4996740000000  0.4896020000000  0.4996260000000 1.0
END
