TITL C-2782232-2968-1380 -0.00192670316839278 125000 -533.418627558363 0 0 94 (C1) n - 1
REM
REM in /home/nfs/bkarasulu/CARBON/AIRSS/Generating-Clusters/REBO/Higher-Symm/SD-CG/HFTN-CG
REM
REM
REM
REM
REM
REM ./C.cell (12c818d87b63d06a65506943cc24bca4)
REM
REM compiler GCC version 9.2.1 20190827 (Red Hat 9.2.1-1)
REM options -cpp -mtune=generic -march=x86-64 -g -O0 -fpre-include=/usr/include/finclude/math-vector-fortran.h
REM seed 1591465820 1525086811 966560987 295954174 1462548171 712512102 -1966856460 -982214363 -1206872964 1975651211 1887742234 -1781941984 -43494017 433362969 -1981995737 179905193 -1469327932 -336616959 294129237 1044180376 1311943204 -1460379663 139467307 1743438483 902954909 921414742 1594469902 279136575 -1208660692 -1640396180 361121652 1883065412 -515235077
REM
CELL 1.54180   50.00000   50.00000   50.00000   90.00000   90.00000   90.00000
LATT -1
SFAC C  
C      1  0.4679350000000  0.4592610000000  0.5603210000000 1.0
C      1  0.5487860000000  0.4934590000000  0.5547060000000 1.0
C      1  0.4764570000000  0.5505340000000  0.5584450000000 1.0
C      1  0.5622790000000  0.4696550000000  0.5344940000000 1.0
C      1  0.4892690000000  0.5666110000000  0.5315640000000 1.0
C      1  0.4436020000000  0.4621280000000  0.5365440000000 1.0
C      1  0.5443780000000  0.4258150000000  0.5034370000000 1.0
C      1  0.5336330000000  0.5746490000000  0.5031660000000 1.0
C      1  0.4125910000000  0.4961900000000  0.5070050000000 1.0
C      1  0.4861000000000  0.4160570000000  0.4519330000000 1.0
C      1  0.5820210000000  0.5275760000000  0.4530430000000 1.0
C      1  0.4395040000000  0.5546480000000  0.4628460000000 1.0
C      1  0.4168140000000  0.5458460000000  0.4921660000000 1.0
C      1  0.5126540000000  0.4079040000000  0.4919760000000 1.0
C      1  0.5806600000000  0.5561310000000  0.4930250000000 1.0
C      1  0.5368570000000  0.5568240000000  0.5637240000000 1.0
C      1  0.4288090000000  0.5085410000000  0.5643670000000 1.0
C      1  0.5258350000000  0.4358900000000  0.5675540000000 1.0
C      1  0.5163400000000  0.4203560000000  0.5212570000000 1.0
C      1  0.5568720000000  0.5556170000000  0.5150950000000 1.0
C      1  0.4216100000000  0.5256190000000  0.5173530000000 1.0
C      1  0.4425980000000  0.5533920000000  0.5546210000000 1.0
C      1  0.4799570000000  0.4274960000000  0.5567080000000 1.0
C      1  0.5681170000000  0.5212100000000  0.5511930000000 1.0
C      1  0.5252430000000  0.4918920000000  0.4611730000000 1.0
C      1  0.5005330000000  0.5245130000000  0.4624320000000 1.0
C      1  0.4799320000000  0.4801110000000  0.4588350000000 1.0
C      1  0.4314200000000  0.4999510000000  0.4526170000000 1.0
C      1  0.5373880000000  0.4412870000000  0.4453110000000 1.0
C      1  0.5366000000000  0.5601180000000  0.4490160000000 1.0
C      1  0.4414170000000  0.4718510000000  0.4601950000000 1.0
C      1  0.5537830000000  0.4644610000000  0.4565110000000 1.0
C      1  0.5075200000000  0.5635560000000  0.4584860000000 1.0
C      1  0.5571480000000  0.4971720000000  0.4602040000000 1.0
C      1  0.4788270000000  0.5482980000000  0.4649230000000 1.0
C      1  0.4676390000000  0.4500960000000  0.4619550000000 1.0
C      1  0.5108130000000  0.4544050000000  0.4285020000000 1.0
C      1  0.5367860000000  0.5328340000000  0.4303290000000 1.0
C      1  0.4544560000000  0.5157570000000  0.4331770000000 1.0
C      1  0.5574490000000  0.5471960000000  0.5463290000000 1.0
C      1  0.4255670000000  0.5309520000000  0.5489090000000 1.0
C      1  0.5078210000000  0.4222310000000  0.5519310000000 1.0
C      1  0.5103920000000  0.5515310000000  0.5612850000000 1.0
C      1  0.4550020000000  0.4907270000000  0.5613270000000 1.0
C      1  0.5311660000000  0.4659250000000  0.5593920000000 1.0
C      1  0.4680220000000  0.5839530000000  0.5026090000000 1.0
C      1  0.4409850000000  0.4401470000000  0.5043650000000 1.0
C      1  0.5811820000000  0.4784970000000  0.5016650000000 1.0
C      1  0.5292750000000  0.5199300000000  0.4775870000000 1.0
C      1  0.4740270000000  0.5091310000000  0.4704560000000 1.0
C      1  0.5064690000000  0.4668870000000  0.4674980000000 1.0
C      1  0.4599140000000  0.4332470000000  0.5311360000000 1.0
C      1  0.5762700000000  0.4998390000000  0.5266700000000 1.0
C      1  0.4560870000000  0.5670330000000  0.5284860000000 1.0
C      1  0.4582680000000  0.5439980000000  0.4398110000000 1.0
C      1  0.4849570000000  0.4415970000000  0.4338660000000 1.0
C      1  0.5601120000000  0.5162540000000  0.4343310000000 1.0
C      1  0.4465760000000  0.5231320000000  0.4716080000000 1.0
C      1  0.5104210000000  0.4366240000000  0.4640720000000 1.0
C      1  0.5526130000000  0.5369950000000  0.4675590000000 1.0
C      1  0.4382810000000  0.5721760000000  0.4904020000000 1.0
C      1  0.4854730000000  0.4111590000000  0.4816420000000 1.0
C      1  0.5891780000000  0.5311110000000  0.4826370000000 1.0
C      1  0.5043380000000  0.5360170000000  0.5322600000000 1.0
C      1  0.4681210000000  0.4852690000000  0.5303890000000 1.0
C      1  0.5293400000000  0.4728360000000  0.5267760000000 1.0
C      1  0.4992530000000  0.4610120000000  0.5471930000000 1.0
C      1  0.5318340000000  0.5160620000000  0.5354120000000 1.0
C      1  0.4641970000000  0.5207270000000  0.5475040000000 1.0
C      1  0.4532180000000  0.5341340000000  0.5202470000000 1.0
C      1  0.4913540000000  0.4416170000000  0.5211200000000 1.0
C      1  0.5540670000000  0.5224390000000  0.5138270000000 1.0
C      1  0.4977760000000  0.4854120000000  0.5683920000000 1.0
C      1  0.5147900000000  0.5118720000000  0.5623570000000 1.0
C      1  0.4851100000000  0.5142240000000  0.5714150000000 1.0
C      1  0.4525110000000  0.4750790000000  0.4889080000000 1.0
C      1  0.5462890000000  0.4685170000000  0.4857490000000 1.0
C      1  0.5090960000000  0.5574050000000  0.4893080000000 1.0
C      1  0.5012900000000  0.5834040000000  0.5080840000000 1.0
C      1  0.4280200000000  0.4709410000000  0.5090320000000 1.0
C      1  0.5627000000000  0.4504080000000  0.5067260000000 1.0
C      1  0.4750350000000  0.4859340000000  0.5029520000000 1.0
C      1  0.5247790000000  0.4802510000000  0.5002860000000 1.0
C      1  0.5069570000000  0.5281520000000  0.5016720000000 1.0
C      1  0.5100480000000  0.5180140000000  0.4327250000000 1.0
C      1  0.4806470000000  0.5003490000000  0.4321240000000 1.0
C      1  0.5106240000000  0.4842080000000  0.4318310000000 1.0
C      1  0.4717890000000  0.4374770000000  0.4933110000000 1.0
C      1  0.5691080000000  0.5058940000000  0.4879000000000 1.0
C      1  0.4653040000000  0.5511330000000  0.4931130000000 1.0
C      1  0.4157090000000  0.5140630000000  0.4796470000000 1.0
C      1  0.5374450000000  0.4193930000000  0.4717230000000 1.0
C      1  0.5533350000000  0.5689670000000  0.4776150000000 1.0
C      1  0.5014870000000  0.4967360000000  0.4964670000000 1.0
END
