TITL C-2782227-3064-2 -0.000258977863254338 125000 -744.033113573175 0 0 130 (C1) n - 1
REM
REM in /home/nfs/bkarasulu/CARBON/AIRSS/Generating-Clusters/REBO/Higher-Symm/SD-CG/HFTN-CG
REM
REM
REM
REM
REM
REM ./C.cell (12c818d87b63d06a65506943cc24bca4)
REM
REM compiler GCC version 9.2.1 20190827 (Red Hat 9.2.1-1)
REM options -cpp -mtune=generic -march=x86-64 -g -O0 -fpre-include=/usr/include/finclude/math-vector-fortran.h
REM seed 1300934059 990152143 600123801 497195729 226823283 1272894889 -1009111545 673358445 -127479610 -630115082 -410279399 1554985149 1056024492 -1218778250 -117886903 1146266618 1801896024 1342420286 720815463 1090970931 -490432559 -437418529 -51517224 32143270 -1407945849 -1964398757 -1287971577 -1682024637 293110946 -1655637659 1334530448 959297778 1097768541
REM
CELL 1.54180   50.00000   50.00000   50.00000   90.00000   90.00000   90.00000
LATT -1
SFAC C  
C      1  0.5361720000000  0.4229130000000  0.5248390000000 1.0
C      1  0.4724980000000  0.4866530000000  0.5225300000000 1.0
C      1  0.4686030000000  0.5899100000000  0.5330090000000 1.0
C      1  0.4843940000000  0.5495320000000  0.5704380000000 1.0
C      1  0.5717770000000  0.5350190000000  0.5415030000000 1.0
C      1  0.4654820000000  0.4503380000000  0.5495440000000 1.0
C      1  0.5136000000000  0.4740990000000  0.4180840000000 1.0
C      1  0.6045790000000  0.4666580000000  0.5267350000000 1.0
C      1  0.4234130000000  0.4753250000000  0.5195790000000 1.0
C      1  0.4630200000000  0.5166010000000  0.3858640000000 1.0
C      1  0.4240400000000  0.4949650000000  0.5720000000000 1.0
C      1  0.4196500000000  0.4419240000000  0.5263350000000 1.0
C      1  0.5451780000000  0.5642610000000  0.5389930000000 1.0
C      1  0.5432290000000  0.5195870000000  0.5350390000000 1.0
C      1  0.5188130000000  0.4332970000000  0.4760060000000 1.0
C      1  0.4967170000000  0.4801660000000  0.4761710000000 1.0
C      1  0.4417740000000  0.5233290000000  0.5690690000000 1.0
C      1  0.5431960000000  0.4754290000000  0.4348000000000 1.0
C      1  0.5326230000000  0.5495650000000  0.4442240000000 1.0
C      1  0.4466230000000  0.4746400000000  0.5789760000000 1.0
C      1  0.4092790000000  0.5151410000000  0.5480540000000 1.0
C      1  0.4478820000000  0.4616160000000  0.4764540000000 1.0
C      1  0.4853250000000  0.5474210000000  0.4655300000000 1.0
C      1  0.4348530000000  0.4614100000000  0.4170690000000 1.0
C      1  0.4944440000000  0.5087420000000  0.4684530000000 1.0
C      1  0.5709040000000  0.5199790000000  0.4668970000000 1.0
C      1  0.5729940000000  0.5085970000000  0.4377840000000 1.0
C      1  0.5710050000000  0.4948170000000  0.5494370000000 1.0
C      1  0.5722490000000  0.5685260000000  0.4693210000000 1.0
C      1  0.5254580000000  0.5742610000000  0.4574880000000 1.0
C      1  0.4803490000000  0.4117140000000  0.4560210000000 1.0
C      1  0.5079870000000  0.4159330000000  0.5101140000000 1.0
C      1  0.5374170000000  0.4878190000000  0.5461580000000 1.0
C      1  0.4886580000000  0.4435210000000  0.4892980000000 1.0
C      1  0.4427820000000  0.4232210000000  0.5130150000000 1.0
C      1  0.5271140000000  0.5406740000000  0.4828280000000 1.0
C      1  0.4881370000000  0.4843300000000  0.4375900000000 1.0
C      1  0.4934710000000  0.4630490000000  0.5348120000000 1.0
C      1  0.5695560000000  0.5462870000000  0.4499040000000 1.0
C      1  0.5515000000000  0.4972020000000  0.5101390000000 1.0
C      1  0.5723570000000  0.4658600000000  0.4486990000000 1.0
C      1  0.4997180000000  0.4075340000000  0.4775830000000 1.0
C      1  0.5766150000000  0.4296540000000  0.4650900000000 1.0
C      1  0.4511180000000  0.5207370000000  0.4920320000000 1.0
C      1  0.4910360000000  0.4207420000000  0.5574740000000 1.0
C      1  0.4620550000000  0.5456160000000  0.4489980000000 1.0
C      1  0.5587970000000  0.4656230000000  0.5208930000000 1.0
C      1  0.4653030000000  0.5347100000000  0.5267020000000 1.0
C      1  0.4617680000000  0.4503760000000  0.4165460000000 1.0
C      1  0.5119540000000  0.5555680000000  0.5041700000000 1.0
C      1  0.4406180000000  0.5590070000000  0.4616520000000 1.0
C      1  0.5172510000000  0.5255760000000  0.4562560000000 1.0
C      1  0.5839240000000  0.4532490000000  0.5129720000000 1.0
C      1  0.4651240000000  0.5035450000000  0.4090180000000 1.0
C      1  0.4854760000000  0.4830480000000  0.5599770000000 1.0
C      1  0.4026510000000  0.4555050000000  0.5011070000000 1.0
C      1  0.5160690000000  0.5374950000000  0.5722060000000 1.0
C      1  0.5157700000000  0.5687660000000  0.5417320000000 1.0
C      1  0.4530420000000  0.5170010000000  0.4340440000000 1.0
C      1  0.4412580000000  0.4711570000000  0.5450270000000 1.0
C      1  0.4963830000000  0.5856490000000  0.5033540000000 1.0
C      1  0.4432080000000  0.4857760000000  0.4577320000000 1.0
C      1  0.5813140000000  0.4399620000000  0.4334260000000 1.0
C      1  0.4352880000000  0.5248170000000  0.5282870000000 1.0
C      1  0.4930080000000  0.5141180000000  0.5237740000000 1.0
C      1  0.5495660000000  0.5867270000000  0.4670650000000 1.0
C      1  0.4826600000000  0.5607150000000  0.5209080000000 1.0
C      1  0.4279680000000  0.5017600000000  0.5071340000000 1.0
C      1  0.4424880000000  0.5814920000000  0.5149130000000 1.0
C      1  0.6028210000000  0.4174860000000  0.4471850000000 1.0
C      1  0.4696200000000  0.4939680000000  0.5949620000000 1.0
C      1  0.4491580000000  0.5515620000000  0.5013220000000 1.0
C      1  0.5537250000000  0.5276980000000  0.4941080000000 1.0
C      1  0.5313340000000  0.5094300000000  0.5801060000000 1.0
C      1  0.4291340000000  0.4850280000000  0.4316160000000 1.0
C      1  0.5203010000000  0.4840190000000  0.5843880000000 1.0
C      1  0.4746480000000  0.4186660000000  0.5065170000000 1.0
C      1  0.4808990000000  0.4737090000000  0.4078420000000 1.0
C      1  0.5536690000000  0.5394150000000  0.4217170000000 1.0
C      1  0.5529380000000  0.5558970000000  0.5133910000000 1.0
C      1  0.5276170000000  0.4617770000000  0.5627250000000 1.0
C      1  0.5593330000000  0.5120390000000  0.5708550000000 1.0
C      1  0.4846250000000  0.5268590000000  0.4928000000000 1.0
C      1  0.4649350000000  0.4209690000000  0.5379440000000 1.0
C      1  0.5155790000000  0.5039520000000  0.4348520000000 1.0
C      1  0.4724510000000  0.4349420000000  0.4410030000000 1.0
C      1  0.5804740000000  0.4302740000000  0.4969610000000 1.0
C      1  0.4070140000000  0.5442160000000  0.4954460000000 1.0
C      1  0.5089140000000  0.4361440000000  0.5644910000000 1.0
C      1  0.5462380000000  0.5068790000000  0.4221300000000 1.0
C      1  0.4712590000000  0.5217320000000  0.5806980000000 1.0
C      1  0.5177680000000  0.5366190000000  0.5304270000000 1.0
C      1  0.5598640000000  0.5511220000000  0.3975630000000 1.0
C      1  0.5551060000000  0.4154880000000  0.5046330000000 1.0
C      1  0.5489080000000  0.5442020000000  0.5655640000000 1.0
C      1  0.5959370000000  0.4929820000000  0.5341480000000 1.0
C      1  0.4760680000000  0.4575890000000  0.5809700000000 1.0
C      1  0.4623120000000  0.5091320000000  0.4649580000000 1.0
C      1  0.4981100000000  0.5736100000000  0.4653540000000 1.0
C      1  0.5651990000000  0.4913040000000  0.4817110000000 1.0
C      1  0.4295530000000  0.4423230000000  0.4888410000000 1.0
C      1  0.4202630000000  0.5456730000000  0.5585180000000 1.0
C      1  0.5788550000000  0.5587300000000  0.4958860000000 1.0
C      1  0.4167740000000  0.5524720000000  0.5246700000000 1.0
C      1  0.4042260000000  0.5147000000000  0.4916730000000 1.0
C      1  0.4792030000000  0.5922840000000  0.4794490000000 1.0
C      1  0.4205260000000  0.5156640000000  0.4441350000000 1.0
C      1  0.4717140000000  0.4714990000000  0.4954840000000 1.0
C      1  0.4363160000000  0.5710010000000  0.5464030000000 1.0
C      1  0.5996210000000  0.5114520000000  0.5115460000000 1.0
C      1  0.4681020000000  0.5664040000000  0.5575730000000 1.0
C      1  0.5975830000000  0.4810230000000  0.4610570000000 1.0
C      1  0.5450620000000  0.4715790000000  0.4686250000000 1.0
C      1  0.4184830000000  0.5419070000000  0.4660770000000 1.0
C      1  0.5419740000000  0.4487240000000  0.5366550000000 1.0
C      1  0.5095420000000  0.4502830000000  0.5136000000000 1.0
C      1  0.5978900000000  0.4977010000000  0.4858060000000 1.0
C      1  0.5183640000000  0.4916650000000  0.5178300000000 1.0
C      1  0.5461280000000  0.4267690000000  0.4770470000000 1.0
C      1  0.4754550000000  0.4623030000000  0.4568850000000 1.0
C      1  0.5880350000000  0.5372760000000  0.5175560000000 1.0
C      1  0.4962890000000  0.4784200000000  0.5980040000000 1.0
C      1  0.3931360000000  0.4915820000000  0.5627730000000 1.0
C      1  0.5763810000000  0.4383710000000  0.4041130000000 1.0
C      1  0.5222080000000  0.4716110000000  0.4902650000000 1.0
C      1  0.4575260000000  0.5000090000000  0.5501830000000 1.0
C      1  0.3989420000000  0.5070320000000  0.4661810000000 1.0
C      1  0.4958870000000  0.5135280000000  0.5582970000000 1.0
C      1  0.4987040000000  0.5886360000000  0.5445810000000 1.0
C      1  0.4507710000000  0.5804110000000  0.4830280000000 1.0
END
