TITL C-2782234-8014-266 -0.529660140717599 125000 -222.937290642346 0 0 40 (C1) n - 1
REM
REM in /home/nfs/bkarasulu/CARBON/AIRSS/Generating-Clusters/REBO/Higher-Symm/SD-CG/HFTN-CG
REM
REM
REM
REM
REM
REM ./C.cell (12c818d87b63d06a65506943cc24bca4)
REM
REM compiler GCC version 9.2.1 20190827 (Red Hat 9.2.1-1)
REM options -cpp -mtune=generic -march=x86-64 -g -O0 -fpre-include=/usr/include/finclude/math-vector-fortran.h
REM seed -1026288533 -637989983 191170644 -1622176940 -815892893 -1874155199 1586098146 606750939 -630046754 1133529709 649542498 1910354449 -710473456 -547144774 609697881 -1496433648 -740065149 -647776299 248552834 552627008 -1560463853 -1712308833 -1962620112 -2101430757 743047519 -915141639 252462597 1844768911 -2120553147 729801760 -131053166 -1004541586 -858639852
REM
CELL 1.54180   50.00000   50.00000   50.00000   90.00000   90.00000   90.00000
LATT -1
SFAC C  
C      1  0.4062200000000  0.4133010000000  0.5153930000000 1.0
C      1  0.4060350000000  0.4140260000000  0.4842990000000 1.0
C      1  0.4990650000000  0.5998890000000  0.4800430000000 1.0
C      1  0.5007000000000  0.5978400000000  0.5103840000000 1.0
C      1  0.5330520000000  0.5580230000000  0.5325060000000 1.0
C      1  0.5330170000000  0.5580600000000  0.4679270000000 1.0
C      1  0.5793600000000  0.5390340000000  0.4879700000000 1.0
C      1  0.5794610000000  0.5389490000000  0.5132060000000 1.0
C      1  0.4445530000000  0.4887620000000  0.4699670000000 1.0
C      1  0.4449780000000  0.4874550000000  0.5314830000000 1.0
C      1  0.5888320000000  0.4504440000000  0.4863260000000 1.0
C      1  0.5892370000000  0.4504340000000  0.5136050000000 1.0
C      1  0.5197680000000  0.5741290000000  0.5159600000000 1.0
C      1  0.5190940000000  0.5749690000000  0.4835610000000 1.0
C      1  0.3984690000000  0.3976620000000  0.5354870000000 1.0
C      1  0.3960190000000  0.3952990000000  0.4676210000000 1.0
C      1  0.5403350000000  0.5070920000000  0.5162800000000 1.0
C      1  0.5400800000000  0.5072490000000  0.4850490000000 1.0
C      1  0.4845670000000  0.5111410000000  0.5157490000000 1.0
C      1  0.4843190000000  0.5115710000000  0.4867190000000 1.0
C      1  0.4197090000000  0.4406490000000  0.4766110000000 1.0
C      1  0.4202110000000  0.4404430000000  0.5103970000000 1.0
C      1  0.5237180000000  0.4844500000000  0.5445440000000 1.0
C      1  0.5227000000000  0.4849150000000  0.4569990000000 1.0
C      1  0.5448600000000  0.5442760000000  0.5583520000000 1.0
C      1  0.5452320000000  0.5438100000000  0.4425480000000 1.0
C      1  0.5719960000000  0.4632760000000  0.4693560000000 1.0
C      1  0.5728800000000  0.4632360000000  0.5310620000000 1.0
C      1  0.5504770000000  0.4799490000000  0.4675770000000 1.0
C      1  0.5513400000000  0.4798140000000  0.5334120000000 1.0
C      1  0.4335710000000  0.4671100000000  0.4840500000000 1.0
C      1  0.4342850000000  0.4673900000000  0.5155880000000 1.0
C      1  0.4416350000000  0.5332390000000  0.5158890000000 1.0
C      1  0.4413850000000  0.5337110000000  0.4880680000000 1.0
C      1  0.5079590000000  0.5046520000000  0.4742080000000 1.0
C      1  0.5084430000000  0.5040440000000  0.5276480000000 1.0
C      1  0.4574730000000  0.5134520000000  0.4753780000000 1.0
C      1  0.4578680000000  0.5124650000000  0.5275250000000 1.0
C      1  0.5536190000000  0.5318630000000  0.5279040000000 1.0
C      1  0.5534760000000  0.5319280000000  0.4733500000000 1.0
END
