TITL C-2782240-8521-1172 0.000515987171592494 125000 -333.782843158678 0 0 59 (C1) n - 1
REM
REM in /home/nfs/bkarasulu/CARBON/AIRSS/Generating-Clusters/REBO/Higher-Symm/SD-CG/HFTN-CG
REM
REM
REM
REM
REM
REM ./C.cell (12c818d87b63d06a65506943cc24bca4)
REM
REM compiler GCC version 9.2.1 20190827 (Red Hat 9.2.1-1)
REM options -cpp -mtune=generic -march=x86-64 -g -O0 -fpre-include=/usr/include/finclude/math-vector-fortran.h
REM seed 559592548 868535967 1602861360 1370306592 -1854097521 -797681769 -318683888 532064767 1004569565 1299489590 -1018813462 -1273902018 -1527418282 731051707 -1298275626 -1035649888 -1312081406 -664562422 -1812828513 -546566872 1388155036 644699534 543686733 1737206595 -349407123 -197895779 291886991 -1200889472 -694673572 -1115711235 -1950842628 -310056246 583312692
REM
CELL 1.54180   50.00000   50.00000   50.00000   90.00000   90.00000   90.00000
LATT -1
SFAC C  
C      1  0.5263610000000  0.4613880000000  0.5296040000000 1.0
C      1  0.4829490000000  0.4801090000000  0.5360420000000 1.0
C      1  0.5582650000000  0.5208420000000  0.4497670000000 1.0
C      1  0.5343390000000  0.5276280000000  0.4275870000000 1.0
C      1  0.4316570000000  0.5178290000000  0.5072000000000 1.0
C      1  0.4506570000000  0.5249030000000  0.5281830000000 1.0
C      1  0.5467930000000  0.5090540000000  0.4818240000000 1.0
C      1  0.5368330000000  0.4938810000000  0.4299990000000 1.0
C      1  0.5621250000000  0.5389970000000  0.4767070000000 1.0
C      1  0.5263950000000  0.5112740000000  0.5388580000000 1.0
C      1  0.4592140000000  0.5031420000000  0.5432250000000 1.0
C      1  0.5284280000000  0.5702090000000  0.5043330000000 1.0
C      1  0.4859850000000  0.5186590000000  0.5703300000000 1.0
C      1  0.4428640000000  0.5295560000000  0.4615550000000 1.0
C      1  0.4889250000000  0.4689910000000  0.4397690000000 1.0
C      1  0.4445920000000  0.4673580000000  0.5042670000000 1.0
C      1  0.5501930000000  0.4873920000000  0.4567590000000 1.0
C      1  0.5023840000000  0.4899240000000  0.5152930000000 1.0
C      1  0.4706750000000  0.4676740000000  0.5716160000000 1.0
C      1  0.5523040000000  0.5120420000000  0.5301190000000 1.0
C      1  0.5524750000000  0.4657310000000  0.5102920000000 1.0
C      1  0.5859240000000  0.5504750000000  0.4838710000000 1.0
C      1  0.4326690000000  0.5399960000000  0.4881840000000 1.0
C      1  0.4651490000000  0.4520550000000  0.4918160000000 1.0
C      1  0.5186160000000  0.4848940000000  0.5530690000000 1.0
C      1  0.4658650000000  0.5476870000000  0.4528190000000 1.0
C      1  0.5667970000000  0.4914260000000  0.5192140000000 1.0
C      1  0.4941420000000  0.4445950000000  0.4840620000000 1.0
C      1  0.5124730000000  0.5209090000000  0.4517040000000 1.0
C      1  0.4650170000000  0.5489660000000  0.5202670000000 1.0
C      1  0.4950640000000  0.5003210000000  0.4463410000000 1.0
C      1  0.4451910000000  0.5004190000000  0.4649570000000 1.0
C      1  0.4927150000000  0.5366570000000  0.4944570000000 1.0
C      1  0.4962000000000  0.4454110000000  0.4530020000000 1.0
C      1  0.5275580000000  0.5021860000000  0.5000520000000 1.0
C      1  0.5422400000000  0.4675920000000  0.4779290000000 1.0
C      1  0.4822440000000  0.5677620000000  0.5331100000000 1.0
C      1  0.5352370000000  0.5524450000000  0.4836230000000 1.0
C      1  0.4649370000000  0.5511560000000  0.4867250000000 1.0
C      1  0.4470490000000  0.4768020000000  0.5531390000000 1.0
C      1  0.4753650000000  0.4486300000000  0.5464470000000 1.0
C      1  0.4523690000000  0.4312620000000  0.5370080000000 1.0
C      1  0.4658440000000  0.4880600000000  0.4511990000000 1.0
C      1  0.4887630000000  0.5316950000000  0.5489970000000 1.0
C      1  0.5164460000000  0.4247860000000  0.4961850000000 1.0
C      1  0.5068250000000  0.5739450000000  0.5204440000000 1.0
C      1  0.4765180000000  0.5771790000000  0.5580280000000 1.0
C      1  0.5147540000000  0.4645140000000  0.4977310000000 1.0
C      1  0.4857780000000  0.5510060000000  0.4342180000000 1.0
C      1  0.5667580000000  0.4184030000000  0.4870130000000 1.0
C      1  0.5110810000000  0.4013710000000  0.5068710000000 1.0
C      1  0.5094820000000  0.5472620000000  0.4218460000000 1.0
C      1  0.4928260000000  0.4894060000000  0.5700070000000 1.0
C      1  0.5441070000000  0.4373770000000  0.4932570000000 1.0
C      1  0.4396400000000  0.4585190000000  0.5315630000000 1.0
C      1  0.5005710000000  0.5234230000000  0.5202690000000 1.0
C      1  0.5332550000000  0.4549940000000  0.5602920000000 1.0
C      1  0.4370670000000  0.4925200000000  0.4924300000000 1.0
C      1  0.5130450000000  0.5373130000000  0.4745270000000 1.0
END
