TITL C-2782239-8622-517 -0.0012932060084444 125000 -491.17997471958 0 0 88 (C1) n - 1
REM
REM in /home/nfs/bkarasulu/CARBON/AIRSS/Generating-Clusters/REBO/Higher-Symm/SD-CG/HFTN-CG
REM
REM
REM
REM
REM
REM ./C.cell (12c818d87b63d06a65506943cc24bca4)
REM
REM compiler GCC version 9.2.1 20190827 (Red Hat 9.2.1-1)
REM options -cpp -mtune=generic -march=x86-64 -g -O0 -fpre-include=/usr/include/finclude/math-vector-fortran.h
REM seed 661807781 -1819453665 -1665441047 -908025389 -1690512436 555726435 1347443603 407176206 -1708615053 1950208998 -488327595 1719960542 57097195 -1937856073 -446656873 -1290295571 -1399627441 2373859 1490665689 131106867 959373286 -1548524235 -1840246817 -296412150 504976052 99074013 504611177 1690964052 2001289655 -1995809096 -1722212819 1584416490 866269298
REM
CELL 1.54180   50.00000   50.00000   50.00000   90.00000   90.00000   90.00000
LATT -1
SFAC C  
C      1  0.4695330000000  0.4849050000000  0.4436850000000 1.0
C      1  0.4875720000000  0.4430220000000  0.4671130000000 1.0
C      1  0.4505040000000  0.4727830000000  0.4906850000000 1.0
C      1  0.4599480000000  0.5167520000000  0.5549750000000 1.0
C      1  0.5338650000000  0.4898330000000  0.5473720000000 1.0
C      1  0.5231380000000  0.5008810000000  0.4557920000000 1.0
C      1  0.4956990000000  0.5485630000000  0.5307620000000 1.0
C      1  0.5030400000000  0.4539880000000  0.5301350000000 1.0
C      1  0.5105100000000  0.5534880000000  0.4696990000000 1.0
C      1  0.4545360000000  0.5314460000000  0.5061870000000 1.0
C      1  0.5552820000000  0.4555900000000  0.5150880000000 1.0
C      1  0.5498430000000  0.5288760000000  0.4891910000000 1.0
C      1  0.4630460000000  0.4456720000000  0.4854680000000 1.0
C      1  0.4861840000000  0.4579600000000  0.4410570000000 1.0
C      1  0.4524480000000  0.4924520000000  0.4678840000000 1.0
C      1  0.4751090000000  0.5530960000000  0.5098320000000 1.0
C      1  0.5315470000000  0.5516070000000  0.4905160000000 1.0
C      1  0.5264190000000  0.4472420000000  0.5114410000000 1.0
C      1  0.4876650000000  0.5318510000000  0.5547900000000 1.0
C      1  0.5104480000000  0.5301870000000  0.4510840000000 1.0
C      1  0.5051580000000  0.4762290000000  0.5490540000000 1.0
C      1  0.4489920000000  0.5104180000000  0.5271180000000 1.0
C      1  0.5449250000000  0.5014500000000  0.4745170000000 1.0
C      1  0.5579220000000  0.4789510000000  0.5361200000000 1.0
C      1  0.4563990000000  0.4307550000000  0.5217860000000 1.0
C      1  0.4300890000000  0.5227900000000  0.4550240000000 1.0
C      1  0.5251500000000  0.4593420000000  0.4322590000000 1.0
C      1  0.4556790000000  0.5686790000000  0.4787400000000 1.0
C      1  0.5440070000000  0.4341410000000  0.4784430000000 1.0
C      1  0.5447630000000  0.5729040000000  0.5211110000000 1.0
C      1  0.4332940000000  0.4779630000000  0.5439690000000 1.0
C      1  0.5661240000000  0.5258390000000  0.5398850000000 1.0
C      1  0.5703010000000  0.4794540000000  0.4536410000000 1.0
C      1  0.5232050000000  0.5474640000000  0.5641790000000 1.0
C      1  0.4784030000000  0.4535470000000  0.5679610000000 1.0
C      1  0.4790300000000  0.5473600000000  0.4336820000000 1.0
C      1  0.4553150000000  0.5252510000000  0.4330850000000 1.0
C      1  0.4332220000000  0.4559540000000  0.5223350000000 1.0
C      1  0.5246400000000  0.4375690000000  0.4538110000000 1.0
C      1  0.4573130000000  0.4776730000000  0.5680910000000 1.0
C      1  0.5478960000000  0.4812230000000  0.4317380000000 1.0
C      1  0.5451790000000  0.5235850000000  0.5651840000000 1.0
C      1  0.4311020000000  0.5451350000000  0.4773990000000 1.0
C      1  0.5670110000000  0.5485390000000  0.5192180000000 1.0
C      1  0.5680720000000  0.4581940000000  0.4774540000000 1.0
C      1  0.5241240000000  0.5724910000000  0.5438790000000 1.0
C      1  0.4771190000000  0.5701920000000  0.4558620000000 1.0
C      1  0.4779250000000  0.4293890000000  0.5481920000000 1.0
C      1  0.4179070000000  0.5047740000000  0.5292150000000 1.0
C      1  0.5075700000000  0.5347240000000  0.4197140000000 1.0
C      1  0.5258060000000  0.4170750000000  0.5029400000000 1.0
C      1  0.4201780000000  0.4937610000000  0.4702220000000 1.0
C      1  0.5777220000000  0.5089220000000  0.4692330000000 1.0
C      1  0.5772690000000  0.4996320000000  0.5275430000000 1.0
C      1  0.5057880000000  0.4696290000000  0.5804660000000 1.0
C      1  0.5055080000000  0.5222170000000  0.5800910000000 1.0
C      1  0.5003210000000  0.4789260000000  0.4192800000000 1.0
C      1  0.5290020000000  0.5835600000000  0.4926700000000 1.0
C      1  0.4796320000000  0.4198680000000  0.4983630000000 1.0
C      1  0.4693690000000  0.5837110000000  0.5062740000000 1.0
C      1  0.4212170000000  0.5299130000000  0.5063610000000 1.0
C      1  0.5057680000000  0.4198610000000  0.5308350000000 1.0
C      1  0.5297170000000  0.5090340000000  0.4236310000000 1.0
C      1  0.4187930000000  0.4702540000000  0.4949240000000 1.0
C      1  0.5811230000000  0.4748920000000  0.5042470000000 1.0
C      1  0.5807060000000  0.5351690000000  0.4908710000000 1.0
C      1  0.5052440000000  0.5850460000000  0.4681850000000 1.0
C      1  0.4945310000000  0.5818210000000  0.5293560000000 1.0
C      1  0.5067500000000  0.4187870000000  0.4769110000000 1.0
C      1  0.5258940000000  0.4974430000000  0.5780940000000 1.0
C      1  0.4770740000000  0.5037940000000  0.4179390000000 1.0
C      1  0.4768420000000  0.5031100000000  0.5800170000000 1.0
C      1  0.4851080000000  0.5419100000000  0.4827630000000 1.0
C      1  0.4819420000000  0.4936760000000  0.5417080000000 1.0
C      1  0.5123900000000  0.4571310000000  0.4863390000000 1.0
C      1  0.4848710000000  0.5121770000000  0.4560440000000 1.0
C      1  0.4618680000000  0.5196780000000  0.4784410000000 1.0
C      1  0.4624470000000  0.4840010000000  0.5173410000000 1.0
C      1  0.5425440000000  0.4808330000000  0.4977780000000 1.0
C      1  0.4763650000000  0.4556890000000  0.5158540000000 1.0
C      1  0.5237010000000  0.5379420000000  0.5179980000000 1.0
C      1  0.5412410000000  0.5093770000000  0.5133410000000 1.0
C      1  0.5050250000000  0.4782550000000  0.4608390000000 1.0
C      1  0.5148080000000  0.5155710000000  0.5418860000000 1.0
C      1  0.4920550000000  0.5114600000000  0.5168580000000 1.0
C      1  0.5004360000000  0.5137220000000  0.4860580000000 1.0
C      1  0.5150990000000  0.4875500000000  0.5121680000000 1.0
C      1  0.4906460000000  0.4821860000000  0.4899160000000 1.0
END
