TITL C-2782227-3064-1089 -0.00374916228441401 125000 -296.022740929145 0 0 48 (C1) n - 1
REM
REM in /home/nfs/bkarasulu/CARBON/AIRSS/Generating-Clusters/REBO/Higher-Symm/SD-CG/HFTN-CG
REM
REM
REM
REM
REM
REM ./C.cell (12c818d87b63d06a65506943cc24bca4)
REM
REM compiler GCC version 9.2.1 20190827 (Red Hat 9.2.1-1)
REM options -cpp -mtune=generic -march=x86-64 -g -O0 -fpre-include=/usr/include/finclude/math-vector-fortran.h
REM seed 341862684 551178388 1927612792 681498713 762208004 1443167932 238371767 -104390101 427438336 -1302629923 121523809 2044016823 1726259792 -957322806 1701168935 626933120 -818036999 224949727 -228068730 -919601390 -527745554 1914003188 -1751358063 -1276557335 -1408622115 -1757252237 2095781730 761472368 -1728316444 332723098 1614356035 956222413 726333974
REM
CELL 1.54180   50.00000   50.00000   50.00000   90.00000   90.00000   90.00000
LATT -1
SFAC C  
C      1  0.5134200000000  0.5363270000000  0.4444480000000 1.0
C      1  0.4410740000000  0.5184610000000  0.5348310000000 1.0
C      1  0.5320270000000  0.4425410000000  0.5153960000000 1.0
C      1  0.4828150000000  0.5346600000000  0.5593120000000 1.0
C      1  0.5162040000000  0.4665190000000  0.5574290000000 1.0
C      1  0.4875870000000  0.4620250000000  0.4428670000000 1.0
C      1  0.5574640000000  0.5143470000000  0.4622560000000 1.0
C      1  0.4449470000000  0.4837840000000  0.4646670000000 1.0
C      1  0.5570070000000  0.4835340000000  0.5320140000000 1.0
C      1  0.4645820000000  0.4399060000000  0.4835230000000 1.0
C      1  0.5374770000000  0.5566100000000  0.4863520000000 1.0
C      1  0.4669290000000  0.5587870000000  0.5174550000000 1.0
C      1  0.4429100000000  0.5385330000000  0.5150790000000 1.0
C      1  0.5339280000000  0.5172580000000  0.4414810000000 1.0
C      1  0.5126600000000  0.4439750000000  0.5356990000000 1.0
C      1  0.5581090000000  0.5329460000000  0.4833220000000 1.0
C      1  0.5560430000000  0.4628040000000  0.5129840000000 1.0
C      1  0.4446150000000  0.4643830000000  0.4852780000000 1.0
C      1  0.4628750000000  0.5148860000000  0.5572980000000 1.0
C      1  0.4672740000000  0.4814680000000  0.4424520000000 1.0
C      1  0.5359880000000  0.4864660000000  0.5552850000000 1.0
C      1  0.4852100000000  0.4392790000000  0.4645230000000 1.0
C      1  0.4858340000000  0.5580150000000  0.5383100000000 1.0
C      1  0.5163850000000  0.5574070000000  0.4676590000000 1.0
C      1  0.5331650000000  0.5174640000000  0.5572110000000 1.0
C      1  0.5556590000000  0.5350750000000  0.5144250000000 1.0
C      1  0.5169330000000  0.5615030000000  0.5374960000000 1.0
C      1  0.4628010000000  0.5123500000000  0.4434930000000 1.0
C      1  0.5382260000000  0.4863240000000  0.4415580000000 1.0
C      1  0.4655410000000  0.4838110000000  0.5582840000000 1.0
C      1  0.4404850000000  0.5352450000000  0.4840970000000 1.0
C      1  0.5605710000000  0.4634560000000  0.4820380000000 1.0
C      1  0.4417610000000  0.4677460000000  0.5162270000000 1.0
C      1  0.4853390000000  0.5537660000000  0.4666280000000 1.0
C      1  0.5161940000000  0.4441220000000  0.4639450000000 1.0
C      1  0.4815670000000  0.4416440000000  0.5343690000000 1.0
C      1  0.5543610000000  0.5146250000000  0.5339830000000 1.0
C      1  0.5138670000000  0.5379190000000  0.5581600000000 1.0
C      1  0.5364890000000  0.5600770000000  0.5174290000000 1.0
C      1  0.4399260000000  0.5147310000000  0.4649970000000 1.0
C      1  0.4431640000000  0.4873470000000  0.5363640000000 1.0
C      1  0.5618500000000  0.4833460000000  0.4622210000000 1.0
C      1  0.4825190000000  0.5324220000000  0.4435510000000 1.0
C      1  0.4851110000000  0.4636100000000  0.5566890000000 1.0
C      1  0.5184590000000  0.4663200000000  0.4415860000000 1.0
C      1  0.4651940000000  0.5548890000000  0.4864620000000 1.0
C      1  0.4616540000000  0.4433730000000  0.5144570000000 1.0
C      1  0.5357990000000  0.4439170000000  0.4844090000000 1.0
END
