TITL C-2782240-8521-1384 0.0013051950780961 125000 -966.921748632107 0 0 166 (C1) n - 1
REM
REM in /home/nfs/bkarasulu/CARBON/AIRSS/Generating-Clusters/REBO/Higher-Symm/SD-CG/HFTN-CG
REM
REM
REM
REM
REM
REM ./C.cell (12c818d87b63d06a65506943cc24bca4)
REM
REM compiler GCC version 9.2.1 20190827 (Red Hat 9.2.1-1)
REM options -cpp -mtune=generic -march=x86-64 -g -O0 -fpre-include=/usr/include/finclude/math-vector-fortran.h
REM seed 1575120529 2146755088 -1906134876 1241482286 1056643123 -634520618 -1905053300 1716628600 876940635 531190907 1260777037 -1431128455 -200353646 -106177177 1850427685 -558667604 -1959107216 1467423379 -544039627 1424579386 -1104156943 -853987629 -395577815 -1118611333 -1711714831 -1907129301 -965534112 -1946412693 358290788 52307815 488251685 1495595263 1410029843
REM
CELL 1.54180   50.00000   50.00000   50.00000   90.00000   90.00000   90.00000
LATT -1
SFAC C  
C      1  0.4034990000000  0.4881370000000  0.5691060000000 1.0
C      1  0.5044230000000  0.4571750000000  0.5967370000000 1.0
C      1  0.5808910000000  0.5123800000000  0.4456500000000 1.0
C      1  0.4619750000000  0.4267800000000  0.4669940000000 1.0
C      1  0.5515040000000  0.4656390000000  0.5261540000000 1.0
C      1  0.4439870000000  0.5311090000000  0.5386720000000 1.0
C      1  0.4439490000000  0.5575590000000  0.4213990000000 1.0
C      1  0.4499150000000  0.5582780000000  0.5820910000000 1.0
C      1  0.4297290000000  0.5788420000000  0.5182010000000 1.0
C      1  0.4541430000000  0.4697490000000  0.5858220000000 1.0
C      1  0.5502030000000  0.4176050000000  0.5124270000000 1.0
C      1  0.5520550000000  0.4256810000000  0.5458550000000 1.0
C      1  0.4294960000000  0.4867120000000  0.4718760000000 1.0
C      1  0.4561670000000  0.5832500000000  0.5373680000000 1.0
C      1  0.4813520000000  0.4912980000000  0.4054350000000 1.0
C      1  0.5131050000000  0.4305100000000  0.4881330000000 1.0
C      1  0.5987760000000  0.4651800000000  0.4979420000000 1.0
C      1  0.5194330000000  0.5564540000000  0.5229450000000 1.0
C      1  0.5019590000000  0.5949680000000  0.5368670000000 1.0
C      1  0.4296090000000  0.4454420000000  0.5450920000000 1.0
C      1  0.5935040000000  0.5069820000000  0.5172440000000 1.0
C      1  0.4272870000000  0.5563570000000  0.5424920000000 1.0
C      1  0.5260510000000  0.4960730000000  0.4375470000000 1.0
C      1  0.4843130000000  0.5890120000000  0.4284790000000 1.0
C      1  0.4585550000000  0.5534920000000  0.4923260000000 1.0
C      1  0.5708420000000  0.4896240000000  0.5887460000000 1.0
C      1  0.4118610000000  0.4700740000000  0.4892650000000 1.0
C      1  0.4270250000000  0.5352870000000  0.4612250000000 1.0
C      1  0.4261930000000  0.5352390000000  0.4322480000000 1.0
C      1  0.4653610000000  0.5771540000000  0.5658440000000 1.0
C      1  0.5106450000000  0.5421350000000  0.3998420000000 1.0
C      1  0.4808090000000  0.5051500000000  0.4488830000000 1.0
C      1  0.4001200000000  0.4906210000000  0.5105970000000 1.0
C      1  0.4939930000000  0.5806160000000  0.5639060000000 1.0
C      1  0.5416230000000  0.4198020000000  0.4432130000000 1.0
C      1  0.5581210000000  0.5322850000000  0.5665430000000 1.0
C      1  0.5078690000000  0.5575710000000  0.5830970000000 1.0
C      1  0.4736020000000  0.5645960000000  0.5181110000000 1.0
C      1  0.4902350000000  0.5571630000000  0.4179760000000 1.0
C      1  0.5289770000000  0.5178380000000  0.4149580000000 1.0
C      1  0.4245100000000  0.5087160000000  0.5422710000000 1.0
C      1  0.4105700000000  0.4502350000000  0.5173220000000 1.0
C      1  0.5318530000000  0.4636000000000  0.4119660000000 1.0
C      1  0.4687560000000  0.4864930000000  0.5528780000000 1.0
C      1  0.5021150000000  0.5743330000000  0.4776970000000 1.0
C      1  0.4832630000000  0.4812210000000  0.5896520000000 1.0
C      1  0.5968370000000  0.4472080000000  0.5332280000000 1.0
C      1  0.4343710000000  0.5330970000000  0.5001280000000 1.0
C      1  0.4948100000000  0.4035580000000  0.4836710000000 1.0
C      1  0.4904110000000  0.6225090000000  0.4760690000000 1.0
C      1  0.5206170000000  0.4888550000000  0.3989020000000 1.0
C      1  0.4803420000000  0.4052310000000  0.5553080000000 1.0
C      1  0.5240380000000  0.4357390000000  0.5562200000000 1.0
C      1  0.5279120000000  0.4895080000000  0.4768740000000 1.0
C      1  0.4970210000000  0.4491130000000  0.4308470000000 1.0
C      1  0.4847290000000  0.5120510000000  0.5938970000000 1.0
C      1  0.5099180000000  0.5462070000000  0.5515620000000 1.0
C      1  0.4684680000000  0.4433290000000  0.5164880000000 1.0
C      1  0.5093130000000  0.5234840000000  0.5843070000000 1.0
C      1  0.5546840000000  0.4542210000000  0.4620080000000 1.0
C      1  0.4532960000000  0.5180770000000  0.4757210000000 1.0
C      1  0.5682310000000  0.5694900000000  0.5362530000000 1.0
C      1  0.5977490000000  0.5388250000000  0.5125190000000 1.0
C      1  0.5059390000000  0.4316530000000  0.4577200000000 1.0
C      1  0.5909090000000  0.4922160000000  0.5542540000000 1.0
C      1  0.5581360000000  0.4146550000000  0.4656070000000 1.0
C      1  0.5409670000000  0.5698750000000  0.5447640000000 1.0
C      1  0.6053620000000  0.4992690000000  0.4638550000000 1.0
C      1  0.4724650000000  0.4263350000000  0.4378390000000 1.0
C      1  0.4493810000000  0.4928130000000  0.4448430000000 1.0
C      1  0.4976650000000  0.5500360000000  0.4984690000000 1.0
C      1  0.5741170000000  0.4438780000000  0.5541720000000 1.0
C      1  0.5192780000000  0.5395060000000  0.4387260000000 1.0
C      1  0.5853410000000  0.5135670000000  0.4847130000000 1.0
C      1  0.5721670000000  0.4408620000000  0.5144800000000 1.0
C      1  0.5588270000000  0.5329240000000  0.4754900000000 1.0
C      1  0.6096350000000  0.4715810000000  0.4699090000000 1.0
C      1  0.3960840000000  0.5244270000000  0.5070470000000 1.0
C      1  0.5529310000000  0.4958940000000  0.4565480000000 1.0
C      1  0.5051880000000  0.4455340000000  0.5320070000000 1.0
C      1  0.4033820000000  0.4748140000000  0.5403910000000 1.0
C      1  0.5373290000000  0.5531710000000  0.5713860000000 1.0
C      1  0.4927920000000  0.5236100000000  0.5450290000000 1.0
C      1  0.4619740000000  0.5319360000000  0.5876570000000 1.0
C      1  0.5455610000000  0.5166640000000  0.5402560000000 1.0
C      1  0.5008220000000  0.5289650000000  0.4634950000000 1.0
C      1  0.5760840000000  0.4486230000000  0.4360460000000 1.0
C      1  0.4648130000000  0.5173310000000  0.5597390000000 1.0
C      1  0.4140550000000  0.4281550000000  0.4351050000000 1.0
C      1  0.4828290000000  0.4023190000000  0.5097620000000 1.0
C      1  0.5782180000000  0.4295450000000  0.4826930000000 1.0
C      1  0.5037620000000  0.5686080000000  0.4474920000000 1.0
C      1  0.4317150000000  0.4833910000000  0.5225450000000 1.0
C      1  0.5008490000000  0.4122560000000  0.5329810000000 1.0
C      1  0.4990640000000  0.4727010000000  0.5603930000000 1.0
C      1  0.4097050000000  0.5556330000000  0.5042640000000 1.0
C      1  0.5629020000000  0.4646650000000  0.4090300000000 1.0
C      1  0.4527740000000  0.4139950000000  0.5134690000000 1.0
C      1  0.3983880000000  0.5197570000000  0.5375020000000 1.0
C      1  0.4596730000000  0.4747850000000  0.5248330000000 1.0
C      1  0.4897680000000  0.4019600000000  0.4533710000000 1.0
C      1  0.4621920000000  0.4706270000000  0.4143120000000 1.0
C      1  0.4553550000000  0.4021040000000  0.5437550000000 1.0
C      1  0.5295790000000  0.4031670000000  0.5335860000000 1.0
C      1  0.5250720000000  0.5957980000000  0.5190480000000 1.0
C      1  0.4275190000000  0.4418050000000  0.4535420000000 1.0
C      1  0.4364320000000  0.4873830000000  0.5648070000000 1.0
C      1  0.5438240000000  0.5868890000000  0.4983770000000 1.0
C      1  0.4602940000000  0.5724080000000  0.4431250000000 1.0
C      1  0.5818030000000  0.5469760000000  0.5497970000000 1.0
C      1  0.5628470000000  0.4946070000000  0.4952230000000 1.0
C      1  0.4734390000000  0.5498800000000  0.4651020000000 1.0
C      1  0.4231540000000  0.5619630000000  0.4749950000000 1.0
C      1  0.5707220000000  0.4960020000000  0.4113070000000 1.0
C      1  0.5325750000000  0.4746410000000  0.5535220000000 1.0
C      1  0.5941360000000  0.5194430000000  0.5552040000000 1.0
C      1  0.5331210000000  0.5801910000000  0.4720460000000 1.0
C      1  0.4538540000000  0.5934770000000  0.4988580000000 1.0
C      1  0.5651330000000  0.4716550000000  0.5631820000000 1.0
C      1  0.5306530000000  0.4644890000000  0.4460400000000 1.0
C      1  0.4821080000000  0.4411520000000  0.4884010000000 1.0
C      1  0.4898550000000  0.4130940000000  0.5807700000000 1.0
C      1  0.4220830000000  0.5564390000000  0.5715190000000 1.0
C      1  0.4742440000000  0.5350400000000  0.4344920000000 1.0
C      1  0.5670930000000  0.5142580000000  0.5891860000000 1.0
C      1  0.4837420000000  0.5980470000000  0.4841590000000 1.0
C      1  0.5700810000000  0.4684460000000  0.4863090000000 1.0
C      1  0.4029750000000  0.5375730000000  0.5810590000000 1.0
C      1  0.5936890000000  0.4457100000000  0.4635230000000 1.0
C      1  0.5584350000000  0.5451450000000  0.4472740000000 1.0
C      1  0.5654620000000  0.5277010000000  0.4217660000000 1.0
C      1  0.3946170000000  0.5115280000000  0.5796620000000 1.0
C      1  0.5102020000000  0.5003160000000  0.5326360000000 1.0
C      1  0.4429720000000  0.5817940000000  0.4692570000000 1.0
C      1  0.4739640000000  0.4648280000000  0.4667660000000 1.0
C      1  0.5790550000000  0.5512890000000  0.4957440000000 1.0
C      1  0.4507920000000  0.4502270000000  0.5619100000000 1.0
C      1  0.5233940000000  0.5059470000000  0.5637050000000 1.0
C      1  0.5063210000000  0.4647670000000  0.4672150000000 1.0
C      1  0.4406660000000  0.4188180000000  0.4855280000000 1.0
C      1  0.4513670000000  0.4594030000000  0.4445450000000 1.0
C      1  0.6051990000000  0.4775830000000  0.5283200000000 1.0
C      1  0.4718920000000  0.5334300000000  0.5240670000000 1.0
C      1  0.4560910000000  0.5298400000000  0.4071300000000 1.0
C      1  0.5249590000000  0.5253320000000  0.5145610000000 1.0
C      1  0.4620280000000  0.4877910000000  0.4822420000000 1.0
C      1  0.5407510000000  0.4408170000000  0.4902160000000 1.0
C      1  0.5259510000000  0.4321750000000  0.4235600000000 1.0
C      1  0.5099180000000  0.4336830000000  0.5813830000000 1.0
C      1  0.5435850000000  0.5702160000000  0.4460620000000 1.0
C      1  0.4777870000000  0.4481410000000  0.5485000000000 1.0
C      1  0.5676420000000  0.5737570000000  0.5077810000000 1.0
C      1  0.4803350000000  0.5203480000000  0.4964350000000 1.0
C      1  0.5322120000000  0.4696750000000  0.4999870000000 1.0
C      1  0.4142970000000  0.5127330000000  0.4806940000000 1.0
C      1  0.4967860000000  0.4803180000000  0.4318580000000 1.0
C      1  0.4767340000000  0.6038440000000  0.5222880000000 1.0
C      1  0.4365920000000  0.5085070000000  0.4217550000000 1.0
C      1  0.4982490000000  0.5117560000000  0.3907970000000 1.0
C      1  0.5785510000000  0.4800510000000  0.4414090000000 1.0
C      1  0.5277000000000  0.5213550000000  0.4834020000000 1.0
C      1  0.5292630000000  0.5648740000000  0.4176010000000 1.0
C      1  0.5625100000000  0.4967010000000  0.5268400000000 1.0
C      1  0.4172200000000  0.4386990000000  0.4858130000000 1.0
C      1  0.4825410000000  0.4881750000000  0.5066510000000 1.0
C      1  0.5085690000000  0.4723440000000  0.5184190000000 1.0
END
