TITL C-2782239-8622-491 -0.000697623814964817 125000 -136.36048491987 0 0 27 (S4) n - 1
REM
REM in /home/nfs/bkarasulu/CARBON/AIRSS/Generating-Clusters/REBO/Higher-Symm/SD-CG/HFTN-CG
REM
REM
REM
REM
REM
REM ./C.cell (12c818d87b63d06a65506943cc24bca4)
REM
REM compiler GCC version 9.2.1 20190827 (Red Hat 9.2.1-1)
REM options -cpp -mtune=generic -march=x86-64 -g -O0 -fpre-include=/usr/include/finclude/math-vector-fortran.h
REM seed -299399633 -1395857120 -1129046803 -431989061 1271033893 497193005 941708692 -352266509 -56467675 1815161134 1572645691 1557889667 1838019554 -2143795916 616640759 1043561342 -490516266 1586587477 932513833 524219340 -572485964 -1398429841 848416443 751948057 -1330002414 -226959068 -1209291516 -623540172 1337745226 1257404375 524933023 1099674250 -732589284
REM
CELL 1.54180   50.00000   50.00000   50.00000   90.00000   90.00000   90.00000
LATT -1
SFAC C  
C      1  0.5174630000000  0.4372530000000  0.5026000000000 1.0
C      1  0.4843890000000  0.5638540000000  0.5025950000000 1.0
C      1  0.5174640000000  0.5638530000000  0.4964960000000 1.0
C      1  0.4843880000000  0.4372530000000  0.4965020000000 1.0
C      1  0.4376260000000  0.5170910000000  0.5025970000000 1.0
C      1  0.5642260000000  0.4840150000000  0.5025980000000 1.0
C      1  0.5642260000000  0.5170900000000  0.4964980000000 1.0
C      1  0.4376260000000  0.4840160000000  0.4965000000000 1.0
C      1  0.4684360000000  0.5111670000000  0.4573210000000 1.0
C      1  0.5334150000000  0.4899360000000  0.4573220000000 1.0
C      1  0.4684370000000  0.4899400000000  0.5417760000000 1.0
C      1  0.5334160000000  0.5111700000000  0.5417740000000 1.0
C      1  0.5115410000000  0.4680620000000  0.4573230000000 1.0
C      1  0.4903110000000  0.5330410000000  0.4573200000000 1.0
C      1  0.4903110000000  0.4680660000000  0.5417770000000 1.0
C      1  0.5115420000000  0.5330450000000  0.5417730000000 1.0
C      1  0.5555700000000  0.5054010000000  0.5263780000000 1.0
C      1  0.4462830000000  0.4957080000000  0.5263790000000 1.0
C      1  0.5555690000000  0.4957040000000  0.4727170000000 1.0
C      1  0.4462830000000  0.5054000000000  0.4727180000000 1.0
C      1  0.5057740000000  0.5551980000000  0.5263760000000 1.0
C      1  0.4960790000000  0.4459110000000  0.5263810000000 1.0
C      1  0.4960790000000  0.5551950000000  0.4727150000000 1.0
C      1  0.5057720000000  0.4459090000000  0.4727200000000 1.0
C      1  0.5009260000000  0.5005520000000  0.4687430000000 1.0
C      1  0.5009260000000  0.5005550000000  0.5303530000000 1.0
C      1  0.5009260000000  0.5005530000000  0.4995480000000 1.0
END
