TITL C-2782231-7322-877 -0.0142230082012789 125000 -610.572307501647 0 0 107 (C1) n - 1
REM
REM in /home/nfs/bkarasulu/CARBON/AIRSS/Generating-Clusters/REBO/Higher-Symm/SD-CG/HFTN-CG
REM
REM
REM
REM
REM
REM ./C.cell (12c818d87b63d06a65506943cc24bca4)
REM
REM compiler GCC version 9.2.1 20190827 (Red Hat 9.2.1-1)
REM options -cpp -mtune=generic -march=x86-64 -g -O0 -fpre-include=/usr/include/finclude/math-vector-fortran.h
REM seed 838535361 -1369215817 -130405437 -1631120070 -1718666796 1171564473 2116095739 -2118539295 -1229931750 626152176 1358426548 1202914987 -2073038764 717831123 -1529271061 2094893296 161941310 -1637536712 -1406597216 1882202074 -1256982102 1934148102 -1932095641 1319770956 1655470129 1359634517 -1933655354 -621045891 -135992448 1099840209 42189979 -706556392 1785541627
REM
CELL 1.54180   50.00000   50.00000   50.00000   90.00000   90.00000   90.00000
LATT -1
SFAC C  
C      1  0.4756010000000  0.5804290000000  0.4802990000000 1.0
C      1  0.4745590000000  0.4797590000000  0.5776120000000 1.0
C      1  0.4749390000000  0.4429120000000  0.4453130000000 1.0
C      1  0.5242330000000  0.5789740000000  0.4804610000000 1.0
C      1  0.5230170000000  0.4788830000000  0.5799440000000 1.0
C      1  0.5246310000000  0.4423730000000  0.4437480000000 1.0
C      1  0.5651940000000  0.5191680000000  0.5753410000000 1.0
C      1  0.5648140000000  0.4273030000000  0.4791680000000 1.0
C      1  0.5617770000000  0.5548580000000  0.4463180000000 1.0
C      1  0.4366300000000  0.5176560000000  0.5737990000000 1.0
C      1  0.4363370000000  0.4271800000000  0.4771860000000 1.0
C      1  0.4369200000000  0.5550540000000  0.4460720000000 1.0
C      1  0.5456000000000  0.5084950000000  0.4670260000000 1.0
C      1  0.5455930000000  0.5250170000000  0.5234690000000 1.0
C      1  0.5447380000000  0.4718180000000  0.5114650000000 1.0
C      1  0.4512490000000  0.5097170000000  0.4660230000000 1.0
C      1  0.4549920000000  0.5255340000000  0.5228620000000 1.0
C      1  0.4524690000000  0.4675690000000  0.5084930000000 1.0
C      1  0.4742720000000  0.5331640000000  0.4588460000000 1.0
C      1  0.4781490000000  0.5218080000000  0.5453110000000 1.0
C      1  0.4769640000000  0.4515020000000  0.4956900000000 1.0
C      1  0.5235260000000  0.5318000000000  0.4592490000000 1.0
C      1  0.5246080000000  0.5207600000000  0.5488890000000 1.0
C      1  0.5255380000000  0.4510610000000  0.4943110000000 1.0
C      1  0.4417680000000  0.4886490000000  0.5565790000000 1.0
C      1  0.4405540000000  0.4565910000000  0.4604600000000 1.0
C      1  0.4449900000000  0.5547500000000  0.4793830000000 1.0
C      1  0.5581400000000  0.4893870000000  0.5601560000000 1.0
C      1  0.5584620000000  0.4559050000000  0.4616920000000 1.0
C      1  0.5551660000000  0.5537180000000  0.4798650000000 1.0
C      1  0.4825970000000  0.4902230000000  0.5212040000000 1.0
C      1  0.4824070000000  0.4879510000000  0.4777160000000 1.0
C      1  0.4857830000000  0.5222850000000  0.4977180000000 1.0
C      1  0.5125310000000  0.4855920000000  0.5311240000000 1.0
C      1  0.5136720000000  0.4859210000000  0.4746090000000 1.0
C      1  0.5177390000000  0.5172450000000  0.4960520000000 1.0
C      1  0.4881880000000  0.6008490000000  0.5504280000000 1.0
C      1  0.4876620000000  0.4059360000000  0.5602750000000 1.0
C      1  0.4864610000000  0.4918540000000  0.3889930000000 1.0
C      1  0.5136840000000  0.6005280000000  0.5499860000000 1.0
C      1  0.5131580000000  0.4064140000000  0.5603170000000 1.0
C      1  0.5119650000000  0.4918730000000  0.3889540000000 1.0
C      1  0.4657770000000  0.5462180000000  0.4980530000000 1.0
C      1  0.4620220000000  0.4764560000000  0.5400220000000 1.0
C      1  0.4601120000000  0.4774110000000  0.4585760000000 1.0
C      1  0.5342960000000  0.5448760000000  0.4983470000000 1.0
C      1  0.5386890000000  0.4761790000000  0.5434920000000 1.0
C      1  0.5383400000000  0.4760510000000  0.4599440000000 1.0
C      1  0.4247360000000  0.5676540000000  0.5247920000000 1.0
C      1  0.4227910000000  0.4436360000000  0.5451430000000 1.0
C      1  0.4216100000000  0.4879230000000  0.4267510000000 1.0
C      1  0.5762640000000  0.5671780000000  0.5246870000000 1.0
C      1  0.5772730000000  0.4459910000000  0.5449120000000 1.0
C      1  0.5765920000000  0.4882480000000  0.4282560000000 1.0
C      1  0.4840000000000  0.4724480000000  0.4348140000000 1.0
C      1  0.4840860000000  0.5712460000000  0.5107030000000 1.0
C      1  0.4830350000000  0.4556290000000  0.5566640000000 1.0
C      1  0.5153970000000  0.4724640000000  0.4347680000000 1.0
C      1  0.5157690000000  0.5698170000000  0.5106880000000 1.0
C      1  0.5149510000000  0.4559750000000  0.5578620000000 1.0
C      1  0.5147600000000  0.4364490000000  0.4687800000000 1.0
C      1  0.5137600000000  0.5609160000000  0.4623660000000 1.0
C      1  0.5137980000000  0.5034180000000  0.5715910000000 1.0
C      1  0.4862580000000  0.4368020000000  0.4695810000000 1.0
C      1  0.4851900000000  0.5616480000000  0.4623120000000 1.0
C      1  0.4854320000000  0.5038180000000  0.5697380000000 1.0
C      1  0.4526010000000  0.5400880000000  0.5695390000000 1.0
C      1  0.4524630000000  0.4204440000000  0.4988290000000 1.0
C      1  0.4505510000000  0.5389390000000  0.4277300000000 1.0
C      1  0.5497070000000  0.5421220000000  0.5707290000000 1.0
C      1  0.5494830000000  0.4203990000000  0.5014740000000 1.0
C      1  0.5474750000000  0.5389070000000  0.4285040000000 1.0
C      1  0.4467230000000  0.5064340000000  0.4322450000000 1.0
C      1  0.4491310000000  0.5544940000000  0.5399970000000 1.0
C      1  0.4479480000000  0.4386330000000  0.5263070000000 1.0
C      1  0.5511450000000  0.5065400000000  0.4332880000000 1.0
C      1  0.5520580000000  0.5540940000000  0.5401110000000 1.0
C      1  0.5513160000000  0.4417700000000  0.5265800000000 1.0
C      1  0.5844440000000  0.4932240000000  0.5808830000000 1.0
C      1  0.5837470000000  0.4348340000000  0.4537350000000 1.0
C      1  0.5794270000000  0.5733040000000  0.4660300000000 1.0
C      1  0.4168550000000  0.4922350000000  0.5791290000000 1.0
C      1  0.4163980000000  0.4343650000000  0.4523780000000 1.0
C      1  0.4200160000000  0.5737100000000  0.4662480000000 1.0
C      1  0.5820240000000  0.4667450000000  0.5619240000000 1.0
C      1  0.5810980000000  0.4637110000000  0.4390480000000 1.0
C      1  0.5781820000000  0.5699210000000  0.4979250000000 1.0
C      1  0.4189000000000  0.4652490000000  0.5611500000000 1.0
C      1  0.4178410000000  0.4632670000000  0.4375970000000 1.0
C      1  0.4220730000000  0.5704650000000  0.4980900000000 1.0
C      1  0.4743660000000  0.5753490000000  0.5395010000000 1.0
C      1  0.4735980000000  0.4287680000000  0.5445400000000 1.0
C      1  0.4729950000000  0.4950910000000  0.4168450000000 1.0
C      1  0.5265630000000  0.5745060000000  0.5390040000000 1.0
C      1  0.5263730000000  0.4300960000000  0.5449320000000 1.0
C      1  0.5255190000000  0.4951900000000  0.4167000000000 1.0
C      1  0.5178930000000  0.5508000000000  0.5605130000000 1.0
C      1  0.5174840000000  0.4250510000000  0.5134180000000 1.0
C      1  0.5160650000000  0.5248400000000  0.4274290000000 1.0
C      1  0.4837720000000  0.5508100000000  0.5595890000000 1.0
C      1  0.4833770000000  0.4245980000000  0.5133500000000 1.0
C      1  0.4820250000000  0.5249540000000  0.4272680000000 1.0
C      1  0.5018890000000  0.4679490000000  0.5061610000000 1.0
C      1  0.5034560000000  0.5236790000000  0.5254250000000 1.0
C      1  0.4984400000000  0.5122890000000  0.4614710000000 1.0
C      1  0.4578730000000  0.5006060000000  0.4989050000000 1.0
C      1  0.5462220000000  0.5001950000000  0.5000330000000 1.0
END
