TITL C-2782227-3064-161 -0.000130762800256543 125000 -231.953048431904 0 0 42 (C1) n - 1
REM
REM in /home/nfs/bkarasulu/CARBON/AIRSS/Generating-Clusters/REBO/Higher-Symm/SD-CG/HFTN-CG
REM
REM
REM
REM
REM
REM ./C.cell (12c818d87b63d06a65506943cc24bca4)
REM
REM compiler GCC version 9.2.1 20190827 (Red Hat 9.2.1-1)
REM options -cpp -mtune=generic -march=x86-64 -g -O0 -fpre-include=/usr/include/finclude/math-vector-fortran.h
REM seed 505600757 477095888 200433201 -1167105438 1984576038 1552431504 -99245928 204359812 914138679 241137110 -419438909 -581227873 -996273320 1976291754 1682446799 -2051596736 46658316 629653436 2031495283 1182622493 429844300 1239676005 -2137359227 -1161030756 2006253940 -2056001198 2124713708 -145036492 -1259772614 -1906480748 -720031698 -1096901441 2098921766
REM
CELL 1.54180   50.00000   50.00000   50.00000   90.00000   90.00000   90.00000
LATT -1
SFAC C  
C      1  0.5370060000000  0.5213590000000  0.4664250000000 1.0
C      1  0.5051280000000  0.4539240000000  0.4514620000000 1.0
C      1  0.5296580000000  0.4901330000000  0.4697950000000 1.0
C      1  0.5284120000000  0.5750150000000  0.4146580000000 1.0
C      1  0.4511470000000  0.5111930000000  0.4631450000000 1.0
C      1  0.4846680000000  0.4507840000000  0.5006850000000 1.0
C      1  0.5297240000000  0.5423410000000  0.5262800000000 1.0
C      1  0.4774300000000  0.5038960000000  0.4799890000000 1.0
C      1  0.5270370000000  0.4393100000000  0.4633870000000 1.0
C      1  0.5247470000000  0.5273450000000  0.4392640000000 1.0
C      1  0.5556260000000  0.5092140000000  0.4928150000000 1.0
C      1  0.5375790000000  0.5381390000000  0.4948740000000 1.0
C      1  0.4669120000000  0.5079440000000  0.5658170000000 1.0
C      1  0.5143670000000  0.4787490000000  0.5681000000000 1.0
C      1  0.4781530000000  0.4496250000000  0.5400600000000 1.0
C      1  0.5394510000000  0.4846710000000  0.5518400000000 1.0
C      1  0.5097270000000  0.5251080000000  0.5478650000000 1.0
C      1  0.4819370000000  0.5519510000000  0.5106320000000 1.0
C      1  0.4864510000000  0.4773580000000  0.5498920000000 1.0
C      1  0.4971100000000  0.5067740000000  0.5680460000000 1.0
C      1  0.4199480000000  0.5385020000000  0.4906830000000 1.0
C      1  0.5369590000000  0.4511300000000  0.4880240000000 1.0
C      1  0.5132460000000  0.4559660000000  0.5063390000000 1.0
C      1  0.5169860000000  0.4621880000000  0.5901540000000 1.0
C      1  0.5112410000000  0.5037220000000  0.4293370000000 1.0
C      1  0.4793820000000  0.4524660000000  0.4670150000000 1.0
C      1  0.4622950000000  0.4691710000000  0.5193340000000 1.0
C      1  0.4307720000000  0.5376820000000  0.5155570000000 1.0
C      1  0.5134130000000  0.4806810000000  0.4463250000000 1.0
C      1  0.4589960000000  0.5300500000000  0.5235130000000 1.0
C      1  0.4605700000000  0.4797940000000  0.4641850000000 1.0
C      1  0.4629200000000  0.4985930000000  0.5358580000000 1.0
C      1  0.4536650000000  0.4590030000000  0.4888910000000 1.0
C      1  0.4962680000000  0.5040090000000  0.5003410000000 1.0
C      1  0.5104060000000  0.5570890000000  0.5032140000000 1.0
C      1  0.5447700000000  0.4937550000000  0.5197670000000 1.0
C      1  0.5411120000000  0.5166970000000  0.5429640000000 1.0
C      1  0.5205910000000  0.4859400000000  0.5009290000000 1.0
C      1  0.5266260000000  0.5517810000000  0.4266510000000 1.0
C      1  0.5559290000000  0.4756390000000  0.4858840000000 1.0
C      1  0.4300690000000  0.5282600000000  0.4674830000000 1.0
C      1  0.4915690000000  0.5230480000000  0.5225190000000 1.0
END
