TITL C-2782228-2999-312 -0.00516540678424919 125000 -572.333776243996 0 0 100 (C1) n - 1
REM
REM in /home/nfs/bkarasulu/CARBON/AIRSS/Generating-Clusters/REBO/Higher-Symm/SD-CG/HFTN-CG
REM
REM
REM
REM
REM
REM ./C.cell (12c818d87b63d06a65506943cc24bca4)
REM
REM compiler GCC version 9.2.1 20190827 (Red Hat 9.2.1-1)
REM options -cpp -mtune=generic -march=x86-64 -g -O0 -fpre-include=/usr/include/finclude/math-vector-fortran.h
REM seed 456118194 1104836940 -1590603010 -1195581401 -479300422 957698447 1874525676 1403528784 575060009 -357213713 852697473 -1609273832 -853745624 -55291654 -2141272223 1105790967 -31469345 1303462 1703974164 -1683015759 357042206 948980285 -1558102414 1160587843 -163220764 -1374899947 1352697856 -956788928 552493668 1778476908 -859139006 389637923 -1211792819
REM
CELL 1.54180   50.00000   50.00000   50.00000   90.00000   90.00000   90.00000
LATT -1
SFAC C  
C      1  0.5282450000000  0.5278060000000  0.4807880000000 1.0
C      1  0.4728370000000  0.4735620000000  0.4711280000000 1.0
C      1  0.4761560000000  0.5257530000000  0.4752050000000 1.0
C      1  0.5254210000000  0.4747380000000  0.4766780000000 1.0
C      1  0.4816000000000  0.4596010000000  0.5731880000000 1.0
C      1  0.5167020000000  0.5532000000000  0.5757730000000 1.0
C      1  0.5151200000000  0.4574480000000  0.5707560000000 1.0
C      1  0.4848830000000  0.5541700000000  0.5717630000000 1.0
C      1  0.5090300000000  0.4388820000000  0.4391970000000 1.0
C      1  0.4896740000000  0.5620990000000  0.4407240000000 1.0
C      1  0.4845700000000  0.4377050000000  0.4414790000000 1.0
C      1  0.5142190000000  0.5625470000000  0.4428270000000 1.0
C      1  0.4883620000000  0.3995790000000  0.5104800000000 1.0
C      1  0.5129780000000  0.5974390000000  0.5161020000000 1.0
C      1  0.5157180000000  0.4019430000000  0.5099160000000 1.0
C      1  0.4855720000000  0.5950270000000  0.5153960000000 1.0
C      1  0.4434140000000  0.5320140000000  0.4532800000000 1.0
C      1  0.5559900000000  0.4684930000000  0.4517020000000 1.0
C      1  0.5591440000000  0.5331000000000  0.4560000000000 1.0
C      1  0.4384840000000  0.4659160000000  0.4525060000000 1.0
C      1  0.5123300000000  0.5572050000000  0.5429430000000 1.0
C      1  0.4875820000000  0.4462710000000  0.5429600000000 1.0
C      1  0.4808290000000  0.5577380000000  0.5381670000000 1.0
C      1  0.5182410000000  0.4463740000000  0.5388710000000 1.0
C      1  0.4473950000000  0.5152520000000  0.5662920000000 1.0
C      1  0.5533170000000  0.4840500000000  0.5605590000000 1.0
C      1  0.5522840000000  0.5167170000000  0.5670670000000 1.0
C      1  0.4492840000000  0.4812820000000  0.5642290000000 1.0
C      1  0.5540730000000  0.4840950000000  0.4820070000000 1.0
C      1  0.4475050000000  0.5148180000000  0.4823510000000 1.0
C      1  0.4452840000000  0.4845780000000  0.4803960000000 1.0
C      1  0.5554320000000  0.5144540000000  0.4843370000000 1.0
C      1  0.4838450000000  0.5202090000000  0.5508170000000 1.0
C      1  0.5173830000000  0.4860360000000  0.5432830000000 1.0
C      1  0.5159490000000  0.5182760000000  0.5506480000000 1.0
C      1  0.4835290000000  0.4873700000000  0.5446760000000 1.0
C      1  0.5243640000000  0.5226980000000  0.5836210000000 1.0
C      1  0.4775260000000  0.4922580000000  0.5784830000000 1.0
C      1  0.4746770000000  0.5251330000000  0.5833820000000 1.0
C      1  0.5246540000000  0.4895840000000  0.5768650000000 1.0
C      1  0.5689200000000  0.5235170000000  0.5127140000000 1.0
C      1  0.4332720000000  0.4721250000000  0.5088510000000 1.0
C      1  0.4349070000000  0.5261030000000  0.5107640000000 1.0
C      1  0.5693960000000  0.4695250000000  0.5086100000000 1.0
C      1  0.5929810000000  0.4828840000000  0.4897830000000 1.0
C      1  0.4091700000000  0.5149290000000  0.4926540000000 1.0
C      1  0.4075760000000  0.4858970000000  0.4926870000000 1.0
C      1  0.5940470000000  0.5118940000000  0.4929160000000 1.0
C      1  0.4528520000000  0.5131660000000  0.4306900000000 1.0
C      1  0.5461020000000  0.4861190000000  0.4275630000000 1.0
C      1  0.5503580000000  0.5171970000000  0.4306390000000 1.0
C      1  0.4497710000000  0.4826920000000  0.4286900000000 1.0
C      1  0.4553330000000  0.4502660000000  0.5529860000000 1.0
C      1  0.5430720000000  0.5471160000000  0.5545290000000 1.0
C      1  0.5457080000000  0.4521370000000  0.5551840000000 1.0
C      1  0.4548210000000  0.5470650000000  0.5566010000000 1.0
C      1  0.4341020000000  0.5486290000000  0.5345650000000 1.0
C      1  0.5678810000000  0.4482090000000  0.5348110000000 1.0
C      1  0.5629660000000  0.5487350000000  0.5328660000000 1.0
C      1  0.4369270000000  0.4464710000000  0.5304940000000 1.0
C      1  0.5239550000000  0.4524270000000  0.5098010000000 1.0
C      1  0.4745290000000  0.5447440000000  0.5101880000000 1.0
C      1  0.4748770000000  0.4475650000000  0.5140240000000 1.0
C      1  0.5242930000000  0.5484800000000  0.5146050000000 1.0
C      1  0.5462490000000  0.4217590000000  0.4771010000000 1.0
C      1  0.4539200000000  0.5790550000000  0.4808850000000 1.0
C      1  0.4524740000000  0.4179550000000  0.4816310000000 1.0
C      1  0.5478040000000  0.5804890000000  0.4847840000000 1.0
C      1  0.5133980000000  0.4798990000000  0.4194710000000 1.0
C      1  0.4839480000000  0.5093400000000  0.4169930000000 1.0
C      1  0.4799650000000  0.4752740000000  0.4148190000000 1.0
C      1  0.5175200000000  0.5135210000000  0.4219970000000 1.0
C      1  0.5125360000000  0.4453460000000  0.4784330000000 1.0
C      1  0.4861770000000  0.5554390000000  0.4799290000000 1.0
C      1  0.4825280000000  0.4451770000000  0.4806920000000 1.0
C      1  0.5156780000000  0.5568300000000  0.4823420000000 1.0
C      1  0.4671650000000  0.4176700000000  0.5049040000000 1.0
C      1  0.5341850000000  0.5795990000000  0.5090050000000 1.0
C      1  0.5343200000000  0.4218980000000  0.5019340000000 1.0
C      1  0.4656060000000  0.5769590000000  0.5061490000000 1.0
C      1  0.5189580000000  0.5197270000000  0.4548020000000 1.0
C      1  0.4849690000000  0.4835060000000  0.4472920000000 1.0
C      1  0.4876770000000  0.5162190000000  0.4499500000000 1.0
C      1  0.5155670000000  0.4879580000000  0.4526630000000 1.0
C      1  0.5900430000000  0.5268870000000  0.4687970000000 1.0
C      1  0.4092620000000  0.4733520000000  0.4671640000000 1.0
C      1  0.4127350000000  0.5272970000000  0.4672010000000 1.0
C      1  0.5876180000000  0.4729740000000  0.4635090000000 1.0
C      1  0.5461020000000  0.4807040000000  0.5272920000000 1.0
C      1  0.4552140000000  0.5147890000000  0.5330850000000 1.0
C      1  0.4529630000000  0.4829550000000  0.5303850000000 1.0
C      1  0.5455190000000  0.5128520000000  0.5340870000000 1.0
C      1  0.4564660000000  0.4397390000000  0.4579720000000 1.0
C      1  0.5419430000000  0.5591360000000  0.4602020000000 1.0
C      1  0.5375400000000  0.4435740000000  0.4548040000000 1.0
C      1  0.4610590000000  0.5577200000000  0.4565900000000 1.0
C      1  0.4805100000000  0.4787940000000  0.5021120000000 1.0
C      1  0.5156570000000  0.5161490000000  0.5080060000000 1.0
C      1  0.5117790000000  0.4839350000000  0.5040050000000 1.0
C      1  0.4835280000000  0.5122060000000  0.5049560000000 1.0
END
