TITL C-2782238-9940-317 -0.00107348846541019 125000 -1080.43670743029 0 0 188 (C1) n - 1
REM
REM in /home/nfs/bkarasulu/CARBON/AIRSS/Generating-Clusters/REBO/Higher-Symm/SD-CG/HFTN-CG
REM
REM
REM
REM
REM
REM ./C.cell (12c818d87b63d06a65506943cc24bca4)
REM
REM compiler GCC version 9.2.1 20190827 (Red Hat 9.2.1-1)
REM options -cpp -mtune=generic -march=x86-64 -g -O0 -fpre-include=/usr/include/finclude/math-vector-fortran.h
REM seed -904104847 1242287548 -1395530277 -551527301 -1974187403 532458963 -827303109 -62505916 -118776320 1736288213 1522602519 -1287417401 2086787487 -1755592234 732247848 488782358 1451486878 -912107825 -406173532 1004830740 335513139 -84210602 282028269 -629372507 -1272781902 644034231 -1734791487 -707728882 1221577534 1405647753 -1810783020 -405083895 409180475
REM
CELL 1.54180   50.00000   50.00000   50.00000   90.00000   90.00000   90.00000
LATT -1
SFAC C  
C      1  0.6044360000000  0.4710470000000  0.5148750000000 1.0
C      1  0.4757140000000  0.3922630000000  0.5199820000000 1.0
C      1  0.3966580000000  0.5236240000000  0.5107660000000 1.0
C      1  0.5266580000000  0.6044990000000  0.5184320000000 1.0
C      1  0.6070920000000  0.4766220000000  0.4813360000000 1.0
C      1  0.4791870000000  0.3979640000000  0.4871770000000 1.0
C      1  0.3934450000000  0.5255770000000  0.4769110000000 1.0
C      1  0.5248440000000  0.5944370000000  0.4871760000000 1.0
C      1  0.5319740000000  0.5737160000000  0.5771260000000 1.0
C      1  0.5731130000000  0.4684950000000  0.5754290000000 1.0
C      1  0.4681490000000  0.4248320000000  0.5774170000000 1.0
C      1  0.4260160000000  0.5297450000000  0.5715340000000 1.0
C      1  0.5266490000000  0.5764240000000  0.4217890000000 1.0
C      1  0.5758440000000  0.4730310000000  0.4211830000000 1.0
C      1  0.4707440000000  0.4297840000000  0.4281840000000 1.0
C      1  0.4229660000000  0.5295790000000  0.4169200000000 1.0
C      1  0.4066620000000  0.4698250000000  0.4635130000000 1.0
C      1  0.4405190000000  0.6006230000000  0.4465090000000 1.0
C      1  0.5981790000000  0.5345040000000  0.4598240000000 1.0
C      1  0.5324700000000  0.4089180000000  0.4602290000000 1.0
C      1  0.4034170000000  0.4720160000000  0.5351630000000 1.0
C      1  0.4719500000000  0.5976450000000  0.5301960000000 1.0
C      1  0.5996180000000  0.5226110000000  0.5371000000000 1.0
C      1  0.5275180000000  0.4021950000000  0.5386370000000 1.0
C      1  0.4730070000000  0.5082260000000  0.4550390000000 1.0
C      1  0.5092900000000  0.5244860000000  0.4555660000000 1.0
C      1  0.5266220000000  0.4979620000000  0.4554240000000 1.0
C      1  0.4871630000000  0.4821490000000  0.4554660000000 1.0
C      1  0.4795620000000  0.5136820000000  0.5431130000000 1.0
C      1  0.5055820000000  0.5268810000000  0.5421420000000 1.0
C      1  0.5221320000000  0.4833950000000  0.5434390000000 1.0
C      1  0.4944260000000  0.4737880000000  0.5454830000000 1.0
C      1  0.5221580000000  0.4413690000000  0.5328890000000 1.0
C      1  0.4427740000000  0.4752220000000  0.5300590000000 1.0
C      1  0.4763330000000  0.5579450000000  0.5302260000000 1.0
C      1  0.5603250000000  0.5217590000000  0.5311590000000 1.0
C      1  0.5247070000000  0.4471070000000  0.4687870000000 1.0
C      1  0.4453120000000  0.4783030000000  0.4683420000000 1.0
C      1  0.4739370000000  0.5635580000000  0.4675160000000 1.0
C      1  0.5601410000000  0.5235440000000  0.4637330000000 1.0
C      1  0.4936470000000  0.5789560000000  0.4141180000000 1.0
C      1  0.5789350000000  0.5046470000000  0.4095490000000 1.0
C      1  0.5007550000000  0.4256610000000  0.4164870000000 1.0
C      1  0.4205370000000  0.4977350000000  0.4150330000000 1.0
C      1  0.5003190000000  0.5796090000000  0.5833690000000 1.0
C      1  0.5774590000000  0.5004970000000  0.5820020000000 1.0
C      1  0.4983140000000  0.4203660000000  0.5896070000000 1.0
C      1  0.4218020000000  0.4982540000000  0.5804310000000 1.0
C      1  0.5632080000000  0.5341240000000  0.4168840000000 1.0
C      1  0.5312000000000  0.4400840000000  0.4186520000000 1.0
C      1  0.4364670000000  0.4687530000000  0.4185930000000 1.0
C      1  0.4625390000000  0.5662160000000  0.4089040000000 1.0
C      1  0.5664730000000  0.5316810000000  0.5891480000000 1.0
C      1  0.5287930000000  0.4339240000000  0.5838170000000 1.0
C      1  0.4340590000000  0.4676460000000  0.5886460000000 1.0
C      1  0.4696080000000  0.5652110000000  0.5806960000000 1.0
C      1  0.5231030000000  0.5546840000000  0.4778040000000 1.0
C      1  0.5673250000000  0.4852530000000  0.4769910000000 1.0
C      1  0.4855690000000  0.4385130000000  0.4844030000000 1.0
C      1  0.4333660000000  0.5239100000000  0.4761450000000 1.0
C      1  0.5213370000000  0.5635300000000  0.5196400000000 1.0
C      1  0.5650080000000  0.4769190000000  0.5158770000000 1.0
C      1  0.4799220000000  0.4343930000000  0.5232770000000 1.0
C      1  0.4359070000000  0.5194360000000  0.5155260000000 1.0
C      1  0.4018460000000  0.4507810000000  0.4879600000000 1.0
C      1  0.4434880000000  0.6030630000000  0.4754890000000 1.0
C      1  0.6022180000000  0.5447400000000  0.4900680000000 1.0
C      1  0.5487820000000  0.4013640000000  0.4861390000000 1.0
C      1  0.3957330000000  0.4485360000000  0.5172190000000 1.0
C      1  0.4503280000000  0.6030680000000  0.5078200000000 1.0
C      1  0.6090000000000  0.5459710000000  0.5190970000000 1.0
C      1  0.5467220000000  0.3942860000000  0.5153080000000 1.0
C      1  0.5446120000000  0.4682960000000  0.4569870000000 1.0
C      1  0.4673130000000  0.4543900000000  0.4607850000000 1.0
C      1  0.4571690000000  0.5388180000000  0.4558070000000 1.0
C      1  0.5381900000000  0.5407490000000  0.4526120000000 1.0
C      1  0.5484330000000  0.4610460000000  0.5411580000000 1.0
C      1  0.4644650000000  0.4573720000000  0.5433990000000 1.0
C      1  0.4537840000000  0.5359350000000  0.5394960000000 1.0
C      1  0.5364490000000  0.5418150000000  0.5417940000000 1.0
C      1  0.5117670000000  0.5211020000000  0.6014910000000 1.0
C      1  0.5200600000000  0.4880570000000  0.5993930000000 1.0
C      1  0.4871120000000  0.4798390000000  0.6003650000000 1.0
C      1  0.4788040000000  0.5129820000000  0.5991630000000 1.0
C      1  0.5096330000000  0.5222750000000  0.3989730000000 1.0
C      1  0.5210680000000  0.4911180000000  0.3997720000000 1.0
C      1  0.4884300000000  0.4819070000000  0.3983840000000 1.0
C      1  0.4771710000000  0.5127140000000  0.3943020000000 1.0
C      1  0.5059670000000  0.4543870000000  0.4006160000000 1.0
C      1  0.4502100000000  0.4932120000000  0.3988570000000 1.0
C      1  0.4910730000000  0.5493060000000  0.4003990000000 1.0
C      1  0.5476070000000  0.5100660000000  0.3982610000000 1.0
C      1  0.5054080000000  0.4512310000000  0.6021300000000 1.0
C      1  0.4508000000000  0.4957380000000  0.5974310000000 1.0
C      1  0.4938680000000  0.5499550000000  0.5994030000000 1.0
C      1  0.5477930000000  0.5049680000000  0.5969050000000 1.0
C      1  0.4979520000000  0.5734200000000  0.4859470000000 1.0
C      1  0.5927510000000  0.5074280000000  0.4798270000000 1.0
C      1  0.5087810000000  0.4136580000000  0.4834170000000 1.0
C      1  0.4115010000000  0.4981120000000  0.4805820000000 1.0
C      1  0.4980450000000  0.5880630000000  0.5160250000000 1.0
C      1  0.5891250000000  0.5007470000000  0.5131960000000 1.0
C      1  0.5028020000000  0.4106780000000  0.5168210000000 1.0
C      1  0.4122960000000  0.4947320000000  0.5138400000000 1.0
C      1  0.4318230000000  0.4977470000000  0.5484380000000 1.0
C      1  0.4968400000000  0.5683710000000  0.5506720000000 1.0
C      1  0.5696800000000  0.4981390000000  0.5491450000000 1.0
C      1  0.5015020000000  0.4268480000000  0.5556090000000 1.0
C      1  0.4331330000000  0.4963790000000  0.4472710000000 1.0
C      1  0.4955660000000  0.5721230000000  0.4462260000000 1.0
C      1  0.5756830000000  0.5056370000000  0.4437030000000 1.0
C      1  0.5042100000000  0.4352120000000  0.4493780000000 1.0
C      1  0.4612350000000  0.5113440000000  0.4840460000000 1.0
C      1  0.4965540000000  0.5336110000000  0.4835620000000 1.0
C      1  0.5393040000000  0.4965230000000  0.4842720000000 1.0
C      1  0.4959580000000  0.4709030000000  0.4829640000000 1.0
C      1  0.4679690000000  0.5074260000000  0.5158260000000 1.0
C      1  0.5137290000000  0.5337100000000  0.5103980000000 1.0
C      1  0.5337610000000  0.4870630000000  0.5150660000000 1.0
C      1  0.4915540000000  0.4632970000000  0.5151930000000 1.0
C      1  0.5412520000000  0.4642000000000  0.5868610000000 1.0
C      1  0.4646820000000  0.4570250000000  0.5880750000000 1.0
C      1  0.4572380000000  0.5351120000000  0.5841860000000 1.0
C      1  0.5354910000000  0.5420190000000  0.5883030000000 1.0
C      1  0.5430280000000  0.4688100000000  0.4128370000000 1.0
C      1  0.4668400000000  0.4596270000000  0.4126510000000 1.0
C      1  0.4541700000000  0.5353130000000  0.4053910000000 1.0
C      1  0.5323530000000  0.5442060000000  0.4121530000000 1.0
C      1  0.4414340000000  0.5617250000000  0.5533570000000 1.0
C      1  0.5620740000000  0.5528120000000  0.5566040000000 1.0
C      1  0.5624760000000  0.4350330000000  0.5515100000000 1.0
C      1  0.4398110000000  0.4447880000000  0.5572490000000 1.0
C      1  0.4319030000000  0.5507290000000  0.4396760000000 1.0
C      1  0.5529560000000  0.5670350000000  0.4407720000000 1.0
C      1  0.5698860000000  0.4494020000000  0.4443150000000 1.0
C      1  0.4459330000000  0.4315400000000  0.4507360000000 1.0
C      1  0.5217350000000  0.5883150000000  0.4536590000000 1.0
C      1  0.5951390000000  0.4798760000000  0.4490320000000 1.0
C      1  0.4802680000000  0.4117190000000  0.4555460000000 1.0
C      1  0.4079490000000  0.5194040000000  0.4461650000000 1.0
C      1  0.5224270000000  0.5908100000000  0.5485280000000 1.0
C      1  0.5902610000000  0.4710770000000  0.5459610000000 1.0
C      1  0.4758750000000  0.4051620000000  0.5498620000000 1.0
C      1  0.4075450000000  0.5211990000000  0.5431170000000 1.0
C      1  0.4489520000000  0.4235590000000  0.5248320000000 1.0
C      1  0.4221240000000  0.5504510000000  0.5202050000000 1.0
C      1  0.5534180000000  0.5731060000000  0.5236040000000 1.0
C      1  0.5737450000000  0.4453190000000  0.5146230000000 1.0
C      1  0.4552280000000  0.4294660000000  0.4922990000000 1.0
C      1  0.4249480000000  0.5527090000000  0.4877180000000 1.0
C      1  0.5503670000000  0.5640680000000  0.4922840000000 1.0
C      1  0.5738490000000  0.4550330000000  0.4836160000000 1.0
C      1  0.5460540000000  0.4269090000000  0.4417010000000 1.0
C      1  0.4244960000000  0.4552060000000  0.4433330000000 1.0
C      1  0.4420810000000  0.5790680000000  0.4294230000000 1.0
C      1  0.5810160000000  0.5477640000000  0.4399430000000 1.0
C      1  0.5404300000000  0.4181620000000  0.5598540000000 1.0
C      1  0.4156320000000  0.4633240000000  0.5600670000000 1.0
C      1  0.4610210000000  0.5854850000000  0.5546610000000 1.0
C      1  0.5853770000000  0.5329580000000  0.5605210000000 1.0
C      1  0.4440150000000  0.4132580000000  0.5563240000000 1.0
C      1  0.4106880000000  0.5532250000000  0.5521090000000 1.0
C      1  0.5552880000000  0.5844530000000  0.5548160000000 1.0
C      1  0.5917480000000  0.4375140000000  0.5406030000000 1.0
C      1  0.4503120000000  0.4050650000000  0.4706770000000 1.0
C      1  0.4077310000000  0.5504300000000  0.4607150000000 1.0
C      1  0.5515880000000  0.5852410000000  0.4681940000000 1.0
C      1  0.5980200000000  0.4490730000000  0.4632160000000 1.0
C      1  0.5750220000000  0.5482410000000  0.5191300000000 1.0
C      1  0.5467820000000  0.4280970000000  0.5154770000000 1.0
C      1  0.4297250000000  0.4484680000000  0.5164880000000 1.0
C      1  0.4482740000000  0.5695920000000  0.5151050000000 1.0
C      1  0.5696740000000  0.5392330000000  0.4872150000000 1.0
C      1  0.5504500000000  0.4353490000000  0.4838160000000 1.0
C      1  0.4350400000000  0.4513870000000  0.4840800000000 1.0
C      1  0.4491710000000  0.5727220000000  0.4825160000000 1.0
C      1  0.4580180000000  0.5065630000000  0.5658170000000 1.0
C      1  0.5075320000000  0.5433480000000  0.5689190000000 1.0
C      1  0.5419700000000  0.4912920000000  0.5662090000000 1.0
C      1  0.4935870000000  0.4547180000000  0.5702150000000 1.0
C      1  0.4560890000000  0.5102330000000  0.4279860000000 1.0
C      1  0.5044730000000  0.5446770000000  0.4315950000000 1.0
C      1  0.5458380000000  0.4977960000000  0.4304190000000 1.0
C      1  0.4942680000000  0.4617000000000  0.4323180000000 1.0
C      1  0.5189660000000  0.4527480000000  0.5009070000000 1.0
C      1  0.4760990000000  0.5441160000000  0.5022740000000 1.0
C      1  0.5382690000000  0.5178410000000  0.5080470000000 1.0
C      1  0.4498980000000  0.4844750000000  0.5005180000000 1.0
END
