TITL C-2782235-7892-1385 0.000238639588908416 125000 -565.029596184657 0 0 96 (C1) n - 1
REM
REM in /home/nfs/bkarasulu/CARBON/AIRSS/Generating-Clusters/REBO/Higher-Symm/SD-CG/HFTN-CG
REM
REM
REM
REM
REM
REM ./C.cell (12c818d87b63d06a65506943cc24bca4)
REM
REM compiler GCC version 9.2.1 20190827 (Red Hat 9.2.1-1)
REM options -cpp -mtune=generic -march=x86-64 -g -O0 -fpre-include=/usr/include/finclude/math-vector-fortran.h
REM seed 2109155796 -1466928281 1764278663 -1561733793 568643673 1573976529 55604266 -291189747 1360450529 38320056 1181817938 -1344099830 1115378475 1504889196 -1245598668 -1498405406 -146275762 -1597229465 1560331305 -1514297025 1943547233 1770157317 24923187 -909107975 -551588315 1916950702 415472090 1431439051 1844494366 537240670 32991809 -798492087 -946523134
REM
CELL 1.54180   50.00000   50.00000   50.00000   90.00000   90.00000   90.00000
LATT -1
SFAC C  
C      1  0.5004110000000  0.5156950000000  0.4418850000000 1.0
C      1  0.4981990000000  0.4400240000000  0.4821920000000 1.0
C      1  0.4959730000000  0.4821070000000  0.5612070000000 1.0
C      1  0.4959480000000  0.5608520000000  0.5156570000000 1.0
C      1  0.4966170000000  0.4817700000000  0.4411850000000 1.0
C      1  0.4952660000000  0.5618630000000  0.4813090000000 1.0
C      1  0.5003970000000  0.5159920000000  0.5604990000000 1.0
C      1  0.5007640000000  0.4412000000000  0.5162520000000 1.0
C      1  0.5596150000000  0.4830170000000  0.4330440000000 1.0
C      1  0.5655450000000  0.4350790000000  0.5175390000000 1.0
C      1  0.5620510000000  0.5128490000000  0.5656560000000 1.0
C      1  0.5573590000000  0.5644850000000  0.4820670000000 1.0
C      1  0.5615570000000  0.5155970000000  0.4356970000000 1.0
C      1  0.5588160000000  0.5613510000000  0.5160990000000 1.0
C      1  0.5605100000000  0.4807930000000  0.5684540000000 1.0
C      1  0.5601840000000  0.4398190000000  0.4865480000000 1.0
C      1  0.5238810000000  0.3983170000000  0.5118040000000 1.0
C      1  0.5176590000000  0.5096600000000  0.5959860000000 1.0
C      1  0.5133050000000  0.5970530000000  0.4871770000000 1.0
C      1  0.5137850000000  0.4856710000000  0.4052870000000 1.0
C      1  0.5143700000000  0.5961010000000  0.5116750000000 1.0
C      1  0.5155340000000  0.4851990000000  0.5959050000000 1.0
C      1  0.5233940000000  0.3984800000000  0.4868360000000 1.0
C      1  0.5153350000000  0.5101050000000  0.4052050000000 1.0
C      1  0.5484500000000  0.4892630000000  0.4624860000000 1.0
C      1  0.5553000000000  0.4657250000000  0.5162650000000 1.0
C      1  0.5583900000000  0.5165460000000  0.5330440000000 1.0
C      1  0.5692930000000  0.5373240000000  0.4861510000000 1.0
C      1  0.5557730000000  0.5192800000000  0.4682740000000 1.0
C      1  0.5724940000000  0.5337030000000  0.5149570000000 1.0
C      1  0.5494510000000  0.4866450000000  0.5383860000000 1.0
C      1  0.5448690000000  0.4696460000000  0.4855090000000 1.0
C      1  0.4548150000000  0.5112550000000  0.4237830000000 1.0
C      1  0.4518060000000  0.4234890000000  0.4881850000000 1.0
C      1  0.4554910000000  0.4868670000000  0.5747480000000 1.0
C      1  0.4597130000000  0.5772610000000  0.5117470000000 1.0
C      1  0.4543180000000  0.4860450000000  0.4250490000000 1.0
C      1  0.4590150000000  0.5776940000000  0.4867750000000 1.0
C      1  0.4556710000000  0.5120150000000  0.5760840000000 1.0
C      1  0.4530530000000  0.4246310000000  0.5135030000000 1.0
C      1  0.5152090000000  0.4873540000000  0.4655750000000 1.0
C      1  0.5220100000000  0.4661200000000  0.5179820000000 1.0
C      1  0.5247370000000  0.5179400000000  0.5364550000000 1.0
C      1  0.5118430000000  0.5366000000000  0.4882060000000 1.0
C      1  0.5226020000000  0.5192240000000  0.4674950000000 1.0
C      1  0.5141860000000  0.5340500000000  0.5152080000000 1.0
C      1  0.5167000000000  0.4869090000000  0.5389980000000 1.0
C      1  0.5119610000000  0.4668560000000  0.4879440000000 1.0
C      1  0.4725940000000  0.5287890000000  0.4446520000000 1.0
C      1  0.4706260000000  0.4435610000000  0.4705910000000 1.0
C      1  0.4689800000000  0.4692920000000  0.5499590000000 1.0
C      1  0.4692590000000  0.5526990000000  0.5318940000000 1.0
C      1  0.4683110000000  0.4690120000000  0.4499430000000 1.0
C      1  0.4682880000000  0.5528510000000  0.4663870000000 1.0
C      1  0.4731860000000  0.5300270000000  0.5552400000000 1.0
C      1  0.4731530000000  0.4455830000000  0.5281560000000 1.0
C      1  0.5023680000000  0.4325490000000  0.4212470000000 1.0
C      1  0.5036570000000  0.4145730000000  0.5595450000000 1.0
C      1  0.5052930000000  0.5633490000000  0.5829120000000 1.0
C      1  0.5013430000000  0.5815760000000  0.4334190000000 1.0
C      1  0.5026100000000  0.5627110000000  0.4167210000000 1.0
C      1  0.5035200000000  0.5807180000000  0.5647320000000 1.0
C      1  0.5015540000000  0.4316790000000  0.5779740000000 1.0
C      1  0.5044100000000  0.4147820000000  0.4390640000000 1.0
C      1  0.4194210000000  0.5130550000000  0.4440230000000 1.0
C      1  0.4168430000000  0.4445760000000  0.4827340000000 1.0
C      1  0.4144980000000  0.4861360000000  0.5542870000000 1.0
C      1  0.4151630000000  0.5578300000000  0.5090290000000 1.0
C      1  0.4140260000000  0.4859820000000  0.4448090000000 1.0
C      1  0.4118510000000  0.5599860000000  0.4815030000000 1.0
C      1  0.4197340000000  0.5132970000000  0.5552240000000 1.0
C      1  0.4207980000000  0.4479390000000  0.5097170000000 1.0
C      1  0.5413950000000  0.5639460000000  0.4580160000000 1.0
C      1  0.5423710000000  0.4575570000000  0.4389310000000 1.0
C      1  0.5448690000000  0.4362340000000  0.5410810000000 1.0
C      1  0.5453230000000  0.5407190000000  0.5619490000000 1.0
C      1  0.5432770000000  0.4384150000000  0.4607260000000 1.0
C      1  0.5435710000000  0.5421560000000  0.4379800000000 1.0
C      1  0.5428040000000  0.5613350000000  0.5402660000000 1.0
C      1  0.5428110000000  0.4556370000000  0.5626390000000 1.0
C      1  0.4436150000000  0.4873910000000  0.5366240000000 1.0
C      1  0.4423350000000  0.5414920000000  0.5157150000000 1.0
C      1  0.4457940000000  0.5202680000000  0.4616320000000 1.0
C      1  0.4458860000000  0.4625280000000  0.4823530000000 1.0
C      1  0.4464960000000  0.5205920000000  0.5381670000000 1.0
C      1  0.4481290000000  0.4641870000000  0.5163080000000 1.0
C      1  0.4427110000000  0.4870420000000  0.4632310000000 1.0
C      1  0.4409330000000  0.5422940000000  0.4829420000000 1.0
C      1  0.5142290000000  0.5786500000000  0.4611460000000 1.0
C      1  0.5148500000000  0.4604070000000  0.4245000000000 1.0
C      1  0.5185120000000  0.4208050000000  0.5328450000000 1.0
C      1  0.5192270000000  0.5363300000000  0.5782740000000 1.0
C      1  0.5172840000000  0.4214260000000  0.4665400000000 1.0
C      1  0.5173840000000  0.5364400000000  0.4227370000000 1.0
C      1  0.5161190000000  0.5766830000000  0.5369710000000 1.0
C      1  0.5149590000000  0.4593910000000  0.5766870000000 1.0
END
