TITL C-2782238-9940-299 0.138205095649572 125000 -907.34824107399 0 0 152 (C1) n - 1
REM
REM in /home/nfs/bkarasulu/CARBON/AIRSS/Generating-Clusters/REBO/Higher-Symm/SD-CG/HFTN-CG
REM
REM
REM
REM
REM
REM ./C.cell (12c818d87b63d06a65506943cc24bca4)
REM
REM compiler GCC version 9.2.1 20190827 (Red Hat 9.2.1-1)
REM options -cpp -mtune=generic -march=x86-64 -g -O0 -fpre-include=/usr/include/finclude/math-vector-fortran.h
REM seed -1951234063 342309530 368521830 799268820 -1393874230 784409994 1130879025 -1722919012 -1259275365 1540897428 -1206887510 1573597957 343680003 -342362236 -1687863897 1881584416 1835416841 142803149 72999710 604602911 2074163505 -1622806120 -535800150 -413945900 1477541323 1291509709 -1029671105 209010049 -1516206695 1243793584 -1533114152 -1137644044 1053923135
REM
CELL 1.54180   50.00000   50.00000   50.00000   90.00000   90.00000   90.00000
LATT -1
SFAC C  
C      1  0.5162870000000  0.5323280000000  0.4005360000000 1.0
C      1  0.4187320000000  0.5064710000000  0.5406660000000 1.0
C      1  0.5359220000000  0.4197680000000  0.5137850000000 1.0
C      1  0.4832030000000  0.4645810000000  0.4055930000000 1.0
C      1  0.4799840000000  0.5343680000000  0.5895740000000 1.0
C      1  0.5155490000000  0.4647400000000  0.5917080000000 1.0
C      1  0.5848030000000  0.4885200000000  0.5332070000000 1.0
C      1  0.5801380000000  0.5174060000000  0.4655620000000 1.0
C      1  0.4120620000000  0.4828270000000  0.4651610000000 1.0
C      1  0.4689340000000  0.5911430000000  0.5146840000000 1.0
C      1  0.4647410000000  0.4119340000000  0.4833190000000 1.0
C      1  0.5384950000000  0.5740270000000  0.4937830000000 1.0
C      1  0.5085200000000  0.5347670000000  0.5866810000000 1.0
C      1  0.4033970000000  0.5093140000000  0.4714580000000 1.0
C      1  0.5363590000000  0.4115530000000  0.4866170000000 1.0
C      1  0.4888380000000  0.4642740000000  0.6012480000000 1.0
C      1  0.4885530000000  0.5400750000000  0.4024700000000 1.0
C      1  0.5115060000000  0.4596070000000  0.4077440000000 1.0
C      1  0.5813450000000  0.4895770000000  0.4599490000000 1.0
C      1  0.5802720000000  0.5163880000000  0.5361390000000 1.0
C      1  0.4195080000000  0.4776280000000  0.5388360000000 1.0
C      1  0.4708850000000  0.5832610000000  0.4879130000000 1.0
C      1  0.4611090000000  0.4162150000000  0.5114580000000 1.0
C      1  0.5395540000000  0.5770240000000  0.5213900000000 1.0
C      1  0.5821940000000  0.5391900000000  0.4427480000000 1.0
C      1  0.4473240000000  0.6106730000000  0.5251210000000 1.0
C      1  0.5393970000000  0.4468670000000  0.5750480000000 1.0
C      1  0.4248570000000  0.4771610000000  0.4373640000000 1.0
C      1  0.4084810000000  0.5190700000000  0.5643750000000 1.0
C      1  0.5798770000000  0.4703970000000  0.5577820000000 1.0
C      1  0.5605330000000  0.4301050000000  0.5302790000000 1.0
C      1  0.5620540000000  0.5752180000000  0.4741100000000 1.0
C      1  0.4488720000000  0.3942630000000  0.4675710000000 1.0
C      1  0.4647840000000  0.5575500000000  0.5965130000000 1.0
C      1  0.4629280000000  0.4447070000000  0.4192580000000 1.0
C      1  0.5366420000000  0.5487840000000  0.3891890000000 1.0
C      1  0.5864910000000  0.5364940000000  0.5595160000000 1.0
C      1  0.4460670000000  0.5794340000000  0.4690530000000 1.0
C      1  0.5246120000000  0.4349000000000  0.4212080000000 1.0
C      1  0.4082860000000  0.4612950000000  0.5594550000000 1.0
C      1  0.4125030000000  0.5389380000000  0.4579920000000 1.0
C      1  0.5830140000000  0.4801950000000  0.4328970000000 1.0
C      1  0.5565790000000  0.4220980000000  0.4653380000000 1.0
C      1  0.5658830000000  0.5802610000000  0.5376570000000 1.0
C      1  0.4391540000000  0.4031670000000  0.5243660000000 1.0
C      1  0.4824210000000  0.5679630000000  0.3985400000000 1.0
C      1  0.4763390000000  0.4376980000000  0.6136450000000 1.0
C      1  0.5232090000000  0.5586060000000  0.5923150000000 1.0
C      1  0.5134820000000  0.4856310000000  0.4477570000000 1.0
C      1  0.4425620000000  0.5143410000000  0.4687160000000 1.0
C      1  0.4853580000000  0.4624750000000  0.5050230000000 1.0
C      1  0.4814110000000  0.5249180000000  0.4505330000000 1.0
C      1  0.4769990000000  0.4792990000000  0.5571010000000 1.0
C      1  0.5078150000000  0.5195980000000  0.5395710000000 1.0
C      1  0.5389350000000  0.4763820000000  0.4869630000000 1.0
C      1  0.5308730000000  0.5078000000000  0.5235930000000 1.0
C      1  0.4618200000000  0.4810150000000  0.5027590000000 1.0
C      1  0.4963430000000  0.5452680000000  0.5252450000000 1.0
C      1  0.5212470000000  0.4636740000000  0.4664270000000 1.0
C      1  0.4723690000000  0.5397760000000  0.4733360000000 1.0
C      1  0.5032790000000  0.4698700000000  0.5540360000000 1.0
C      1  0.4621730000000  0.5095560000000  0.5170110000000 1.0
C      1  0.4959160000000  0.4509300000000  0.4783670000000 1.0
C      1  0.4763560000000  0.5082440000000  0.5437730000000 1.0
C      1  0.4821600000000  0.4928210000000  0.4453240000000 1.0
C      1  0.5126400000000  0.5189910000000  0.4493700000000 1.0
C      1  0.5380580000000  0.4743620000000  0.5220370000000 1.0
C      1  0.5358520000000  0.5084910000000  0.4908550000000 1.0
C      1  0.4515640000000  0.4851770000000  0.4706150000000 1.0
C      1  0.5299390000000  0.5321610000000  0.4696730000000 1.0
C      1  0.5099550000000  0.4608910000000  0.5268180000000 1.0
C      1  0.4787070000000  0.5319150000000  0.5034700000000 1.0
C      1  0.5012450000000  0.5818530000000  0.3822370000000 1.0
C      1  0.3928540000000  0.4749130000000  0.5788950000000 1.0
C      1  0.5785420000000  0.4352370000000  0.4826340000000 1.0
C      1  0.5027830000000  0.4136960000000  0.4241360000000 1.0
C      1  0.5080270000000  0.5791630000000  0.6048010000000 1.0
C      1  0.4926060000000  0.4267120000000  0.5881400000000 1.0
C      1  0.5790940000000  0.5149750000000  0.5814580000000 1.0
C      1  0.5849200000000  0.5006210000000  0.4132920000000 1.0
C      1  0.4173600000000  0.5270510000000  0.4292930000000 1.0
C      1  0.4234880000000  0.5960010000000  0.4817990000000 1.0
C      1  0.4259920000000  0.3831480000000  0.5090940000000 1.0
C      1  0.5882460000000  0.5742150000000  0.5168380000000 1.0
C      1  0.4804500000000  0.5790770000000  0.6064100000000 1.0
C      1  0.4229890000000  0.5040650000000  0.4220410000000 1.0
C      1  0.5799660000000  0.4383970000000  0.5072260000000 1.0
C      1  0.5124870000000  0.4291550000000  0.5738550000000 1.0
C      1  0.5269380000000  0.5728220000000  0.3775500000000 1.0
C      1  0.4779770000000  0.4188480000000  0.4271760000000 1.0
C      1  0.5780190000000  0.5277670000000  0.4152460000000 1.0
C      1  0.5754210000000  0.4904450000000  0.5809130000000 1.0
C      1  0.3922940000000  0.5023280000000  0.5807600000000 1.0
C      1  0.4248210000000  0.6080140000000  0.5035540000000 1.0
C      1  0.4296300000000  0.3794090000000  0.4821140000000 1.0
C      1  0.5871830000000  0.5726790000000  0.4920260000000 1.0
C      1  0.5181390000000  0.5150590000000  0.5682870000000 1.0
C      1  0.5594230000000  0.5242870000000  0.5185830000000 1.0
C      1  0.5159650000000  0.5711420000000  0.5341640000000 1.0
C      1  0.4706860000000  0.4818590000000  0.5869900000000 1.0
C      1  0.4740440000000  0.5214140000000  0.4188090000000 1.0
C      1  0.5244910000000  0.4827280000000  0.4175250000000 1.0
C      1  0.4333880000000  0.4677390000000  0.5161140000000 1.0
C      1  0.4223410000000  0.5230320000000  0.4932940000000 1.0
C      1  0.5710110000000  0.4744280000000  0.4812990000000 1.0
C      1  0.4809780000000  0.4338950000000  0.5217990000000 1.0
C      1  0.4907610000000  0.5634320000000  0.4820080000000 1.0
C      1  0.5115660000000  0.4056670000000  0.4743840000000 1.0
C      1  0.5232710000000  0.5124080000000  0.4198530000000 1.0
C      1  0.5655430000000  0.5240030000000  0.4886800000000 1.0
C      1  0.5176220000000  0.5580390000000  0.4831530000000 1.0
C      1  0.4756140000000  0.4911390000000  0.4128300000000 1.0
C      1  0.4676480000000  0.5122440000000  0.5764860000000 1.0
C      1  0.5219580000000  0.4871670000000  0.5716030000000 1.0
C      1  0.4271660000000  0.4691280000000  0.4871700000000 1.0
C      1  0.4330050000000  0.5186540000000  0.5190660000000 1.0
C      1  0.5708980000000  0.4771760000000  0.5109220000000 1.0
C      1  0.4894650000000  0.4234040000000  0.4735500000000 1.0
C      1  0.4851170000000  0.5766870000000  0.5318820000000 1.0
C      1  0.5115900000000  0.4289540000000  0.5235490000000 1.0
C      1  0.4395970000000  0.4386820000000  0.4039350000000 1.0
C      1  0.4112770000000  0.4561140000000  0.4234390000000 1.0
C      1  0.4537020000000  0.3930730000000  0.4406120000000 1.0
C      1  0.5628500000000  0.5419460000000  0.3965920000000 1.0
C      1  0.5592590000000  0.4366740000000  0.5924880000000 1.0
C      1  0.4378980000000  0.5569510000000  0.5883490000000 1.0
C      1  0.6040190000000  0.5567690000000  0.4444890000000 1.0
C      1  0.6003960000000  0.4517900000000  0.5630420000000 1.0
C      1  0.4191720000000  0.5427380000000  0.5750870000000 1.0
C      1  0.5624590000000  0.5979370000000  0.4574820000000 1.0
C      1  0.5714880000000  0.4099660000000  0.5469810000000 1.0
C      1  0.4573600000000  0.6372960000000  0.5257440000000 1.0
C      1  0.4869350000000  0.4301430000000  0.6385170000000 1.0
C      1  0.4150460000000  0.4342290000000  0.5595330000000 1.0
C      1  0.4275380000000  0.4138630000000  0.5473780000000 1.0
C      1  0.5479790000000  0.5612710000000  0.5796250000000 1.0
C      1  0.5568470000000  0.4360340000000  0.4172250000000 1.0
C      1  0.4647620000000  0.5805670000000  0.4164550000000 1.0
C      1  0.6133300000000  0.5450400000000  0.5603810000000 1.0
C      1  0.5751290000000  0.4544090000000  0.4247500000000 1.0
C      1  0.3927020000000  0.5588320000000  0.4596960000000 1.0
C      1  0.5683980000000  0.6066600000000  0.5479710000000 1.0
C      1  0.5667600000000  0.4023910000000  0.4479130000000 1.0
C      1  0.4529290000000  0.5867950000000  0.4396090000000 1.0
C      1  0.4377100000000  0.6022920000000  0.5505620000000 1.0
C      1  0.5525320000000  0.4563370000000  0.5475690000000 1.0
C      1  0.4414300000000  0.5484920000000  0.4691180000000 1.0
C      1  0.5366470000000  0.4418930000000  0.4510340000000 1.0
C      1  0.5561350000000  0.5485160000000  0.4587460000000 1.0
C      1  0.4484180000000  0.4356850000000  0.6115630000000 1.0
C      1  0.4572230000000  0.4699480000000  0.4413160000000 1.0
C      1  0.5665560000000  0.5596040000000  0.5602520000000 1.0
END
