TITL C-2782237-5345-383 0.000334232917271709 125000 -921.455058001745 0 0 152 (C1) n - 1
REM
REM in /home/nfs/bkarasulu/CARBON/AIRSS/Generating-Clusters/REBO/Higher-Symm/SD-CG/HFTN-CG
REM
REM
REM
REM
REM
REM ./C.cell (12c818d87b63d06a65506943cc24bca4)
REM
REM compiler GCC version 9.2.1 20190827 (Red Hat 9.2.1-1)
REM options -cpp -mtune=generic -march=x86-64 -g -O0 -fpre-include=/usr/include/finclude/math-vector-fortran.h
REM seed -1461576797 -72922243 1077836997 1193578208 1294300083 36913658 523867549 -1198393152 2109835976 -2047792868 302182059 1059407521 -593672077 43674175 84349002 -1320785453 2071708484 2135059257 1321371233 -955437933 -758234816 -507902253 766222009 -689577943 935917405 -1043996367 -321492482 -858254751 1653954199 -1014122809 -390745918 -216546633 -303141633
REM
CELL 1.54180   50.00000   50.00000   50.00000   90.00000   90.00000   90.00000
LATT -1
SFAC C  
C      1  0.4102830000000  0.5146680000000  0.4841950000000 1.0
C      1  0.5183820000000  0.4974440000000  0.4056650000000 1.0
C      1  0.4840410000000  0.4049750000000  0.5234920000000 1.0
C      1  0.5915280000000  0.4812110000000  0.4841320000000 1.0
C      1  0.4075250000000  0.4751720000000  0.5185930000000 1.0
C      1  0.5946390000000  0.5105230000000  0.5130860000000 1.0
C      1  0.4900580000000  0.5251770000000  0.4091620000000 1.0
C      1  0.5120250000000  0.5159670000000  0.5940410000000 1.0
C      1  0.4765380000000  0.4789500000000  0.5943840000000 1.0
C      1  0.5183320000000  0.5907390000000  0.5041130000000 1.0
C      1  0.4884250000000  0.5917100000000  0.4777860000000 1.0
C      1  0.5166190000000  0.4102640000000  0.4842380000000 1.0
C      1  0.4076470000000  0.5065970000000  0.5164400000000 1.0
C      1  0.5064190000000  0.4839050000000  0.5904140000000 1.0
C      1  0.4856570000000  0.4072510000000  0.4923650000000 1.0
C      1  0.5960920000000  0.4781180000000  0.5178560000000 1.0
C      1  0.4091090000000  0.4821620000000  0.4851060000000 1.0
C      1  0.5922790000000  0.5121910000000  0.4805090000000 1.0
C      1  0.4792170000000  0.5133070000000  0.5948140000000 1.0
C      1  0.5220800000000  0.5312540000000  0.4081820000000 1.0
C      1  0.4860160000000  0.4913560000000  0.4079590000000 1.0
C      1  0.5225110000000  0.5929310000000  0.4728850000000 1.0
C      1  0.4870750000000  0.5903990000000  0.5109350000000 1.0
C      1  0.5172110000000  0.4102280000000  0.5166840000000 1.0
C      1  0.4409010000000  0.5742750000000  0.5171610000000 1.0
C      1  0.5868720000000  0.5109090000000  0.4412990000000 1.0
C      1  0.5094660000000  0.4433010000000  0.5836970000000 1.0
C      1  0.5673600000000  0.4247520000000  0.5114830000000 1.0
C      1  0.4373690000000  0.4167620000000  0.4874420000000 1.0
C      1  0.5713690000000  0.5832110000000  0.4874460000000 1.0
C      1  0.4145430000000  0.4878330000000  0.4345220000000 1.0
C      1  0.5814560000000  0.4861850000000  0.5663440000000 1.0
C      1  0.4208650000000  0.5104480000000  0.5635950000000 1.0
C      1  0.4883230000000  0.5662800000000  0.5827700000000 1.0
C      1  0.5090090000000  0.5690080000000  0.4048770000000 1.0
C      1  0.4836830000000  0.4398840000000  0.4217140000000 1.0
C      1  0.4365120000000  0.5832900000000  0.4902400000000 1.0
C      1  0.5783240000000  0.5138710000000  0.5605630000000 1.0
C      1  0.5135360000000  0.4446720000000  0.4203790000000 1.0
C      1  0.5631340000000  0.4253480000000  0.4831950000000 1.0
C      1  0.4326570000000  0.4077020000000  0.5143530000000 1.0
C      1  0.5632130000000  0.5752390000000  0.5137890000000 1.0
C      1  0.4160550000000  0.4826830000000  0.5691430000000 1.0
C      1  0.5857090000000  0.4833910000000  0.4420170000000 1.0
C      1  0.4175090000000  0.5154980000000  0.4371980000000 1.0
C      1  0.4823820000000  0.5642930000000  0.4105520000000 1.0
C      1  0.5156520000000  0.5619770000000  0.5756000000000 1.0
C      1  0.4820540000000  0.4397220000000  0.5888520000000 1.0
C      1  0.5361330000000  0.5677180000000  0.5137090000000 1.0
C      1  0.5720370000000  0.5176760000000  0.5333860000000 1.0
C      1  0.5196030000000  0.5346280000000  0.5705580000000 1.0
C      1  0.4552890000000  0.4157900000000  0.5327710000000 1.0
C      1  0.5367180000000  0.4322030000000  0.4757680000000 1.0
C      1  0.4598730000000  0.5771520000000  0.4718520000000 1.0
C      1  0.4206640000000  0.4647100000000  0.5469520000000 1.0
C      1  0.5661850000000  0.4682490000000  0.4654880000000 1.0
C      1  0.4336450000000  0.5272940000000  0.4638340000000 1.0
C      1  0.4537330000000  0.4562520000000  0.5824390000000 1.0
C      1  0.5178240000000  0.4724230000000  0.4259480000000 1.0
C      1  0.4763650000000  0.5415960000000  0.4345670000000 1.0
C      1  0.5497830000000  0.5808140000000  0.4660950000000 1.0
C      1  0.5661540000000  0.5255830000000  0.4644290000000 1.0
C      1  0.5358700000000  0.5583620000000  0.4234020000000 1.0
C      1  0.4633260000000  0.4271400000000  0.4850760000000 1.0
C      1  0.5444500000000  0.4250720000000  0.5287730000000 1.0
C      1  0.4680460000000  0.5674740000000  0.5200510000000 1.0
C      1  0.4193700000000  0.4699660000000  0.4578980000000 1.0
C      1  0.5799550000000  0.4625410000000  0.5435880000000 1.0
C      1  0.4289010000000  0.5145940000000  0.5370420000000 1.0
C      1  0.4782090000000  0.4679970000000  0.4280180000000 1.0
C      1  0.5181960000000  0.4670110000000  0.5652020000000 1.0
C      1  0.4695640000000  0.5424740000000  0.5801960000000 1.0
C      1  0.4601740000000  0.5160560000000  0.4726970000000 1.0
C      1  0.5094650000000  0.4788490000000  0.4545820000000 1.0
C      1  0.4877450000000  0.4629940000000  0.5104340000000 1.0
C      1  0.5464640000000  0.4847550000000  0.4861000000000 1.0
C      1  0.4617730000000  0.4848380000000  0.5108260000000 1.0
C      1  0.5437060000000  0.5145340000000  0.5270210000000 1.0
C      1  0.4872250000000  0.5264860000000  0.4578520000000 1.0
C      1  0.5166250000000  0.5267530000000  0.5424300000000 1.0
C      1  0.4867910000000  0.4878190000000  0.5331790000000 1.0
C      1  0.5275070000000  0.5394310000000  0.5134320000000 1.0
C      1  0.4827900000000  0.5337190000000  0.4895290000000 1.0
C      1  0.5263880000000  0.4610520000000  0.4744380000000 1.0
C      1  0.4564430000000  0.5128970000000  0.5274450000000 1.0
C      1  0.5152430000000  0.4737000000000  0.5372030000000 1.0
C      1  0.4703950000000  0.4555570000000  0.4850570000000 1.0
C      1  0.5382870000000  0.4873900000000  0.5173350000000 1.0
C      1  0.4600390000000  0.4878190000000  0.4793410000000 1.0
C      1  0.5413780000000  0.5127360000000  0.4739040000000 1.0
C      1  0.4887570000000  0.5185140000000  0.5377360000000 1.0
C      1  0.5129420000000  0.5084070000000  0.4596650000000 1.0
C      1  0.4791640000000  0.4720990000000  0.4581350000000 1.0
C      1  0.5148480000000  0.5291320000000  0.4872700000000 1.0
C      1  0.4740590000000  0.5388890000000  0.5166910000000 1.0
C      1  0.5184540000000  0.4633930000000  0.5047770000000 1.0
C      1  0.5978230000000  0.5441900000000  0.5196140000000 1.0
C      1  0.5461080000000  0.5183650000000  0.5948730000000 1.0
C      1  0.5161420000000  0.5916550000000  0.5382330000000 1.0
C      1  0.4009030000000  0.4434400000000  0.5183640000000 1.0
C      1  0.6023870000000  0.4507830000000  0.4728590000000 1.0
C      1  0.4059680000000  0.5470230000000  0.4847830000000 1.0
C      1  0.4485070000000  0.4900320000000  0.6054270000000 1.0
C      1  0.5505880000000  0.4875610000000  0.4093240000000 1.0
C      1  0.4567510000000  0.5182680000000  0.4087500000000 1.0
C      1  0.4850370000000  0.4040210000000  0.5563510000000 1.0
C      1  0.5163830000000  0.4090910000000  0.4507270000000 1.0
C      1  0.4800490000000  0.5986490000000  0.4453630000000 1.0
C      1  0.5966900000000  0.5422510000000  0.4888270000000 1.0
C      1  0.5521620000000  0.5181330000000  0.4089930000000 1.0
C      1  0.5098080000000  0.6006030000000  0.4452520000000 1.0
C      1  0.4039830000000  0.4494720000000  0.4883620000000 1.0
C      1  0.6092020000000  0.4506960000000  0.5024080000000 1.0
C      1  0.4082820000000  0.5402350000000  0.5148700000000 1.0
C      1  0.4525400000000  0.4876680000000  0.4057020000000 1.0
C      1  0.5400810000000  0.4880110000000  0.5906900000000 1.0
C      1  0.4464340000000  0.5195620000000  0.6024140000000 1.0
C      1  0.4863210000000  0.4096210000000  0.4582390000000 1.0
C      1  0.5139220000000  0.4095500000000  0.5493920000000 1.0
C      1  0.4851850000000  0.5936660000000  0.5442640000000 1.0
C      1  0.5644580000000  0.4698170000000  0.4256600000000 1.0
C      1  0.4677040000000  0.4210000000000  0.5703190000000 1.0
C      1  0.4219730000000  0.5649170000000  0.4707640000000 1.0
C      1  0.4382580000000  0.5325330000000  0.4244710000000 1.0
C      1  0.5626510000000  0.5331980000000  0.5758280000000 1.0
C      1  0.4281450000000  0.4728050000000  0.5929220000000 1.0
C      1  0.5331400000000  0.5760200000000  0.5569030000000 1.0
C      1  0.4653690000000  0.5797250000000  0.4301340000000 1.0
C      1  0.5310110000000  0.4282120000000  0.4359830000000 1.0
C      1  0.5832490000000  0.4324580000000  0.4629240000000 1.0
C      1  0.4169610000000  0.4259100000000  0.5330090000000 1.0
C      1  0.5778340000000  0.5603570000000  0.5335790000000 1.0
C      1  0.5567060000000  0.4719640000000  0.5746410000000 1.0
C      1  0.4678510000000  0.4263550000000  0.4426500000000 1.0
C      1  0.4251660000000  0.5557610000000  0.5327230000000 1.0
C      1  0.4316740000000  0.5303120000000  0.5806890000000 1.0
C      1  0.5715690000000  0.5304550000000  0.4251690000000 1.0
C      1  0.4372230000000  0.4701390000000  0.4227430000000 1.0
C      1  0.5235420000000  0.5896470000000  0.4234550000000 1.0
C      1  0.4692620000000  0.5773810000000  0.5614450000000 1.0
C      1  0.5274620000000  0.4282860000000  0.5647960000000 1.0
C      1  0.5893670000000  0.4392290000000  0.5219730000000 1.0
C      1  0.4203800000000  0.4330000000000  0.4717850000000 1.0
C      1  0.5844180000000  0.5610260000000  0.4716880000000 1.0
C      1  0.4468160000000  0.5564770000000  0.4476210000000 1.0
C      1  0.5574470000000  0.4432940000000  0.4434890000000 1.0
C      1  0.4414990000000  0.4385260000000  0.5550250000000 1.0
C      1  0.4436810000000  0.5545020000000  0.5612670000000 1.0
C      1  0.5518330000000  0.4460690000000  0.5542130000000 1.0
C      1  0.5605990000000  0.5548840000000  0.4465230000000 1.0
C      1  0.5599480000000  0.5586460000000  0.5580530000000 1.0
C      1  0.4393920000000  0.4448930000000  0.4460530000000 1.0
END
