TITL C-2782238-9940-319 6.70570448964904e-08 125000 -152.296066918944 0 0 27 (C3) n - 1
REM
REM in /home/nfs/bkarasulu/CARBON/AIRSS/Generating-Clusters/REBO/Higher-Symm/SD-CG/HFTN-CG
REM
REM
REM
REM
REM
REM ./C.cell (12c818d87b63d06a65506943cc24bca4)
REM
REM compiler GCC version 9.2.1 20190827 (Red Hat 9.2.1-1)
REM options -cpp -mtune=generic -march=x86-64 -g -O0 -fpre-include=/usr/include/finclude/math-vector-fortran.h
REM seed 763955922 890778468 -227029449 -1225071778 -579809304 -263678876 587994586 1902964544 -103735391 997902381 1482577667 1163606751 741809722 47304554 -2118756963 1497540386 -1991953172 -1174474072 -1382034785 -1418230588 1592858643 -1147387899 -629459859 995097315 -2137864797 1687384101 16558911 -141616393 -485879389 -1180702893 -459372985 925656615 1147097551
REM
CELL 1.54180   50.00000   50.00000   50.00000   90.00000   90.00000   90.00000
LATT -1
SFAC C  
C      1  0.5579960000000  0.4641250000000  0.4745140000000 1.0
C      1  0.4400850000000  0.4675490000000  0.4743650000000 1.0
C      1  0.5020060000000  0.5679500000000  0.4739450000000 1.0
C      1  0.5295780000000  0.5583250000000  0.5443770000000 1.0
C      1  0.5354590000000  0.4455060000000  0.5449340000000 1.0
C      1  0.4348140000000  0.4968220000000  0.5445710000000 1.0
C      1  0.5255480000000  0.5568710000000  0.4846790000000 1.0
C      1  0.5365670000000  0.4493440000000  0.4852160000000 1.0
C      1  0.4379350000000  0.4935640000000  0.4848900000000 1.0
C      1  0.5772260000000  0.4526010000000  0.4591200000000 1.0
C      1  0.4205800000000  0.4565590000000  0.4589250000000 1.0
C      1  0.5023310000000  0.5902380000000  0.4583650000000 1.0
C      1  0.5276950000000  0.5362090000000  0.5285690000000 1.0
C      1  0.5173410000000  0.4580940000000  0.5289380000000 1.0
C      1  0.4548680000000  0.5061170000000  0.5286340000000 1.0
C      1  0.5127600000000  0.5137360000000  0.5363710000000 1.0
C      1  0.5053010000000  0.4823130000000  0.5365160000000 1.0
C      1  0.4818170000000  0.5044840000000  0.5363820000000 1.0
C      1  0.4636430000000  0.4537030000000  0.4808350000000 1.0
C      1  0.4781980000000  0.5545120000000  0.4803600000000 1.0
C      1  0.5582240000000  0.4915030000000  0.4807560000000 1.0
C      1  0.4879930000000  0.4483830000000  0.4905020000000 1.0
C      1  0.4613590000000  0.5361450000000  0.4900450000000 1.0
C      1  0.5506810000000  0.5153300000000  0.4902460000000 1.0
C      1  0.4493360000000  0.5134560000000  0.5011920000000 1.0
C      1  0.5369780000000  0.5371560000000  0.5011740000000 1.0
C      1  0.5136820000000  0.4494070000000  0.5015760000000 1.0
END
