TITL C-2782225-7408-150 -0.00661840210469994 125000 -847.862551496719 0 0 142 (C1) n - 1
REM
REM in /home/nfs/bkarasulu/CARBON/AIRSS/Generating-Clusters/REBO/Higher-Symm/SD-CG/HFTN-CG
REM
REM
REM
REM
REM
REM ./C.cell (12c818d87b63d06a65506943cc24bca4)
REM
REM compiler GCC version 9.2.1 20190827 (Red Hat 9.2.1-1)
REM options -cpp -mtune=generic -march=x86-64 -g -O0 -fpre-include=/usr/include/finclude/math-vector-fortran.h
REM seed -1965235666 -1210937374 -1716872623 1765809567 1650124322 2135861118 137915519 1990189562 -1017769260 -817997029 1078177413 1021930544 1075758057 1512143028 -370498953 749870449 470947742 -802177006 -1162203637 -113374776 -1361742219 -400347306 -435786026 1621778959 -1655059774 -833969715 1356277969 -1373450506 1365747633 -1689242436 -1747195706 1439310817 -1481580601
REM
CELL 1.54180   50.00000   50.00000   50.00000   90.00000   90.00000   90.00000
LATT -1
SFAC C  
C      1  0.5456150000000  0.5529720000000  0.4630930000000 1.0
C      1  0.5046470000000  0.5707070000000  0.5364900000000 1.0
C      1  0.4652040000000  0.5572740000000  0.4618710000000 1.0
C      1  0.4354600000000  0.5278250000000  0.5379190000000 1.0
C      1  0.4299910000000  0.4842240000000  0.4636360000000 1.0
C      1  0.4529670000000  0.4486400000000  0.5367990000000 1.0
C      1  0.4891380000000  0.4326310000000  0.4585950000000 1.0
C      1  0.5354430000000  0.4407490000000  0.5387500000000 1.0
C      1  0.5654250000000  0.4741340000000  0.4635130000000 1.0
C      1  0.5665820000000  0.5155420000000  0.5395740000000 1.0
C      1  0.5123770000000  0.5528100000000  0.4671250000000 1.0
C      1  0.4773490000000  0.5527260000000  0.5326880000000 1.0
C      1  0.4533730000000  0.5272770000000  0.4690310000000 1.0
C      1  0.4430760000000  0.4957190000000  0.5319140000000 1.0
C      1  0.4549880000000  0.4615490000000  0.4613940000000 1.0
C      1  0.4868050000000  0.4444700000000  0.5344300000000 1.0
C      1  0.5196370000000  0.4469330000000  0.4641990000000 1.0
C      1  0.5483040000000  0.4722490000000  0.5362210000000 1.0
C      1  0.5569200000000  0.5054400000000  0.4691380000000 1.0
C      1  0.5423200000000  0.5377530000000  0.5330060000000 1.0
C      1  0.4749370000000  0.5039650000000  0.5690910000000 1.0
C      1  0.4770560000000  0.4883430000000  0.4356960000000 1.0
C      1  0.4855300000000  0.4730650000000  0.5686680000000 1.0
C      1  0.5042860000000  0.4721710000000  0.4281020000000 1.0
C      1  0.5193680000000  0.4762000000000  0.5697550000000 1.0
C      1  0.5320020000000  0.4917510000000  0.4303680000000 1.0
C      1  0.5282990000000  0.5087930000000  0.5735830000000 1.0
C      1  0.5175370000000  0.5226460000000  0.4290960000000 1.0
C      1  0.5017330000000  0.5247690000000  0.5666190000000 1.0
C      1  0.4838740000000  0.5188660000000  0.4253150000000 1.0
C      1  0.5335070000000  0.5669380000000  0.5756130000000 1.0
C      1  0.4940420000000  0.5564800000000  0.4178910000000 1.0
C      1  0.4605810000000  0.5390000000000  0.5809070000000 1.0
C      1  0.4312560000000  0.5164960000000  0.4257260000000 1.0
C      1  0.4472740000000  0.4720610000000  0.5793440000000 1.0
C      1  0.4735560000000  0.4575740000000  0.4074430000000 1.0
C      1  0.5081370000000  0.4400010000000  0.5815410000000 1.0
C      1  0.5470620000000  0.4561790000000  0.4200410000000 1.0
C      1  0.5589650000000  0.4866030000000  0.5852210000000 1.0
C      1  0.5558650000000  0.5296390000000  0.4213550000000 1.0
C      1  0.4981910000000  0.5506130000000  0.5848420000000 1.0
C      1  0.4617540000000  0.5356150000000  0.4088830000000 1.0
C      1  0.4486590000000  0.5103320000000  0.5897640000000 1.0
C      1  0.4472980000000  0.4803120000000  0.4261860000000 1.0
C      1  0.4699110000000  0.4496240000000  0.5874080000000 1.0
C      1  0.5105840000000  0.4446200000000  0.4100060000000 1.0
C      1  0.5356010000000  0.4550490000000  0.5908690000000 1.0
C      1  0.5607730000000  0.4915290000000  0.4119550000000 1.0
C      1  0.5490320000000  0.5251860000000  0.5881510000000 1.0
C      1  0.5315710000000  0.5473190000000  0.4099650000000 1.0
C      1  0.5137870000000  0.5926270000000  0.4642090000000 1.0
C      1  0.4552940000000  0.5860210000000  0.5324940000000 1.0
C      1  0.4172270000000  0.5436140000000  0.4642940000000 1.0
C      1  0.4041700000000  0.4876510000000  0.5359760000000 1.0
C      1  0.4225480000000  0.4325170000000  0.4698360000000 1.0
C      1  0.4766200000000  0.4060710000000  0.5296590000000 1.0
C      1  0.5338080000000  0.4097520000000  0.4670310000000 1.0
C      1  0.5837930000000  0.4542670000000  0.5333630000000 1.0
C      1  0.5956240000000  0.5151750000000  0.4683930000000 1.0
C      1  0.5677290000000  0.5684460000000  0.5347750000000 1.0
C      1  0.4707110000000  0.4490140000000  0.4368490000000 1.0
C      1  0.5070260000000  0.4388520000000  0.5529730000000 1.0
C      1  0.5450100000000  0.4553170000000  0.4474050000000 1.0
C      1  0.5589870000000  0.4902710000000  0.5558990000000 1.0
C      1  0.5557600000000  0.5269380000000  0.4498290000000 1.0
C      1  0.5291220000000  0.5574290000000  0.5491750000000 1.0
C      1  0.4922610000000  0.5570000000000  0.4471230000000 1.0
C      1  0.4582950000000  0.5437930000000  0.5524470000000 1.0
C      1  0.4377580000000  0.5115980000000  0.4520500000000 1.0
C      1  0.4447410000000  0.4746990000000  0.5510800000000 1.0
C      1  0.5415090000000  0.4253080000000  0.4894300000000 1.0
C      1  0.5781910000000  0.4721180000000  0.5099590000000 1.0
C      1  0.5819970000000  0.5259920000000  0.4923070000000 1.0
C      1  0.5509050000000  0.5694570000000  0.5103620000000 1.0
C      1  0.5003320000000  0.5841590000000  0.4886980000000 1.0
C      1  0.4502230000000  0.5693970000000  0.5086600000000 1.0
C      1  0.4192260000000  0.5281410000000  0.4896660000000 1.0
C      1  0.4151440000000  0.4763350000000  0.5111570000000 1.0
C      1  0.4411720000000  0.4346140000000  0.4907420000000 1.0
C      1  0.4912380000000  0.4154260000000  0.5074930000000 1.0
C      1  0.4371180000000  0.5559670000000  0.4467130000000 1.0
C      1  0.4127070000000  0.5093660000000  0.5535150000000 1.0
C      1  0.4161110000000  0.4550180000000  0.4547390000000 1.0
C      1  0.4596380000000  0.4193810000000  0.5488510000000 1.0
C      1  0.5120240000000  0.4118060000000  0.4476270000000 1.0
C      1  0.5654510000000  0.4401610000000  0.5519100000000 1.0
C      1  0.5898960000000  0.4921250000000  0.4514760000000 1.0
C      1  0.5771730000000  0.5460320000000  0.5503370000000 1.0
C      1  0.5341350000000  0.5799810000000  0.4479940000000 1.0
C      1  0.4787750000000  0.5888390000000  0.5491040000000 1.0
C      1  0.5398130000000  0.4833160000000  0.5106300000000 1.0
C      1  0.5432220000000  0.5076680000000  0.4946500000000 1.0
C      1  0.5320280000000  0.5320530000000  0.5062450000000 1.0
C      1  0.5071480000000  0.5427840000000  0.4936110000000 1.0
C      1  0.4802450000000  0.5393860000000  0.5066210000000 1.0
C      1  0.4622970000000  0.5193420000000  0.4946930000000 1.0
C      1  0.4558530000000  0.4929420000000  0.5061700000000 1.0
C      1  0.4675990000000  0.4643320000000  0.4929010000000 1.0
C      1  0.4952160000000  0.4550710000000  0.5078720000000 1.0
C      1  0.5237040000000  0.4604760000000  0.4948830000000 1.0
C      1  0.5323390000000  0.4855960000000  0.6056510000000 1.0
C      1  0.5408860000000  0.5110680000000  0.3969480000000 1.0
C      1  0.5384010000000  0.5500410000000  0.5967600000000 1.0
C      1  0.5042630000000  0.5339170000000  0.3944940000000 1.0
C      1  0.4838130000000  0.5250400000000  0.6018240000000 1.0
C      1  0.4539820000000  0.5043510000000  0.4030930000000 1.0
C      1  0.4668360000000  0.4859790000000  0.6034970000000 1.0
C      1  0.4788670000000  0.4839390000000  0.3962100000000 1.0
C      1  0.4957920000000  0.4612200000000  0.6050800000000 1.0
C      1  0.5272460000000  0.4711510000000  0.3967720000000 1.0
C      1  0.4782190000000  0.5130930000000  0.5365930000000 1.0
C      1  0.4770330000000  0.4934870000000  0.4682100000000 1.0
C      1  0.4806420000000  0.4832960000000  0.5357990000000 1.0
C      1  0.4971600000000  0.4715900000000  0.4672330000000 1.0
C      1  0.5093700000000  0.4773620000000  0.5374010000000 1.0
C      1  0.5232820000000  0.4858250000000  0.4619410000000 1.0
C      1  0.5241470000000  0.5034570000000  0.5413640000000 1.0
C      1  0.5192680000000  0.5145140000000  0.4604680000000 1.0
C      1  0.5049280000000  0.5246110000000  0.5340920000000 1.0
C      1  0.4903590000000  0.5186350000000  0.4578940000000 1.0
C      1  0.4642240000000  0.4215600000000  0.5760000000000 1.0
C      1  0.5149970000000  0.4183470000000  0.4197900000000 1.0
C      1  0.5623850000000  0.4432580000000  0.5794500000000 1.0
C      1  0.5866940000000  0.4929870000000  0.4231610000000 1.0
C      1  0.5746680000000  0.5294110000000  0.5760510000000 1.0
C      1  0.5323300000000  0.5761830000000  0.4207840000000 1.0
C      1  0.4902850000000  0.5750470000000  0.5735560000000 1.0
C      1  0.4436730000000  0.5537810000000  0.4187810000000 1.0
C      1  0.4195780000000  0.5060760000000  0.5800570000000 1.0
C      1  0.4264510000000  0.4644040000000  0.4290930000000 1.0
C      1  0.4709250000000  0.5733350000000  0.4877140000000 1.0
C      1  0.4327480000000  0.5435080000000  0.5108910000000 1.0
C      1  0.4190870000000  0.4968220000000  0.4901590000000 1.0
C      1  0.4342430000000  0.4521230000000  0.5119780000000 1.0
C      1  0.4735960000000  0.4306520000000  0.4853220000000 1.0
C      1  0.5205620000000  0.4266740000000  0.5120810000000 1.0
C      1  0.5575460000000  0.4554290000000  0.4886180000000 1.0
C      1  0.5785790000000  0.5042920000000  0.5128840000000 1.0
C      1  0.5622830000000  0.5518960000000  0.4894200000000 1.0
C      1  0.5196440000000  0.5771100000000  0.5098860000000 1.0
C      1  0.4995540000000  0.4951020000000  0.6068230000000 1.0
C      1  0.5088240000000  0.4999350000000  0.3935110000000 1.0
END
