TITL C-2782229-3092-472 -0.000224576987568979 125000 -1133.96650812632 0 0 194 (C1) n - 1
REM
REM in /home/nfs/bkarasulu/CARBON/AIRSS/Generating-Clusters/REBO/Higher-Symm/SD-CG/HFTN-CG
REM
REM
REM
REM
REM
REM ./C.cell (12c818d87b63d06a65506943cc24bca4)
REM
REM compiler GCC version 9.2.1 20190827 (Red Hat 9.2.1-1)
REM options -cpp -mtune=generic -march=x86-64 -g -O0 -fpre-include=/usr/include/finclude/math-vector-fortran.h
REM seed -1496384193 443491362 94081895 878708432 -1635524887 -650211094 -1421094342 -2036478712 -999501267 1441363338 751940887 1555753855 -603120603 72735191 -463274340 -1235818081 -827078009 -940475057 486383735 137132542 -1417632095 1644377711 -807171216 -445260706 -1645629434 1324571565 -1311381745 1753011511 279228886 624875625 427154426 1336139758 932598698
REM
CELL 1.54180   50.00000   50.00000   50.00000   90.00000   90.00000   90.00000
LATT -1
SFAC C  
C      1  0.5522400000000  0.5671020000000  0.4792050000000 1.0
C      1  0.5074070000000  0.4016130000000  0.4954400000000 1.0
C      1  0.4768060000000  0.5652730000000  0.5000930000000 1.0
C      1  0.5678210000000  0.5212420000000  0.4070490000000 1.0
C      1  0.4336650000000  0.5130120000000  0.5864970000000 1.0
C      1  0.5515120000000  0.4152160000000  0.4275650000000 1.0
C      1  0.5280880000000  0.5498960000000  0.5936330000000 1.0
C      1  0.4653440000000  0.4892250000000  0.5813690000000 1.0
C      1  0.6021120000000  0.4973880000000  0.5233170000000 1.0
C      1  0.4251140000000  0.5313840000000  0.5607000000000 1.0
C      1  0.4928120000000  0.5593390000000  0.4000740000000 1.0
C      1  0.5085450000000  0.4722560000000  0.4597630000000 1.0
C      1  0.5091770000000  0.4070100000000  0.5267950000000 1.0
C      1  0.4014150000000  0.4241690000000  0.5285460000000 1.0
C      1  0.4996260000000  0.4107430000000  0.5654040000000 1.0
C      1  0.4831550000000  0.4610320000000  0.4660390000000 1.0
C      1  0.5158970000000  0.4819560000000  0.5666640000000 1.0
C      1  0.5525450000000  0.3886920000000  0.4998640000000 1.0
C      1  0.5253840000000  0.4544880000000  0.4436860000000 1.0
C      1  0.4542910000000  0.5391310000000  0.4092780000000 1.0
C      1  0.5997270000000  0.4398470000000  0.4656630000000 1.0
C      1  0.4200580000000  0.4396350000000  0.5726430000000 1.0
C      1  0.5193400000000  0.5006420000000  0.4633540000000 1.0
C      1  0.4741940000000  0.5503100000000  0.5865660000000 1.0
C      1  0.5456150000000  0.4964260000000  0.4762420000000 1.0
C      1  0.4201910000000  0.4562600000000  0.4667890000000 1.0
C      1  0.5796500000000  0.4581290000000  0.4492080000000 1.0
C      1  0.5077560000000  0.4319000000000  0.4841010000000 1.0
C      1  0.4399930000000  0.5077400000000  0.4113600000000 1.0
C      1  0.4877390000000  0.5990870000000  0.5442770000000 1.0
C      1  0.4540070000000  0.4303010000000  0.4399000000000 1.0
C      1  0.5379450000000  0.4452150000000  0.4812700000000 1.0
C      1  0.5196630000000  0.5324980000000  0.4124240000000 1.0
C      1  0.5981500000000  0.4753610000000  0.5562080000000 1.0
C      1  0.5349290000000  0.4247320000000  0.4558000000000 1.0
C      1  0.5572520000000  0.4687030000000  0.4727830000000 1.0
C      1  0.4819690000000  0.3924260000000  0.5154460000000 1.0
C      1  0.4611530000000  0.4303280000000  0.5475070000000 1.0
C      1  0.3930700000000  0.5318910000000  0.4642050000000 1.0
C      1  0.4558280000000  0.5318640000000  0.4950040000000 1.0
C      1  0.6080540000000  0.5037670000000  0.4523530000000 1.0
C      1  0.5752320000000  0.5469580000000  0.5660380000000 1.0
C      1  0.4359490000000  0.5959290000000  0.5090200000000 1.0
C      1  0.5232260000000  0.4858290000000  0.4167730000000 1.0
C      1  0.4910410000000  0.5035380000000  0.5653530000000 1.0
C      1  0.5875930000000  0.5725980000000  0.4617050000000 1.0
C      1  0.4257740000000  0.4233010000000  0.4730460000000 1.0
C      1  0.5799560000000  0.4328790000000  0.5115310000000 1.0
C      1  0.4580850000000  0.5622150000000  0.5645880000000 1.0
C      1  0.4344020000000  0.4527250000000  0.4363450000000 1.0
C      1  0.5911670000000  0.4832030000000  0.4343810000000 1.0
C      1  0.4945760000000  0.4436540000000  0.4048430000000 1.0
C      1  0.3994660000000  0.4887560000000  0.5511800000000 1.0
C      1  0.5544880000000  0.5754270000000  0.4167370000000 1.0
C      1  0.3916010000000  0.4772510000000  0.5016730000000 1.0
C      1  0.4472440000000  0.5727460000000  0.4505530000000 1.0
C      1  0.4922290000000  0.5513890000000  0.5260770000000 1.0
C      1  0.5489310000000  0.4422220000000  0.5890570000000 1.0
C      1  0.4326050000000  0.5377390000000  0.4630540000000 1.0
C      1  0.6073890000000  0.5245980000000  0.4693830000000 1.0
C      1  0.5841500000000  0.4699400000000  0.4868800000000 1.0
C      1  0.6047060000000  0.4319700000000  0.4912860000000 1.0
C      1  0.4763320000000  0.4583780000000  0.5715720000000 1.0
C      1  0.5002870000000  0.4755920000000  0.3949020000000 1.0
C      1  0.4753240000000  0.4800550000000  0.5238150000000 1.0
C      1  0.4280510000000  0.5419780000000  0.5073620000000 1.0
C      1  0.4699530000000  0.4643560000000  0.4003260000000 1.0
C      1  0.4466340000000  0.4744150000000  0.4143530000000 1.0
C      1  0.4751330000000  0.4030370000000  0.5471230000000 1.0
C      1  0.5198890000000  0.5754350000000  0.5418390000000 1.0
C      1  0.4683450000000  0.5938670000000  0.4398580000000 1.0
C      1  0.4651090000000  0.5710160000000  0.4148390000000 1.0
C      1  0.6145430000000  0.5054000000000  0.5509370000000 1.0
C      1  0.4343410000000  0.4857170000000  0.4442370000000 1.0
C      1  0.5252640000000  0.4058580000000  0.5514830000000 1.0
C      1  0.5647390000000  0.5488860000000  0.4566620000000 1.0
C      1  0.4941280000000  0.4547360000000  0.6063690000000 1.0
C      1  0.5440230000000  0.4741810000000  0.5821340000000 1.0
C      1  0.4958870000000  0.5450550000000  0.4556530000000 1.0
C      1  0.5420670000000  0.5870560000000  0.5630720000000 1.0
C      1  0.5755940000000  0.4998070000000  0.5529360000000 1.0
C      1  0.5232440000000  0.5221560000000  0.6015470000000 1.0
C      1  0.4471290000000  0.4794390000000  0.5094800000000 1.0
C      1  0.5640760000000  0.4055130000000  0.5212470000000 1.0
C      1  0.4280090000000  0.5529130000000  0.4328860000000 1.0
C      1  0.4791730000000  0.4384780000000  0.4481380000000 1.0
C      1  0.3901900000000  0.5266010000000  0.5430070000000 1.0
C      1  0.4373140000000  0.4884750000000  0.5632040000000 1.0
C      1  0.4893070000000  0.4329780000000  0.5116770000000 1.0
C      1  0.4265350000000  0.4379110000000  0.5136440000000 1.0
C      1  0.4555790000000  0.3774880000000  0.5414450000000 1.0
C      1  0.4384220000000  0.4831070000000  0.4779530000000 1.0
C      1  0.4580590000000  0.4742230000000  0.6085620000000 1.0
C      1  0.4280560000000  0.4913030000000  0.5306060000000 1.0
C      1  0.5559600000000  0.4477560000000  0.4310140000000 1.0
C      1  0.4096410000000  0.5492820000000  0.4840570000000 1.0
C      1  0.5762500000000  0.4932980000000  0.4052820000000 1.0
C      1  0.4682430000000  0.4599640000000  0.4903680000000 1.0
C      1  0.4482910000000  0.5664650000000  0.5134840000000 1.0
C      1  0.4827100000000  0.5092930000000  0.5357130000000 1.0
C      1  0.4702080000000  0.5724450000000  0.5385530000000 1.0
C      1  0.4939710000000  0.4160780000000  0.4606980000000 1.0
C      1  0.5631640000000  0.4295090000000  0.5658030000000 1.0
C      1  0.4770120000000  0.5300670000000  0.4329270000000 1.0
C      1  0.4960840000000  0.5888070000000  0.5128750000000 1.0
C      1  0.6035310000000  0.5283320000000  0.5628510000000 1.0
C      1  0.5433570000000  0.5060260000000  0.5505190000000 1.0
C      1  0.4757270000000  0.6089670000000  0.4655310000000 1.0
C      1  0.5249220000000  0.5633500000000  0.4070480000000 1.0
C      1  0.4844520000000  0.5306010000000  0.3936060000000 1.0
C      1  0.5510340000000  0.5626840000000  0.5807730000000 1.0
C      1  0.5955470000000  0.5467070000000  0.4820230000000 1.0
C      1  0.3988590000000  0.4796250000000  0.4747640000000 1.0
C      1  0.5380470000000  0.5335040000000  0.5374870000000 1.0
C      1  0.5009970000000  0.5973690000000  0.4742050000000 1.0
C      1  0.4138160000000  0.4641140000000  0.5648590000000 1.0
C      1  0.4614090000000  0.4429880000000  0.6006110000000 1.0
C      1  0.5635770000000  0.5532980000000  0.5357420000000 1.0
C      1  0.5269640000000  0.5921770000000  0.4256420000000 1.0
C      1  0.3899410000000  0.4994220000000  0.5216060000000 1.0
C      1  0.5061700000000  0.5384390000000  0.4978860000000 1.0
C      1  0.4804230000000  0.5083230000000  0.4589750000000 1.0
C      1  0.4450030000000  0.5426160000000  0.5467170000000 1.0
C      1  0.5528410000000  0.4099500000000  0.5481050000000 1.0
C      1  0.4645860000000  0.5481320000000  0.4663760000000 1.0
C      1  0.5669540000000  0.4619130000000  0.5597300000000 1.0
C      1  0.5253280000000  0.5767220000000  0.5112880000000 1.0
C      1  0.5108580000000  0.4321900000000  0.4246630000000 1.0
C      1  0.4949620000000  0.4319690000000  0.5830760000000 1.0
C      1  0.4649590000000  0.3782970000000  0.4935480000000 1.0
C      1  0.3969490000000  0.4519430000000  0.5123890000000 1.0
C      1  0.5374060000000  0.5472330000000  0.4993570000000 1.0
C      1  0.4563320000000  0.4396520000000  0.5150230000000 1.0
C      1  0.4727970000000  0.5041380000000  0.4099000000000 1.0
C      1  0.4954920000000  0.5863420000000  0.4208470000000 1.0
C      1  0.5816400000000  0.5499440000000  0.5068750000000 1.0
C      1  0.4162410000000  0.5210370000000  0.5231160000000 1.0
C      1  0.4516940000000  0.5105400000000  0.4703050000000 1.0
C      1  0.5507730000000  0.5313720000000  0.4346140000000 1.0
C      1  0.5299030000000  0.3843100000000  0.4840320000000 1.0
C      1  0.5441550000000  0.5043910000000  0.5928880000000 1.0
C      1  0.5649820000000  0.5187730000000  0.5752560000000 1.0
C      1  0.4036660000000  0.5342600000000  0.4358720000000 1.0
C      1  0.5254200000000  0.4819930000000  0.5352230000000 1.0
C      1  0.5460100000000  0.5990120000000  0.5024800000000 1.0
C      1  0.4269620000000  0.5899470000000  0.4675460000000 1.0
C      1  0.6124020000000  0.4530010000000  0.5350560000000 1.0
C      1  0.3996550000000  0.5572710000000  0.5317830000000 1.0
C      1  0.4800620000000  0.4572520000000  0.5418420000000 1.0
C      1  0.4937410000000  0.4943390000000  0.4309320000000 1.0
C      1  0.5062040000000  0.3852410000000  0.4592950000000 1.0
C      1  0.4109400000000  0.5771050000000  0.5223700000000 1.0
C      1  0.4727300000000  0.3902200000000  0.4666320000000 1.0
C      1  0.4503450000000  0.3679520000000  0.5160910000000 1.0
C      1  0.5118280000000  0.5464320000000  0.5493800000000 1.0
C      1  0.5547520000000  0.5190160000000  0.4994750000000 1.0
C      1  0.5691400000000  0.5034090000000  0.5200720000000 1.0
C      1  0.5778930000000  0.5760340000000  0.4305330000000 1.0
C      1  0.5190790000000  0.5256460000000  0.4444040000000 1.0
C      1  0.4981830000000  0.5328380000000  0.5726490000000 1.0
C      1  0.6223080000000  0.4355050000000  0.5157710000000 1.0
C      1  0.5209220000000  0.4017320000000  0.4350220000000 1.0
C      1  0.5733160000000  0.5936190000000  0.4828570000000 1.0
C      1  0.4081390000000  0.5795230000000  0.4806090000000 1.0
C      1  0.4969420000000  0.5688490000000  0.4767160000000 1.0
C      1  0.5556250000000  0.4738710000000  0.5305730000000 1.0
C      1  0.5676810000000  0.5201890000000  0.4689220000000 1.0
C      1  0.5367140000000  0.6103520000000  0.4492030000000 1.0
C      1  0.5128050000000  0.5175050000000  0.5221120000000 1.0
C      1  0.5649240000000  0.5020100000000  0.4419950000000 1.0
C      1  0.4600940000000  0.5282380000000  0.5268570000000 1.0
C      1  0.4965010000000  0.5088250000000  0.6045440000000 1.0
C      1  0.4673510000000  0.6064180000000  0.5177820000000 1.0
C      1  0.5085330000000  0.5915380000000  0.5684370000000 1.0
C      1  0.5336130000000  0.4406940000000  0.5312380000000 1.0
C      1  0.5569840000000  0.5869950000000  0.5331050000000 1.0
C      1  0.4460200000000  0.4096120000000  0.4581570000000 1.0
C      1  0.4017310000000  0.5127760000000  0.5722490000000 1.0
C      1  0.4462020000000  0.4325600000000  0.5745380000000 1.0
C      1  0.5093170000000  0.5079920000000  0.3946360000000 1.0
C      1  0.5507820000000  0.4784410000000  0.4225860000000 1.0
C      1  0.4562090000000  0.6119310000000  0.4866820000000 1.0
C      1  0.4130740000000  0.5053560000000  0.4283880000000 1.0
C      1  0.5011410000000  0.4808680000000  0.5969790000000 1.0
C      1  0.4652300000000  0.5205410000000  0.5971230000000 1.0
C      1  0.5039720000000  0.4872000000000  0.5105800000000 1.0
C      1  0.3979040000000  0.5020080000000  0.4586100000000 1.0
C      1  0.5861980000000  0.4672500000000  0.5189540000000 1.0
C      1  0.4993250000000  0.5092340000000  0.4855900000000 1.0
C      1  0.5080530000000  0.4460010000000  0.5345510000000 1.0
C      1  0.5796370000000  0.5801370000000  0.5115000000000 1.0
C      1  0.5278210000000  0.6067660000000  0.4748800000000 1.0
C      1  0.5025870000000  0.5660500000000  0.5877380000000 1.0
C      1  0.5493870000000  0.4405860000000  0.5094120000000 1.0
END
