TITL C-2782228-2999-394 -0.00044559058584217 125000 -341.076601274234 0 0 63 (S10) n - 1
REM
REM in /home/nfs/bkarasulu/CARBON/AIRSS/Generating-Clusters/REBO/Higher-Symm/SD-CG/HFTN-CG
REM
REM
REM
REM
REM
REM ./C.cell (12c818d87b63d06a65506943cc24bca4)
REM
REM compiler GCC version 9.2.1 20190827 (Red Hat 9.2.1-1)
REM options -cpp -mtune=generic -march=x86-64 -g -O0 -fpre-include=/usr/include/finclude/math-vector-fortran.h
REM seed 714240331 782166040 1852980258 1413298355 -259949829 -1891751525 1674926030 1968656819 5334586 -1775850243 955878350 -551965350 984241437 1090323155 1139670175 -156870704 1045040955 4713770 569751401 807855477 -2040284547 1923497006 -351149453 -2081893742 134706455 -218651785 -297351789 2090977007 -1312717600 -1865901909 1255133516 552678273 -19670965
REM
CELL 1.54180   50.00000   50.00000   50.00000   90.00000   90.00000   90.00000
LATT -1
SFAC C  
C      1  0.4704990000000  0.5218690000000  0.4972260000000 1.0
C      1  0.4773030000000  0.4793160000000  0.4806910000000 1.0
C      1  0.4925270000000  0.5218690000000  0.4713130000000 1.0
C      1  0.5103560000000  0.4793160000000  0.4726750000000 1.0
C      1  0.5239790000000  0.5218690000000  0.4842550000000 1.0
C      1  0.5281930000000  0.4793160000000  0.5016330000000 1.0
C      1  0.5213890000000  0.5218690000000  0.5181670000000 1.0
C      1  0.5061650000000  0.4793170000000  0.5275460000000 1.0
C      1  0.4883370000000  0.5218690000000  0.5261840000000 1.0
C      1  0.4747130000000  0.4793170000000  0.5146030000000 1.0
C      1  0.5099100000000  0.5591980000000  0.5264720000000 1.0
C      1  0.4919970000000  0.4419880000000  0.5275180000000 1.0
C      1  0.4768910000000  0.5591980000000  0.5178320000000 1.0
C      1  0.4703620000000  0.4419880000000  0.5011200000000 1.0
C      1  0.4749050000000  0.5591970000000  0.4837600000000 1.0
C      1  0.4887820000000  0.4419880000000  0.4723870000000 1.0
C      1  0.5066960000000  0.5591970000000  0.4713410000000 1.0
C      1  0.5218010000000  0.4419880000000  0.4810270000000 1.0
C      1  0.5283300000000  0.5591970000000  0.4977390000000 1.0
C      1  0.5237880000000  0.4419880000000  0.5150990000000 1.0
C      1  0.5578320000000  0.4838250000000  0.5119150000000 1.0
C      1  0.5393230000000  0.5173610000000  0.5439070000000 1.0
C      1  0.5055450000000  0.4838260000000  0.5589110000000 1.0
C      1  0.4693990000000  0.5173610000000  0.5511940000000 1.0
C      1  0.4446920000000  0.4838250000000  0.5237060000000 1.0
C      1  0.4408610000000  0.5173600000000  0.4869440000000 1.0
C      1  0.4593690000000  0.4838250000000  0.4549520000000 1.0
C      1  0.4931470000000  0.5173600000000  0.4399480000000 1.0
C      1  0.5292930000000  0.4838240000000  0.4476650000000 1.0
C      1  0.5540000000000  0.5173600000000  0.4751530000000 1.0
C      1  0.4469800000000  0.5352990000000  0.4421430000000 1.0
C      1  0.4906520000000  0.4658850000000  0.4223040000000 1.0
C      1  0.5376470000000  0.5352990000000  0.4319230000000 1.0
C      1  0.5700110000000  0.4658850000000  0.4673290000000 1.0
C      1  0.5753840000000  0.5353000000000  0.5149940000000 1.0
C      1  0.5517130000000  0.4658860000000  0.5567160000000 1.0
C      1  0.5080400000000  0.5353010000000  0.5765550000000 1.0
C      1  0.4610460000000  0.4658860000000  0.5669360000000 1.0
C      1  0.4286810000000  0.5353000000000  0.5315300000000 1.0
C      1  0.4233080000000  0.4658860000000  0.4838650000000 1.0
C      1  0.4406810000000  0.5092700000000  0.5400210000000 1.0
C      1  0.4280260000000  0.4919160000000  0.4977860000000 1.0
C      1  0.4426120000000  0.5092690000000  0.4561790000000 1.0
C      1  0.4788690000000  0.4919150000000  0.4310920000000 1.0
C      1  0.5229480000000  0.5092680000000  0.4321070000000 1.0
C      1  0.5580110000000  0.4919150000000  0.4588380000000 1.0
C      1  0.5706670000000  0.5092690000000  0.5010720000000 1.0
C      1  0.5560800000000  0.4919160000000  0.5426800000000 1.0
C      1  0.5198230000000  0.5092700000000  0.5677670000000 1.0
C      1  0.4757440000000  0.4919170000000  0.5667520000000 1.0
C      1  0.4525310000000  0.5450020000000  0.4704920000000 1.0
C      1  0.4784810000000  0.4561830000000  0.4485020000000 1.0
C      1  0.5124010000000  0.5450010000000  0.4459630000000 1.0
C      1  0.5413340000000  0.4561830000000  0.4638480000000 1.0
C      1  0.5542290000000  0.5450020000000  0.4953220000000 1.0
C      1  0.5461610000000  0.4561840000000  0.5283670000000 1.0
C      1  0.5202120000000  0.5450020000000  0.5503570000000 1.0
C      1  0.4862920000000  0.4561840000000  0.5528960000000 1.0
C      1  0.4573590000000  0.5450030000000  0.5350110000000 1.0
C      1  0.4444630000000  0.4561840000000  0.5035360000000 1.0
C      1  0.4993460000000  0.5800820000000  0.4994280000000 1.0
C      1  0.4993460000000  0.4211040000000  0.4994300000000 1.0
C      1  0.4993460000000  0.5005930000000  0.4994290000000 1.0
END
