TITL C-2782232-2968-433 -0.00114609811986325 125000 -627.457038532453 0 0 109 (C1) n - 1
REM
REM in /home/nfs/bkarasulu/CARBON/AIRSS/Generating-Clusters/REBO/Higher-Symm/SD-CG/HFTN-CG
REM
REM
REM
REM
REM
REM ./C.cell (12c818d87b63d06a65506943cc24bca4)
REM
REM compiler GCC version 9.2.1 20190827 (Red Hat 9.2.1-1)
REM options -cpp -mtune=generic -march=x86-64 -g -O0 -fpre-include=/usr/include/finclude/math-vector-fortran.h
REM seed 873220747 897434319 1877050151 1654041251 -1949566551 -1089664523 733841840 1585960920 -1398670217 1013205535 155659588 1706203104 -216634716 309405590 -95320650 -490741978 1514254798 720184713 474293721 661075062 811363824 810252336 1542633041 -313687535 1132591162 668084430 2133856237 -1385389668 584038084 -290248996 653782342 -1400494991 -1195039314
REM
CELL 1.54180   50.00000   50.00000   50.00000   90.00000   90.00000   90.00000
LATT -1
SFAC C  
C      1  0.5308620000000  0.4603960000000  0.4399070000000 1.0
C      1  0.5327930000000  0.5845310000000  0.5093550000000 1.0
C      1  0.5399410000000  0.4663910000000  0.5697480000000 1.0
C      1  0.4489920000000  0.5414150000000  0.4671170000000 1.0
C      1  0.4725510000000  0.4962360000000  0.5483720000000 1.0
C      1  0.4927430000000  0.4420970000000  0.4830770000000 1.0
C      1  0.4404820000000  0.5202220000000  0.4900690000000 1.0
C      1  0.4736660000000  0.4891960000000  0.5150780000000 1.0
C      1  0.4551870000000  0.4923000000000  0.4900080000000 1.0
C      1  0.4932360000000  0.4282120000000  0.4456460000000 1.0
C      1  0.4761560000000  0.5804560000000  0.4588810000000 1.0
C      1  0.4944360000000  0.4786040000000  0.5879360000000 1.0
C      1  0.4112950000000  0.4715460000000  0.5078700000000 1.0
C      1  0.3979670000000  0.4967910000000  0.4780420000000 1.0
C      1  0.3763700000000  0.5909770000000  0.5059630000000 1.0
C      1  0.5447560000000  0.4233110000000  0.4627870000000 1.0
C      1  0.5256630000000  0.5778780000000  0.4470730000000 1.0
C      1  0.5347020000000  0.4993370000000  0.6051580000000 1.0
C      1  0.4783510000000  0.4545040000000  0.4557230000000 1.0
C      1  0.4636140000000  0.5654900000000  0.4806190000000 1.0
C      1  0.4842950000000  0.4701850000000  0.5619020000000 1.0
C      1  0.4611840000000  0.4280650000000  0.5354420000000 1.0
C      1  0.4510680000000  0.4918420000000  0.4310010000000 1.0
C      1  0.4431330000000  0.5546200000000  0.5378490000000 1.0
C      1  0.5151810000000  0.4627560000000  0.4678320000000 1.0
C      1  0.5511440000000  0.5375770000000  0.4713740000000 1.0
C      1  0.5320120000000  0.4992360000000  0.5652620000000 1.0
C      1  0.5238900000000  0.5136850000000  0.4554630000000 1.0
C      1  0.5264000000000  0.5291430000000  0.5217880000000 1.0
C      1  0.5217790000000  0.4628100000000  0.5297800000000 1.0
C      1  0.6001510000000  0.4973210000000  0.4710770000000 1.0
C      1  0.5983970000000  0.5209290000000  0.4933300000000 1.0
C      1  0.6098470000000  0.4920660000000  0.5018460000000 1.0
C      1  0.3312370000000  0.6163070000000  0.4953210000000 1.0
C      1  0.4356520000000  0.4469450000000  0.4734230000000 1.0
C      1  0.3969180000000  0.5318430000000  0.5124310000000 1.0
C      1  0.4156100000000  0.4616220000000  0.5330760000000 1.0
C      1  0.4045530000000  0.4794360000000  0.4582750000000 1.0
C      1  0.3991170000000  0.5782100000000  0.5113260000000 1.0
C      1  0.4496930000000  0.5455050000000  0.4389680000000 1.0
C      1  0.4649420000000  0.5133600000000  0.5699380000000 1.0
C      1  0.4787800000000  0.4121620000000  0.4877350000000 1.0
C      1  0.5444460000000  0.4167810000000  0.4912290000000 1.0
C      1  0.5251540000000  0.5474450000000  0.4548980000000 1.0
C      1  0.5222830000000  0.5231120000000  0.5876960000000 1.0
C      1  0.4914130000000  0.5333880000000  0.5406970000000 1.0
C      1  0.5022910000000  0.4425170000000  0.5131270000000 1.0
C      1  0.4846520000000  0.5062060000000  0.4571400000000 1.0
C      1  0.3536220000000  0.6037440000000  0.5005990000000 1.0
C      1  0.4318100000000  0.4698610000000  0.4885490000000 1.0
C      1  0.4102560000000  0.5162670000000  0.4938850000000 1.0
C      1  0.5218860000000  0.4304330000000  0.4454630000000 1.0
C      1  0.5024050000000  0.5911880000000  0.4555930000000 1.0
C      1  0.5222280000000  0.4753360000000  0.5954660000000 1.0
C      1  0.5074460000000  0.4937540000000  0.4749800000000 1.0
C      1  0.4975080000000  0.5125280000000  0.5216760000000 1.0
C      1  0.5118780000000  0.4726930000000  0.5001950000000 1.0
C      1  0.5458280000000  0.5362400000000  0.5711270000000 1.0
C      1  0.5623330000000  0.4374420000000  0.5083000000000 1.0
C      1  0.5513440000000  0.5146140000000  0.4159510000000 1.0
C      1  0.4585970000000  0.4767310000000  0.4598170000000 1.0
C      1  0.4486900000000  0.5492040000000  0.5058420000000 1.0
C      1  0.4711300000000  0.4601100000000  0.5327720000000 1.0
C      1  0.4845530000000  0.4062520000000  0.5432550000000 1.0
C      1  0.4718430000000  0.5041860000000  0.4075410000000 1.0
C      1  0.4613450000000  0.5675130000000  0.5622010000000 1.0
C      1  0.5236780000000  0.4412750000000  0.5560320000000 1.0
C      1  0.5182800000000  0.4801580000000  0.4204220000000 1.0
C      1  0.5237000000000  0.5623290000000  0.5231960000000 1.0
C      1  0.5519070000000  0.5191180000000  0.5089170000000 1.0
C      1  0.5682200000000  0.4696610000000  0.5077810000000 1.0
C      1  0.5524840000000  0.5047200000000  0.4716310000000 1.0
C      1  0.4277610000000  0.4750820000000  0.4461670000000 1.0
C      1  0.4212210000000  0.5658050000000  0.5165380000000 1.0
C      1  0.4390460000000  0.4511880000000  0.5397340000000 1.0
C      1  0.5543720000000  0.5431230000000  0.4160870000000 1.0
C      1  0.5692940000000  0.5255230000000  0.5844000000000 1.0
C      1  0.5820150000000  0.4427110000000  0.4817970000000 1.0
C      1  0.5622590000000  0.4654290000000  0.4408830000000 1.0
C      1  0.5585940000000  0.5847700000000  0.4998370000000 1.0
C      1  0.5702650000000  0.4620550000000  0.5575560000000 1.0
C      1  0.4871300000000  0.5491920000000  0.5634020000000 1.0
C      1  0.5071190000000  0.4142740000000  0.5215540000000 1.0
C      1  0.4867530000000  0.5180430000000  0.4328730000000 1.0
C      1  0.5452340000000  0.5669750000000  0.4264260000000 1.0
C      1  0.5632430000000  0.5059310000000  0.6038820000000 1.0
C      1  0.5680600000000  0.4401640000000  0.4579010000000 1.0
C      1  0.5357540000000  0.5480150000000  0.5485830000000 1.0
C      1  0.5505860000000  0.4477020000000  0.5361210000000 1.0
C      1  0.5254760000000  0.5059650000000  0.4257340000000 1.0
C      1  0.4631630000000  0.5706880000000  0.4343500000000 1.0
C      1  0.4783990000000  0.5029040000000  0.5938450000000 1.0
C      1  0.4822800000000  0.4055510000000  0.4595320000000 1.0
C      1  0.5936930000000  0.4710520000000  0.5473840000000 1.0
C      1  0.5701440000000  0.4940320000000  0.4237640000000 1.0
C      1  0.5745000000000  0.5626650000000  0.5006290000000 1.0
C      1  0.5262130000000  0.4020340000000  0.5068510000000 1.0
C      1  0.5037280000000  0.5389080000000  0.4318880000000 1.0
C      1  0.4979920000000  0.5406500000000  0.5867610000000 1.0
C      1  0.4692090000000  0.4055790000000  0.5127370000000 1.0
C      1  0.4485040000000  0.5234550000000  0.4227440000000 1.0
C      1  0.4496630000000  0.5355730000000  0.5639570000000 1.0
C      1  0.4600330000000  0.5928490000000  0.5717970000000 1.0
C      1  0.5073050000000  0.4197900000000  0.5611460000000 1.0
C      1  0.4810460000000  0.4964600000000  0.3834830000000 1.0
C      1  0.5750460000000  0.4923940000000  0.4560060000000 1.0
C      1  0.5753890000000  0.5346250000000  0.5029720000000 1.0
C      1  0.5938710000000  0.4764340000000  0.5194590000000 1.0
C      1  0.5520190000000  0.4908080000000  0.4997720000000 1.0
END
