TITL C-2782227-3064-1207 0.0114136520032326 125000 -253.005893082274 0 0 44 (C1) n - 1
REM
REM in /home/nfs/bkarasulu/CARBON/AIRSS/Generating-Clusters/REBO/Higher-Symm/SD-CG/HFTN-CG
REM
REM
REM
REM
REM
REM ./C.cell (12c818d87b63d06a65506943cc24bca4)
REM
REM compiler GCC version 9.2.1 20190827 (Red Hat 9.2.1-1)
REM options -cpp -mtune=generic -march=x86-64 -g -O0 -fpre-include=/usr/include/finclude/math-vector-fortran.h
REM seed -2030853708 2019432402 1337646665 -2099656379 857075626 -424559721 180104468 -1272860550 783103653 267281341 2088510904 -1375089054 617031032 -265792472 1906129565 -549770122 -731531226 -564456025 1188356409 -1695058224 -1418208981 -1649055972 -1991774646 -1029311262 194962664 1085368053 -369843803 -1653316719 781563120 -1329614568 -978571467 1340343504 -1104435457
REM
CELL 1.54180   50.00000   50.00000   50.00000   90.00000   90.00000   90.00000
LATT -1
SFAC C  
C      1  0.4514830000000  0.5034170000000  0.4469090000000 1.0
C      1  0.4552800000000  0.5452550000000  0.5234600000000 1.0
C      1  0.4521450000000  0.4574090000000  0.5186750000000 1.0
C      1  0.5375070000000  0.5040400000000  0.4572850000000 1.0
C      1  0.5508900000000  0.5482640000000  0.5257580000000 1.0
C      1  0.5447730000000  0.4600490000000  0.5225310000000 1.0
C      1  0.4553160000000  0.5012930000000  0.5470210000000 1.0
C      1  0.4531600000000  0.5462860000000  0.4727540000000 1.0
C      1  0.4489830000000  0.4584250000000  0.4705000000000 1.0
C      1  0.5454170000000  0.5039720000000  0.5466040000000 1.0
C      1  0.5465800000000  0.5485690000000  0.4764680000000 1.0
C      1  0.5481410000000  0.4566110000000  0.4726870000000 1.0
C      1  0.4843210000000  0.5415990000000  0.4805080000000 1.0
C      1  0.4859990000000  0.4874420000000  0.5462840000000 1.0
C      1  0.4827670000000  0.4581570000000  0.4671870000000 1.0
C      1  0.5167980000000  0.5436100000000  0.4873930000000 1.0
C      1  0.5168370000000  0.4897750000000  0.5559030000000 1.0
C      1  0.5156810000000  0.4591960000000  0.4759480000000 1.0
C      1  0.4871710000000  0.5413400000000  0.5140400000000 1.0
C      1  0.4797810000000  0.4861490000000  0.4481180000000 1.0
C      1  0.4834410000000  0.4592340000000  0.5304260000000 1.0
C      1  0.5196100000000  0.5436220000000  0.5206060000000 1.0
C      1  0.5096860000000  0.4863260000000  0.4587890000000 1.0
C      1  0.5153630000000  0.4612500000000  0.5395830000000 1.0
C      1  0.4334450000000  0.5017350000000  0.5268360000000 1.0
C      1  0.4311810000000  0.4779630000000  0.4825720000000 1.0
C      1  0.4337770000000  0.5279880000000  0.4840490000000 1.0
C      1  0.5667100000000  0.5025030000000  0.5275190000000 1.0
C      1  0.5657990000000  0.4772560000000  0.4839050000000 1.0
C      1  0.5663150000000  0.5285430000000  0.4848340000000 1.0
C      1  0.4314260000000  0.5034150000000  0.4690410000000 1.0
C      1  0.4314990000000  0.4768240000000  0.5117150000000 1.0
C      1  0.4350290000000  0.5272050000000  0.5127740000000 1.0
C      1  0.5625960000000  0.5031430000000  0.4710020000000 1.0
C      1  0.5659510000000  0.4771190000000  0.5130990000000 1.0
C      1  0.5686070000000  0.5281730000000  0.5137830000000 1.0
C      1  0.4768780000000  0.4659060000000  0.4981410000000 1.0
C      1  0.5170300000000  0.4671020000000  0.5060860000000 1.0
C      1  0.4751370000000  0.5125280000000  0.4696030000000 1.0
C      1  0.4779550000000  0.5124420000000  0.5249820000000 1.0
C      1  0.5139630000000  0.5130740000000  0.4788330000000 1.0
C      1  0.5174060000000  0.5133360000000  0.5311340000000 1.0
C      1  0.4786400000000  0.4975600000000  0.4964170000000 1.0
C      1  0.5096790000000  0.4971040000000  0.5062340000000 1.0
END
