TITL C-2782237-5345-888 -0.00141829014004589 125000 -301.450062228808 0 0 54 (C1) n - 1
REM
REM in /home/nfs/bkarasulu/CARBON/AIRSS/Generating-Clusters/REBO/Higher-Symm/SD-CG/HFTN-CG
REM
REM
REM
REM
REM
REM ./C.cell (12c818d87b63d06a65506943cc24bca4)
REM
REM compiler GCC version 9.2.1 20190827 (Red Hat 9.2.1-1)
REM options -cpp -mtune=generic -march=x86-64 -g -O0 -fpre-include=/usr/include/finclude/math-vector-fortran.h
REM seed 916602161 2096966561 369335093 2128927293 387802857 243386529 -267532674 -303969766 1197501176 -1756220210 1137175103 -973489957 -1833217392 2017400161 2113990203 340623790 1392565641 -787435989 -1326896058 -672815720 1977721700 -1470187146 -1053415270 1664770489 1045375913 -994381613 1582680119 -973128891 1595310644 2133639579 -846317317 1067257128 -99030740
REM
CELL 1.54180   50.00000   50.00000   50.00000   90.00000   90.00000   90.00000
LATT -1
SFAC C  
C      1  0.4470120000000  0.5397010000000  0.5151560000000 1.0
C      1  0.4550170000000  0.4569850000000  0.4878660000000 1.0
C      1  0.5621040000000  0.5473860000000  0.5073370000000 1.0
C      1  0.5407320000000  0.4488510000000  0.4881100000000 1.0
C      1  0.4631710000000  0.5227740000000  0.4849350000000 1.0
C      1  0.4566980000000  0.4780820000000  0.5196920000000 1.0
C      1  0.5519230000000  0.5553810000000  0.4827080000000 1.0
C      1  0.5433480000000  0.4601130000000  0.5149830000000 1.0
C      1  0.4894120000000  0.5444590000000  0.4836610000000 1.0
C      1  0.4863010000000  0.4614860000000  0.5165890000000 1.0
C      1  0.5185310000000  0.5551180000000  0.4753360000000 1.0
C      1  0.5143350000000  0.4631000000000  0.5294880000000 1.0
C      1  0.4804250000000  0.5441840000000  0.5167150000000 1.0
C      1  0.4883980000000  0.4533180000000  0.4835700000000 1.0
C      1  0.5095970000000  0.5516670000000  0.5252380000000 1.0
C      1  0.5137280000000  0.4404000000000  0.4729210000000 1.0
C      1  0.5571780000000  0.4655770000000  0.4687320000000 1.0
C      1  0.5525130000000  0.5318780000000  0.5325670000000 1.0
C      1  0.4346580000000  0.4624070000000  0.4610580000000 1.0
C      1  0.4282130000000  0.5397980000000  0.5435780000000 1.0
C      1  0.5620500000000  0.4675460000000  0.5429300000000 1.0
C      1  0.5630940000000  0.5359530000000  0.4616800000000 1.0
C      1  0.4338780000000  0.4641790000000  0.5417100000000 1.0
C      1  0.4371330000000  0.5324520000000  0.4642660000000 1.0
C      1  0.5247250000000  0.4728240000000  0.4284430000000 1.0
C      1  0.5192510000000  0.5260350000000  0.5671840000000 1.0
C      1  0.4778930000000  0.4735120000000  0.4316890000000 1.0
C      1  0.4725770000000  0.5264150000000  0.5700010000000 1.0
C      1  0.5239900000000  0.4735560000000  0.5785390000000 1.0
C      1  0.5253150000000  0.5289110000000  0.4270520000000 1.0
C      1  0.4774880000000  0.4676860000000  0.5720370000000 1.0
C      1  0.4782690000000  0.5303550000000  0.4294590000000 1.0
C      1  0.5270750000000  0.5375590000000  0.5428450000000 1.0
C      1  0.5326030000000  0.4585840000000  0.4509710000000 1.0
C      1  0.4621990000000  0.5401560000000  0.5454210000000 1.0
C      1  0.4683290000000  0.4604600000000  0.4567850000000 1.0
C      1  0.5350800000000  0.5409210000000  0.4499930000000 1.0
C      1  0.5336330000000  0.4666220000000  0.5530750000000 1.0
C      1  0.4691300000000  0.5401040000000  0.4565330000000 1.0
C      1  0.4671160000000  0.4587570000000  0.5449780000000 1.0
C      1  0.5687130000000  0.4828510000000  0.5144000000000 1.0
C      1  0.5750170000000  0.5143680000000  0.4755430000000 1.0
C      1  0.4240870000000  0.4880640000000  0.5206720000000 1.0
C      1  0.4322260000000  0.5107320000000  0.4890420000000 1.0
C      1  0.5721000000000  0.4854780000000  0.4820880000000 1.0
C      1  0.5705550000000  0.5143740000000  0.5095350000000 1.0
C      1  0.4295380000000  0.4789560000000  0.4895280000000 1.0
C      1  0.4196580000000  0.5195410000000  0.5182700000000 1.0
C      1  0.4980790000000  0.4847330000000  0.5809410000000 1.0
C      1  0.5009340000000  0.4870300000000  0.4231600000000 1.0
C      1  0.4961960000000  0.5129690000000  0.5767390000000 1.0
C      1  0.5010890000000  0.5155520000000  0.4220270000000 1.0
C      1  0.5213950000000  0.5668820000000  0.5056110000000 1.0
C      1  0.5109510000000  0.4132180000000  0.4666100000000 1.0
END
