TITL C-2782225-7408-789 0.00260234133691703 125000 -485.34530029465 0 0 79 (C1) n - 1
REM
REM in /home/nfs/bkarasulu/CARBON/AIRSS/Generating-Clusters/REBO/Higher-Symm/SD-CG/HFTN-CG
REM
REM
REM
REM
REM
REM ./C.cell (12c818d87b63d06a65506943cc24bca4)
REM
REM compiler GCC version 9.2.1 20190827 (Red Hat 9.2.1-1)
REM options -cpp -mtune=generic -march=x86-64 -g -O0 -fpre-include=/usr/include/finclude/math-vector-fortran.h
REM seed 1935963152 1333577822 -582898607 -1480900681 1438109688 -543070569 707478365 575695445 123328407 2073650078 263295589 1880690485 -1143607882 1105638079 1236018214 -1332080300 758583057 -683920096 491181674 -365002770 136894765 -1988578960 1234380259 548177283 1749174155 -409384725 -1827720246 -2038493465 1470954669 1394161719 -1879533401 -1895049707 -356768136
REM
CELL 1.54180   50.00000   50.00000   50.00000   90.00000   90.00000   90.00000
LATT -1
SFAC C  
C      1  0.4651960000000  0.5430540000000  0.5165540000000 1.0
C      1  0.5338930000000  0.5418910000000  0.5186860000000 1.0
C      1  0.5552510000000  0.4831590000000  0.5185510000000 1.0
C      1  0.4972660000000  0.4427640000000  0.5180390000000 1.0
C      1  0.4430700000000  0.4826820000000  0.5155310000000 1.0
C      1  0.4487940000000  0.5621950000000  0.4766560000000 1.0
C      1  0.5449260000000  0.5685630000000  0.4784500000000 1.0
C      1  0.5788810000000  0.4775960000000  0.4787070000000 1.0
C      1  0.5031570000000  0.4163650000000  0.4786840000000 1.0
C      1  0.4212600000000  0.4695640000000  0.4744130000000 1.0
C      1  0.5205920000000  0.5167430000000  0.4714870000000 1.0
C      1  0.5207720000000  0.4855320000000  0.4742110000000 1.0
C      1  0.4918580000000  0.4753080000000  0.4727020000000 1.0
C      1  0.4734790000000  0.4997430000000  0.4714060000000 1.0
C      1  0.4909920000000  0.5253890000000  0.4716150000000 1.0
C      1  0.5165840000000  0.5204440000000  0.5044880000000 1.0
C      1  0.5271040000000  0.4891060000000  0.5073110000000 1.0
C      1  0.4991630000000  0.4709330000000  0.5049040000000 1.0
C      1  0.4717170000000  0.4902820000000  0.5037910000000 1.0
C      1  0.4825980000000  0.5212470000000  0.5038410000000 1.0
C      1  0.4554160000000  0.5475790000000  0.4524910000000 1.0
C      1  0.5326970000000  0.5600120000000  0.4537380000000 1.0
C      1  0.5635070000000  0.4855240000000  0.4547480000000 1.0
C      1  0.5071280000000  0.4336460000000  0.4553560000000 1.0
C      1  0.4400370000000  0.4719480000000  0.4520000000000 1.0
C      1  0.4566000000000  0.5351090000000  0.5468770000000 1.0
C      1  0.5223150000000  0.5420140000000  0.5496830000000 1.0
C      1  0.5583050000000  0.4935000000000  0.5487130000000 1.0
C      1  0.5012300000000  0.4533380000000  0.5504250000000 1.0
C      1  0.4561610000000  0.4767580000000  0.5452670000000 1.0
C      1  0.5330950000000  0.4556260000000  0.5514290000000 1.0
C      1  0.4689670000000  0.4506830000000  0.5448720000000 1.0
C      1  0.4347950000000  0.5171420000000  0.5476710000000 1.0
C      1  0.4977340000000  0.5568430000000  0.5513610000000 1.0
C      1  0.5649070000000  0.5210980000000  0.5504270000000 1.0
C      1  0.5353570000000  0.4438120000000  0.4559890000000 1.0
C      1  0.4585670000000  0.4480660000000  0.4529310000000 1.0
C      1  0.4382490000000  0.5231040000000  0.4513740000000 1.0
C      1  0.5042350000000  0.5683280000000  0.4539350000000 1.0
C      1  0.5622080000000  0.5152750000000  0.4531000000000 1.0
C      1  0.5453510000000  0.4454470000000  0.5271710000000 1.0
C      1  0.4584040000000  0.4357160000000  0.5236560000000 1.0
C      1  0.4200540000000  0.5142700000000  0.5221230000000 1.0
C      1  0.4923440000000  0.5707870000000  0.5261060000000 1.0
C      1  0.5722970000000  0.5333540000000  0.5243380000000 1.0
C      1  0.5488450000000  0.4328520000000  0.4795360000000 1.0
C      1  0.4511620000000  0.4314800000000  0.4758640000000 1.0
C      1  0.4198390000000  0.5237660000000  0.4741820000000 1.0
C      1  0.4985420000000  0.5815790000000  0.4788360000000 1.0
C      1  0.5758720000000  0.5257710000000  0.4760520000000 1.0
C      1  0.5878780000000  0.5030260000000  0.4900820000000 1.0
C      1  0.5287500000000  0.4162730000000  0.4930300000000 1.0
C      1  0.4281640000000  0.4448010000000  0.4883750000000 1.0
C      1  0.4262220000000  0.5483440000000  0.4888740000000 1.0
C      1  0.5241220000000  0.5827540000000  0.4931420000000 1.0
C      1  0.5793950000000  0.5049380000000  0.5169040000000 1.0
C      1  0.5245820000000  0.4277740000000  0.5182630000000 1.0
C      1  0.4361180000000  0.4510820000000  0.5146600000000 1.0
C      1  0.4326800000000  0.5406580000000  0.5154010000000 1.0
C      1  0.5204050000000  0.5710190000000  0.5183810000000 1.0
C      1  0.5356650000000  0.5296960000000  0.4472860000000 1.0
C      1  0.5386140000000  0.4720170000000  0.4546480000000 1.0
C      1  0.4865510000000  0.4534530000000  0.4534220000000 1.0
C      1  0.4519680000000  0.4980420000000  0.4511570000000 1.0
C      1  0.4855010000000  0.5447740000000  0.4476500000000 1.0
C      1  0.5263100000000  0.5227380000000  0.5680630000000 1.0
C      1  0.5424270000000  0.4780350000000  0.5649420000000 1.0
C      1  0.4963670000000  0.4816960000000  0.5676480000000 1.0
C      1  0.4718400000000  0.4930010000000  0.5623110000000 1.0
C      1  0.4752580000000  0.5460280000000  0.5646840000000 1.0
C      1  0.4733110000000  0.5704270000000  0.4978730000000 1.0
C      1  0.5633650000000  0.4558660000000  0.4999530000000 1.0
C      1  0.4766570000000  0.4248810000000  0.4974210000000 1.0
C      1  0.4201790000000  0.4961140000000  0.4939760000000 1.0
C      1  0.5596950000000  0.5466820000000  0.4966310000000 1.0
C      1  0.5214840000000  0.4942260000000  0.5803430000000 1.0
C      1  0.5062830000000  0.5233140000000  0.4347180000000 1.0
C      1  0.5004820000000  0.5044380000000  0.4174380000000 1.0
C      1  0.5227280000000  0.4930260000000  0.6082940000000 1.0
END
