TITL C-2782234-8014-787 -0.000946567273538949 125000 -1011.18228673623 0 0 172 (C1) n - 1
REM
REM in /home/nfs/bkarasulu/CARBON/AIRSS/Generating-Clusters/REBO/Higher-Symm/SD-CG/HFTN-CG
REM
REM
REM
REM
REM
REM ./C.cell (12c818d87b63d06a65506943cc24bca4)
REM
REM compiler GCC version 9.2.1 20190827 (Red Hat 9.2.1-1)
REM options -cpp -mtune=generic -march=x86-64 -g -O0 -fpre-include=/usr/include/finclude/math-vector-fortran.h
REM seed 1910734259 405073700 1571323667 -29479467 1767587591 -260975303 1423791690 1603686905 1853914975 32367481 1371273340 1234476133 1692533007 426143303 -649515446 1184909571 -1214635871 -1309367891 -1037495019 -2026913711 -778650209 631206059 1326099950 -2003803411 -451743410 478050299 1286110896 -2040710984 -1573006056 443674158 -1217596853 2010032430 -1575245275
REM
CELL 1.54180   50.00000   50.00000   50.00000   90.00000   90.00000   90.00000
LATT -1
SFAC C  
C      1  0.4316740000000  0.4947040000000  0.5921180000000 1.0
C      1  0.4529370000000  0.4950720000000  0.3975310000000 1.0
C      1  0.6166100000000  0.4967620000000  0.5132250000000 1.0
C      1  0.4222980000000  0.4956190000000  0.4136870000000 1.0
C      1  0.4587200000000  0.4937240000000  0.6128890000000 1.0
C      1  0.6116160000000  0.4947450000000  0.4790600000000 1.0
C      1  0.4173370000000  0.4499540000000  0.5593180000000 1.0
C      1  0.5009880000000  0.4482280000000  0.3867680000000 1.0
C      1  0.5913330000000  0.4475800000000  0.5418480000000 1.0
C      1  0.4071830000000  0.4478560000000  0.4575730000000 1.0
C      1  0.4973490000000  0.4418070000000  0.6054070000000 1.0
C      1  0.5866760000000  0.4457260000000  0.4439110000000 1.0
C      1  0.5596720000000  0.5255560000000  0.5620170000000 1.0
C      1  0.4164170000000  0.5242390000000  0.5219580000000 1.0
C      1  0.5230000000000  0.5234660000000  0.4157440000000 1.0
C      1  0.5659050000000  0.5241530000000  0.4415270000000 1.0
C      1  0.4172410000000  0.5241710000000  0.4722780000000 1.0
C      1  0.5170090000000  0.5256690000000  0.5894120000000 1.0
C      1  0.6079830000000  0.5271160000000  0.5208390000000 1.0
C      1  0.4282370000000  0.5267720000000  0.5849390000000 1.0
C      1  0.4628120000000  0.5261000000000  0.3970610000000 1.0
C      1  0.6099370000000  0.5264760000000  0.4874680000000 1.0
C      1  0.4335330000000  0.5265980000000  0.4123260000000 1.0
C      1  0.4570310000000  0.5259750000000  0.6031150000000 1.0
C      1  0.5008970000000  0.5804920000000  0.4406160000000 1.0
C      1  0.5533020000000  0.5835050000000  0.5336250000000 1.0
C      1  0.4441680000000  0.5836580000000  0.5316180000000 1.0
C      1  0.4977900000000  0.5861710000000  0.5663290000000 1.0
C      1  0.5541000000000  0.5830510000000  0.4709250000000 1.0
C      1  0.4455190000000  0.5844190000000  0.4682200000000 1.0
C      1  0.4446200000000  0.4715100000000  0.5212670000000 1.0
C      1  0.5113020000000  0.4676530000000  0.4363100000000 1.0
C      1  0.5463050000000  0.4738640000000  0.5421100000000 1.0
C      1  0.4433770000000  0.4728130000000  0.4716180000000 1.0
C      1  0.5101000000000  0.4696370000000  0.5796980000000 1.0
C      1  0.5536210000000  0.4708780000000  0.4612180000000 1.0
C      1  0.5186910000000  0.5427080000000  0.4414350000000 1.0
C      1  0.5409460000000  0.5478530000000  0.5468940000000 1.0
C      1  0.4390150000000  0.5464290000000  0.5136530000000 1.0
C      1  0.5122130000000  0.5463410000000  0.5639190000000 1.0
C      1  0.5472010000000  0.5452970000000  0.4573630000000 1.0
C      1  0.4399770000000  0.5454290000000  0.4810280000000 1.0
C      1  0.5241570000000  0.4500350000000  0.4815740000000 1.0
C      1  0.5032390000000  0.4541960000000  0.5297790000000 1.0
C      1  0.4752050000000  0.4508850000000  0.4856650000000 1.0
C      1  0.5279140000000  0.4421620000000  0.5140200000000 1.0
C      1  0.4988270000000  0.4390550000000  0.4664150000000 1.0
C      1  0.4763950000000  0.4403530000000  0.5151440000000 1.0
C      1  0.4677820000000  0.4769440000000  0.5864010000000 1.0
C      1  0.4371470000000  0.4687140000000  0.4255360000000 1.0
C      1  0.5921200000000  0.4672600000000  0.4789430000000 1.0
C      1  0.4660170000000  0.4689210000000  0.4113520000000 1.0
C      1  0.4434940000000  0.4793840000000  0.5653920000000 1.0
C      1  0.5955220000000  0.4731190000000  0.5115810000000 1.0
C      1  0.4907560000000  0.5538550000000  0.5442640000000 1.0
C      1  0.4684120000000  0.5520880000000  0.4723780000000 1.0
C      1  0.5396420000000  0.5486430000000  0.4848970000000 1.0
C      1  0.4974660000000  0.5440500000000  0.4616390000000 1.0
C      1  0.4661460000000  0.5509470000000  0.5250370000000 1.0
C      1  0.5360540000000  0.5517710000000  0.5165140000000 1.0
C      1  0.5739000000000  0.5736630000000  0.5161400000000 1.0
C      1  0.4476820000000  0.5756570000000  0.5591140000000 1.0
C      1  0.4758480000000  0.5736030000000  0.4286360000000 1.0
C      1  0.5759440000000  0.5741260000000  0.4874590000000 1.0
C      1  0.4504070000000  0.5743160000000  0.4416920000000 1.0
C      1  0.4725890000000  0.5748200000000  0.5747230000000 1.0
C      1  0.5331780000000  0.4886760000000  0.4819060000000 1.0
C      1  0.4964430000000  0.4923220000000  0.5204470000000 1.0
C      1  0.4737150000000  0.4884360000000  0.4726060000000 1.0
C      1  0.5299460000000  0.4880250000000  0.5158170000000 1.0
C      1  0.5054080000000  0.4843710000000  0.4626970000000 1.0
C      1  0.4669010000000  0.4884420000000  0.5052170000000 1.0
C      1  0.5289700000000  0.5204940000000  0.4926140000000 1.0
C      1  0.4945970000000  0.5240270000000  0.5327640000000 1.0
C      1  0.4728590000000  0.5209380000000  0.4828060000000 1.0
C      1  0.5240600000000  0.5206430000000  0.5235270000000 1.0
C      1  0.5037920000000  0.5146230000000  0.4744440000000 1.0
C      1  0.4687730000000  0.5200590000000  0.5136320000000 1.0
C      1  0.5619850000000  0.4754710000000  0.4118020000000 1.0
C      1  0.5474130000000  0.4695340000000  0.5960860000000 1.0
C      1  0.3939570000000  0.4774600000000  0.4938890000000 1.0
C      1  0.5691430000000  0.4712720000000  0.5791130000000 1.0
C      1  0.5386650000000  0.4777610000000  0.3962690000000 1.0
C      1  0.3956180000000  0.4755420000000  0.5216520000000 1.0
C      1  0.4721450000000  0.5823280000000  0.5159090000000 1.0
C      1  0.5001380000000  0.5762990000000  0.4722290000000 1.0
C      1  0.5248610000000  0.5838500000000  0.5192440000000 1.0
C      1  0.4724100000000  0.5829850000000  0.4861820000000 1.0
C      1  0.4991820000000  0.5850920000000  0.5337950000000 1.0
C      1  0.5259280000000  0.5785940000000  0.4877120000000 1.0
C      1  0.5411180000000  0.4433300000000  0.5536080000000 1.0
C      1  0.4354270000000  0.4430430000000  0.5121520000000 1.0
C      1  0.5256620000000  0.4378760000000  0.4352440000000 1.0
C      1  0.5482540000000  0.4389450000000  0.4517200000000 1.0
C      1  0.4365180000000  0.4418170000000  0.4839490000000 1.0
C      1  0.5161850000000  0.4418130000000  0.5663170000000 1.0
C      1  0.5881870000000  0.5496120000000  0.4756740000000 1.0
C      1  0.4762000000000  0.5494120000000  0.5877070000000 1.0
C      1  0.4349230000000  0.5496520000000  0.4370530000000 1.0
C      1  0.5842330000000  0.5488250000000  0.5269850000000 1.0
C      1  0.4801220000000  0.5491610000000  0.4129940000000 1.0
C      1  0.4327330000000  0.5506930000000  0.5627900000000 1.0
C      1  0.4997210000000  0.4065510000000  0.5329910000000 1.0
C      1  0.4725950000000  0.4048960000000  0.4845280000000 1.0
C      1  0.5280340000000  0.4053200000000  0.4856370000000 1.0
C      1  0.5005680000000  0.4066940000000  0.4695810000000 1.0
C      1  0.4736720000000  0.4082140000000  0.5159150000000 1.0
C      1  0.5265740000000  0.4098290000000  0.5168630000000 1.0
C      1  0.4169910000000  0.5710540000000  0.5155210000000 1.0
C      1  0.5271110000000  0.5698300000000  0.4241160000000 1.0
C      1  0.5534900000000  0.5726260000000  0.5652110000000 1.0
C      1  0.4191450000000  0.5718750000000  0.4825900000000 1.0
C      1  0.5242260000000  0.5730420000000  0.5807790000000 1.0
C      1  0.5559290000000  0.5718110000000  0.4394260000000 1.0
C      1  0.4901300000000  0.5169500000000  0.6049170000000 1.0
C      1  0.4130040000000  0.5239660000000  0.4401220000000 1.0
C      1  0.5970320000000  0.5236890000000  0.4552760000000 1.0
C      1  0.4975180000000  0.5245360000000  0.3981310000000 1.0
C      1  0.4126160000000  0.5256800000000  0.5531920000000 1.0
C      1  0.5880060000000  0.5245020000000  0.5492890000000 1.0
C      1  0.4309810000000  0.4457420000000  0.4445960000000 1.0
C      1  0.5833650000000  0.4365970000000  0.4751420000000 1.0
C      1  0.4740650000000  0.4461590000000  0.5912050000000 1.0
C      1  0.4498290000000  0.4465690000000  0.5676350000000 1.0
C      1  0.5882810000000  0.4407560000000  0.5086410000000 1.0
C      1  0.4812920000000  0.4429660000000  0.4050010000000 1.0
C      1  0.4923660000000  0.4891600000000  0.6156530000000 1.0
C      1  0.4050130000000  0.4925040000000  0.4431820000000 1.0
C      1  0.5968640000000  0.4918780000000  0.4481680000000 1.0
C      1  0.4866500000000  0.4952210000000  0.3894510000000 1.0
C      1  0.4083310000000  0.4974330000000  0.5670970000000 1.0
C      1  0.6013790000000  0.4954620000000  0.5440370000000 1.0
C      1  0.4859660000000  0.4990650000000  0.5694330000000 1.0
C      1  0.4526270000000  0.4939590000000  0.4393650000000 1.0
C      1  0.5725070000000  0.4939040000000  0.4868050000000 1.0
C      1  0.4827410000000  0.4931190000000  0.4285740000000 1.0
C      1  0.4440030000000  0.5022340000000  0.5453930000000 1.0
C      1  0.5705580000000  0.4927610000000  0.5189590000000 1.0
C      1  0.5276410000000  0.4959350000000  0.4300630000000 1.0
C      1  0.5457190000000  0.4982780000000  0.5612930000000 1.0
C      1  0.4273090000000  0.4968680000000  0.5099750000000 1.0
C      1  0.5248440000000  0.4974300000000  0.5784620000000 1.0
C      1  0.5511700000000  0.4966090000000  0.4439270000000 1.0
C      1  0.4270740000000  0.4968380000000  0.4827070000000 1.0
C      1  0.4045020000000  0.4742900000000  0.5495970000000 1.0
C      1  0.5102540000000  0.4756320000000  0.3876690000000 1.0
C      1  0.5883210000000  0.4722770000000  0.5566470000000 1.0
C      1  0.3990140000000  0.4745410000000  0.4649500000000 1.0
C      1  0.5170520000000  0.4682090000000  0.6115610000000 1.0
C      1  0.5827540000000  0.4723540000000  0.4330390000000 1.0
C      1  0.5562730000000  0.4525010000000  0.4881910000000 1.0
C      1  0.4913720000000  0.4704220000000  0.5535230000000 1.0
C      1  0.4623940000000  0.4502880000000  0.4547680000000 1.0
C      1  0.5587870000000  0.4538550000000  0.5195710000000 1.0
C      1  0.4866630000000  0.4456010000000  0.4360610000000 1.0
C      1  0.4652170000000  0.4561070000000  0.5414600000000 1.0
C      1  0.5109400000000  0.4139850000000  0.4379680000000 1.0
C      1  0.5489440000000  0.4203750000000  0.5398210000000 1.0
C      1  0.4437220000000  0.4199940000000  0.5253910000000 1.0
C      1  0.5001580000000  0.4201280000000  0.5572750000000 1.0
C      1  0.5486950000000  0.4172500000000  0.4710510000000 1.0
C      1  0.4499580000000  0.4178480000000  0.4743080000000 1.0
C      1  0.4520560000000  0.5236340000000  0.4475520000000 1.0
C      1  0.5703040000000  0.5235640000000  0.4844450000000 1.0
C      1  0.4764280000000  0.5253400000000  0.5683010000000 1.0
C      1  0.4525560000000  0.5263710000000  0.5533050000000 1.0
C      1  0.5688360000000  0.5225970000000  0.5143220000000 1.0
C      1  0.4790170000000  0.5229880000000  0.4333970000000 1.0
C      1  0.5504680000000  0.5444860000000  0.4180900000000 1.0
C      1  0.5450050000000  0.5457170000000  0.5860510000000 1.0
C      1  0.4035850000000  0.5443180000000  0.4968230000000 1.0
C      1  0.5009040000000  0.4668930000000  0.4983130000000 1.0
END
