TITL C-2782238-9940-1108 0.000592637752081382 125000 -880.395594773148 0 0 147 (C1) n - 1
REM
REM in /home/nfs/bkarasulu/CARBON/AIRSS/Generating-Clusters/REBO/Higher-Symm/SD-CG/HFTN-CG
REM
REM
REM
REM
REM
REM ./C.cell (12c818d87b63d06a65506943cc24bca4)
REM
REM compiler GCC version 9.2.1 20190827 (Red Hat 9.2.1-1)
REM options -cpp -mtune=generic -march=x86-64 -g -O0 -fpre-include=/usr/include/finclude/math-vector-fortran.h
REM seed -157749869 1952174452 256565976 1729322921 -1631777254 514188121 -2087679305 463895168 1069421296 860167997 -776627027 1865582922 -211964830 -1040577417 -1402644746 259890122 -1691532428 199201755 1578292149 -948516672 1126795558 -606949978 -1405636761 592997427 -1182765535 512762698 361591348 518847408 -1037043416 1785440954 -1559102771 -1362242833 -1122006468
REM
CELL 1.54180   50.00000   50.00000   50.00000   90.00000   90.00000   90.00000
LATT -1
SFAC C  
C      1  0.5105520000000  0.5922460000000  0.5417420000000 1.0
C      1  0.4884750000000  0.5926370000000  0.4575150000000 1.0
C      1  0.5709530000000  0.4902790000000  0.5730310000000 1.0
C      1  0.4260130000000  0.4899090000000  0.4274120000000 1.0
C      1  0.4163540000000  0.5420570000000  0.5236490000000 1.0
C      1  0.5836340000000  0.5435420000000  0.4772540000000 1.0
C      1  0.4341930000000  0.4935360000000  0.5336480000000 1.0
C      1  0.5646810000000  0.4927940000000  0.4701220000000 1.0
C      1  0.5678420000000  0.5219000000000  0.4307310000000 1.0
C      1  0.4348340000000  0.5220920000000  0.5709320000000 1.0
C      1  0.3947180000000  0.4964050000000  0.5168850000000 1.0
C      1  0.6003170000000  0.4954570000000  0.4879990000000 1.0
C      1  0.5903750000000  0.5085630000000  0.5107070000000 1.0
C      1  0.4053130000000  0.5056800000000  0.4925250000000 1.0
C      1  0.4554140000000  0.4484760000000  0.4372550000000 1.0
C      1  0.5425070000000  0.4474600000000  0.5655340000000 1.0
C      1  0.5592730000000  0.5701350000000  0.4943590000000 1.0
C      1  0.4370680000000  0.5724680000000  0.5050500000000 1.0
C      1  0.5230620000000  0.4045650000000  0.5311930000000 1.0
C      1  0.4807110000000  0.4061970000000  0.4667760000000 1.0
C      1  0.4474830000000  0.5153230000000  0.4262770000000 1.0
C      1  0.5491080000000  0.5156430000000  0.5709240000000 1.0
C      1  0.4581510000000  0.4845210000000  0.5890850000000 1.0
C      1  0.5451250000000  0.4871110000000  0.4094940000000 1.0
C      1  0.5217330000000  0.6043380000000  0.4965000000000 1.0
C      1  0.4775210000000  0.6037080000000  0.5028700000000 1.0
C      1  0.4666180000000  0.5979780000000  0.4772290000000 1.0
C      1  0.5323400000000  0.5980250000000  0.5221310000000 1.0
C      1  0.4684870000000  0.5206240000000  0.4509170000000 1.0
C      1  0.5293470000000  0.5185550000000  0.5448130000000 1.0
C      1  0.4580410000000  0.5140840000000  0.5864160000000 1.0
C      1  0.5470800000000  0.5158220000000  0.4121330000000 1.0
C      1  0.5284920000000  0.4714450000000  0.4823160000000 1.0
C      1  0.4735960000000  0.4729260000000  0.5226720000000 1.0
C      1  0.4830990000000  0.5601980000000  0.4241200000000 1.0
C      1  0.5156640000000  0.5593380000000  0.5745700000000 1.0
C      1  0.4203300000000  0.5415400000000  0.4653780000000 1.0
C      1  0.5800550000000  0.5427240000000  0.5361680000000 1.0
C      1  0.4358350000000  0.4722140000000  0.5727110000000 1.0
C      1  0.5655680000000  0.4730450000000  0.4272300000000 1.0
C      1  0.4459480000000  0.4656530000000  0.5074940000000 1.0
C      1  0.5468970000000  0.4516390000000  0.4980530000000 1.0
C      1  0.5596380000000  0.4596700000000  0.5258390000000 1.0
C      1  0.4385460000000  0.4630260000000  0.4778170000000 1.0
C      1  0.5277020000000  0.4425170000000  0.5423130000000 1.0
C      1  0.4696110000000  0.4445030000000  0.4607390000000 1.0
C      1  0.5240280000000  0.5272750000000  0.4539170000000 1.0
C      1  0.4748530000000  0.5244120000000  0.5404520000000 1.0
C      1  0.4837690000000  0.4842590000000  0.4016370000000 1.0
C      1  0.5193360000000  0.4879720000000  0.6025010000000 1.0
C      1  0.4197190000000  0.5182470000000  0.4458000000000 1.0
C      1  0.5786100000000  0.5178250000000  0.5539630000000 1.0
C      1  0.4299730000000  0.5709850000000  0.5353560000000 1.0
C      1  0.5699590000000  0.5724430000000  0.4653610000000 1.0
C      1  0.4958530000000  0.5809000000000  0.5159920000000 1.0
C      1  0.5039780000000  0.5814270000000  0.4827900000000 1.0
C      1  0.4948550000000  0.4043010000000  0.5140520000000 1.0
C      1  0.5076390000000  0.4031240000000  0.4855410000000 1.0
C      1  0.5578790000000  0.5355320000000  0.4563410000000 1.0
C      1  0.4426900000000  0.5342300000000  0.5440180000000 1.0
C      1  0.5347550000000  0.5510630000000  0.5528150000000 1.0
C      1  0.4634890000000  0.5529960000000  0.4458170000000 1.0
C      1  0.4726960000000  0.5146310000000  0.4072950000000 1.0
C      1  0.5296300000000  0.5171520000000  0.5945520000000 1.0
C      1  0.5200070000000  0.5434020000000  0.5233750000000 1.0
C      1  0.4788960000000  0.5435170000000  0.4743390000000 1.0
C      1  0.5158820000000  0.4796450000000  0.4117750000000 1.0
C      1  0.4899390000000  0.4797900000000  0.5882250000000 1.0
C      1  0.5081830000000  0.5364300000000  0.5901660000000 1.0
C      1  0.4915740000000  0.5365310000000  0.4107880000000 1.0
C      1  0.5256680000000  0.4835030000000  0.5685850000000 1.0
C      1  0.4716200000000  0.4847590000000  0.4336330000000 1.0
C      1  0.5847790000000  0.4858490000000  0.5424090000000 1.0
C      1  0.4131810000000  0.4871050000000  0.4589310000000 1.0
C      1  0.4569620000000  0.5252200000000  0.4928430000000 1.0
C      1  0.5411940000000  0.5221960000000  0.5069710000000 1.0
C      1  0.5883720000000  0.5377820000000  0.5086060000000 1.0
C      1  0.4133340000000  0.5348330000000  0.4920260000000 1.0
C      1  0.4984040000000  0.4993790000000  0.5608070000000 1.0
C      1  0.5009210000000  0.5020480000000  0.4326860000000 1.0
C      1  0.4296920000000  0.4592710000000  0.4360040000000 1.0
C      1  0.5687350000000  0.4586450000000  0.5663110000000 1.0
C      1  0.5901870000000  0.5133040000000  0.4640150000000 1.0
C      1  0.4087030000000  0.5137280000000  0.5396770000000 1.0
C      1  0.4700310000000  0.4989030000000  0.5051800000000 1.0
C      1  0.5255150000000  0.4967010000000  0.4992300000000 1.0
C      1  0.4399490000000  0.4460100000000  0.5514300000000 1.0
C      1  0.5620200000000  0.4506260000000  0.4465430000000 1.0
C      1  0.5114270000000  0.5514770000000  0.4749370000000 1.0
C      1  0.4879670000000  0.5505600000000  0.5226830000000 1.0
C      1  0.4560990000000  0.4834950000000  0.4587260000000 1.0
C      1  0.5441490000000  0.4815290000000  0.5446770000000 1.0
C      1  0.5179000000000  0.4334840000000  0.4773590000000 1.0
C      1  0.4835480000000  0.4344650000000  0.5197440000000 1.0
C      1  0.5604780000000  0.5622740000000  0.5411760000000 1.0
C      1  0.4379110000000  0.5625800000000  0.4589300000000 1.0
C      1  0.5279710000000  0.5815470000000  0.4324630000000 1.0
C      1  0.4715650000000  0.5814270000000  0.5676590000000 1.0
C      1  0.4251570000000  0.4628760000000  0.5299440000000 1.0
C      1  0.5672580000000  0.4607560000000  0.4763120000000 1.0
C      1  0.4473230000000  0.5781760000000  0.5558580000000 1.0
C      1  0.5522730000000  0.5789670000000  0.4445730000000 1.0
C      1  0.5197860000000  0.5271270000000  0.4201780000000 1.0
C      1  0.4850720000000  0.5219110000000  0.5799160000000 1.0
C      1  0.5420590000000  0.4040290000000  0.4865730000000 1.0
C      1  0.4604800000000  0.4038510000000  0.5115240000000 1.0
C      1  0.4993940000000  0.5816930000000  0.4335480000000 1.0
C      1  0.4999260000000  0.5811360000000  0.5655740000000 1.0
C      1  0.4429370000000  0.5817970000000  0.4790470000000 1.0
C      1  0.5551600000000  0.5806940000000  0.5203080000000 1.0
C      1  0.4865720000000  0.4145700000000  0.4404320000000 1.0
C      1  0.5164090000000  0.4093180000000  0.5613490000000 1.0
C      1  0.3961180000000  0.4693930000000  0.5221740000000 1.0
C      1  0.5964510000000  0.4686620000000  0.4850050000000 1.0
C      1  0.4716370000000  0.4705130000000  0.5541920000000 1.0
C      1  0.5282680000000  0.4717410000000  0.4488710000000 1.0
C      1  0.4993810000000  0.4571490000000  0.4717090000000 1.0
C      1  0.5008240000000  0.4574800000000  0.5301890000000 1.0
C      1  0.5410770000000  0.4978040000000  0.4552240000000 1.0
C      1  0.4579140000000  0.4977200000000  0.5493500000000 1.0
C      1  0.5882510000000  0.4519160000000  0.5400170000000 1.0
C      1  0.4115250000000  0.4530060000000  0.4625140000000 1.0
C      1  0.4363700000000  0.5030780000000  0.4786690000000 1.0
C      1  0.5613230000000  0.5008040000000  0.5223240000000 1.0
C      1  0.5424630000000  0.5445390000000  0.4848250000000 1.0
C      1  0.4549290000000  0.5473070000000  0.5150030000000 1.0
C      1  0.4948600000000  0.4364540000000  0.4248730000000 1.0
C      1  0.5075190000000  0.4307290000000  0.5751440000000 1.0
C      1  0.5010260000000  0.5088680000000  0.5283160000000 1.0
C      1  0.4968150000000  0.5094970000000  0.4643540000000 1.0
C      1  0.5237240000000  0.4763590000000  0.5217090000000 1.0
C      1  0.4755960000000  0.4766400000000  0.4830460000000 1.0
C      1  0.5236490000000  0.4317480000000  0.5102250000000 1.0
C      1  0.4695570000000  0.4448820000000  0.4947750000000 1.0
C      1  0.4886090000000  0.4527870000000  0.5705420000000 1.0
C      1  0.5166710000000  0.4533990000000  0.4293480000000 1.0
C      1  0.4555590000000  0.4258180000000  0.5371730000000 1.0
C      1  0.5478830000000  0.4282650000000  0.4633470000000 1.0
C      1  0.4550080000000  0.4100230000000  0.4819950000000 1.0
C      1  0.5531040000000  0.4057720000000  0.5149630000000 1.0
C      1  0.5706320000000  0.4272730000000  0.5240220000000 1.0
C      1  0.4346530000000  0.4296870000000  0.4731470000000 1.0
C      1  0.5835150000000  0.4964170000000  0.4352640000000 1.0
C      1  0.4164750000000  0.4974650000000  0.5687920000000 1.0
C      1  0.5234180000000  0.4567220000000  0.5897170000000 1.0
C      1  0.4730260000000  0.4546250000000  0.4127940000000 1.0
C      1  0.4980170000000  0.5078610000000  0.4940830000000 1.0
END
