TITL C-2782233-7966-45 -0.0012961470046416 125000 -829.868924363721 0 0 132 (T23) n - 1
REM
REM in /home/nfs/bkarasulu/CARBON/AIRSS/Generating-Clusters/REBO/Higher-Symm/SD-CG/HFTN-CG
REM
REM
REM
REM
REM
REM ./C.cell (12c818d87b63d06a65506943cc24bca4)
REM
REM compiler GCC version 9.2.1 20190827 (Red Hat 9.2.1-1)
REM options -cpp -mtune=generic -march=x86-64 -g -O0 -fpre-include=/usr/include/finclude/math-vector-fortran.h
REM seed 323754039 1991923621 920493650 -1828048157 -1483148146 -693002676 -1449127445 -1087062760 -1265780860 -1321338526 94192080 904406796 -1955723979 -1858697542 -166265975 -488395504 1232186473 -1445549519 -1592498835 -547794095 -1843939875 -102160939 -1952505816 236468719 -1998212641 -448737957 544901218 1865454716 94215028 -1502060218 -920412711 -521593029 -992117017
REM
CELL 1.54180   50.00000   50.00000   50.00000   90.00000   90.00000   90.00000
LATT -1
SFAC C  
C      1  0.5318510000000  0.4286430000000  0.4419120000000 1.0
C      1  0.4419140000000  0.5318590000000  0.4286450000000 1.0
C      1  0.4286420000000  0.4419160000000  0.5318560000000 1.0
C      1  0.5318590000000  0.5713540000000  0.5580870000000 1.0
C      1  0.4681460000000  0.5713590000000  0.4419160000000 1.0
C      1  0.4681430000000  0.4286430000000  0.5580850000000 1.0
C      1  0.4419140000000  0.4681460000000  0.5713570000000 1.0
C      1  0.5580830000000  0.4681440000000  0.4286410000000 1.0
C      1  0.5580890000000  0.5318520000000  0.5713560000000 1.0
C      1  0.4286450000000  0.5580890000000  0.4681470000000 1.0
C      1  0.5713600000000  0.5580830000000  0.5318550000000 1.0
C      1  0.5713540000000  0.4419120000000  0.4681420000000 1.0
C      1  0.5347630000000  0.4495980000000  0.4238410000000 1.0
C      1  0.4495960000000  0.4238430000000  0.5347660000000 1.0
C      1  0.4238420000000  0.5347700000000  0.4496000000000 1.0
C      1  0.5347700000000  0.5503990000000  0.5761580000000 1.0
C      1  0.4652330000000  0.4495980000000  0.5761580000000 1.0
C      1  0.4652340000000  0.5504050000000  0.4238440000000 1.0
C      1  0.4496000000000  0.5761600000000  0.4652360000000 1.0
C      1  0.5503980000000  0.4238410000000  0.4652310000000 1.0
C      1  0.5504060000000  0.5761550000000  0.5347670000000 1.0
C      1  0.4238420000000  0.4652350000000  0.5504030000000 1.0
C      1  0.5761600000000  0.5347630000000  0.5504010000000 1.0
C      1  0.5761550000000  0.4652320000000  0.4495960000000 1.0
C      1  0.4793980000000  0.5384640000000  0.5928350000000 1.0
C      1  0.5928340000000  0.4793900000000  0.5384620000000 1.0
C      1  0.5384680000000  0.5928330000000  0.4793950000000 1.0
C      1  0.4793910000000  0.4615380000000  0.4071660000000 1.0
C      1  0.5206070000000  0.4615330000000  0.5928330000000 1.0
C      1  0.5206050000000  0.5384660000000  0.4071660000000 1.0
C      1  0.5928340000000  0.5206030000000  0.4615330000000 1.0
C      1  0.4071680000000  0.5206090000000  0.5384670000000 1.0
C      1  0.4071640000000  0.4793980000000  0.4615370000000 1.0
C      1  0.5384620000000  0.4071640000000  0.5206030000000 1.0
C      1  0.4615310000000  0.4071680000000  0.4793930000000 1.0
C      1  0.4615390000000  0.5928350000000  0.5206080000000 1.0
C      1  0.4819000000000  0.5910690000000  0.5402960000000 1.0
C      1  0.5910700000000  0.5402910000000  0.4818950000000 1.0
C      1  0.5402960000000  0.4818930000000  0.5910680000000 1.0
C      1  0.4818920000000  0.4089320000000  0.4597040000000 1.0
C      1  0.5181060000000  0.5910690000000  0.4597070000000 1.0
C      1  0.5181020000000  0.4089290000000  0.5402920000000 1.0
C      1  0.5910680000000  0.4597020000000  0.5181010000000 1.0
C      1  0.4089330000000  0.5402970000000  0.5181070000000 1.0
C      1  0.4089290000000  0.4597090000000  0.4818970000000 1.0
C      1  0.5402930000000  0.5181040000000  0.4089300000000 1.0
C      1  0.4597030000000  0.4818990000000  0.4089310000000 1.0
C      1  0.4597080000000  0.5181040000000  0.5910700000000 1.0
C      1  0.4891000000000  0.4178850000000  0.5337770000000 1.0
C      1  0.5337760000000  0.4891020000000  0.4178840000000 1.0
C      1  0.4178860000000  0.5337810000000  0.4891050000000 1.0
C      1  0.4891050000000  0.5821160000000  0.4662240000000 1.0
C      1  0.5109020000000  0.5821140000000  0.5337790000000 1.0
C      1  0.5108940000000  0.4178860000000  0.4662200000000 1.0
C      1  0.5337800000000  0.5108950000000  0.5821140000000 1.0
C      1  0.4662210000000  0.5109010000000  0.4178860000000 1.0
C      1  0.4662240000000  0.4891020000000  0.5821150000000 1.0
C      1  0.4178840000000  0.4662250000000  0.5108990000000 1.0
C      1  0.5821130000000  0.4662190000000  0.4891000000000 1.0
C      1  0.5821160000000  0.5337750000000  0.5108970000000 1.0
C      1  0.4920020000000  0.5327600000000  0.4133270000000 1.0
C      1  0.5327540000000  0.4133250000000  0.4920000000000 1.0
C      1  0.4133270000000  0.4920050000000  0.5327600000000 1.0
C      1  0.4920030000000  0.4672410000000  0.5866730000000 1.0
C      1  0.5080000000000  0.5327560000000  0.5866740000000 1.0
C      1  0.5079940000000  0.4672440000000  0.4133250000000 1.0
C      1  0.5327610000000  0.5866720000000  0.5079980000000 1.0
C      1  0.4672390000000  0.4133270000000  0.5079960000000 1.0
C      1  0.4672450000000  0.5866750000000  0.4920050000000 1.0
C      1  0.4133260000000  0.5080010000000  0.4672440000000 1.0
C      1  0.5866730000000  0.4920000000000  0.4672400000000 1.0
C      1  0.5866750000000  0.5079930000000  0.5327560000000 1.0
C      1  0.4504140000000  0.5318680000000  0.4933230000000 1.0
C      1  0.4933200000000  0.4504130000000  0.5318660000000 1.0
C      1  0.5318650000000  0.4933210000000  0.4504120000000 1.0
C      1  0.4504120000000  0.4681350000000  0.5066790000000 1.0
C      1  0.5495860000000  0.4681320000000  0.4933200000000 1.0
C      1  0.5495880000000  0.5318640000000  0.5066780000000 1.0
C      1  0.4933230000000  0.5495880000000  0.4681350000000 1.0
C      1  0.5066810000000  0.5495860000000  0.5318670000000 1.0
C      1  0.5066760000000  0.4504130000000  0.4681330000000 1.0
C      1  0.5318680000000  0.5066760000000  0.5495870000000 1.0
C      1  0.4681330000000  0.5066800000000  0.4504140000000 1.0
C      1  0.4681340000000  0.4933220000000  0.5495880000000 1.0
C      1  0.4453240000000  0.4899750000000  0.5276630000000 1.0
C      1  0.4899730000000  0.5276630000000  0.4453250000000 1.0
C      1  0.5276600000000  0.4453230000000  0.4899720000000 1.0
C      1  0.4453240000000  0.5100290000000  0.4723400000000 1.0
C      1  0.5546750000000  0.4899720000000  0.4723370000000 1.0
C      1  0.5546770000000  0.5100240000000  0.5276610000000 1.0
C      1  0.4899730000000  0.4723380000000  0.5546760000000 1.0
C      1  0.5100290000000  0.5276600000000  0.5546760000000 1.0
C      1  0.5100250000000  0.4723390000000  0.4453230000000 1.0
C      1  0.5276640000000  0.5546750000000  0.5100270000000 1.0
C      1  0.4723360000000  0.4453250000000  0.5100260000000 1.0
C      1  0.4723400000000  0.5546770000000  0.4899750000000 1.0
C      1  0.4738430000000  0.5840830000000  0.5666480000000 1.0
C      1  0.5666460000000  0.4738350000000  0.5840810000000 1.0
C      1  0.5840850000000  0.5666430000000  0.4738380000000 1.0
C      1  0.4738340000000  0.4159190000000  0.4333530000000 1.0
C      1  0.5261600000000  0.4159150000000  0.5666430000000 1.0
C      1  0.5261630000000  0.5840830000000  0.4333550000000 1.0
C      1  0.5666450000000  0.5261600000000  0.4159160000000 1.0
C      1  0.4333570000000  0.5261620000000  0.5840850000000 1.0
C      1  0.4333520000000  0.4738430000000  0.4159180000000 1.0
C      1  0.5840810000000  0.4333510000000  0.5261580000000 1.0
C      1  0.4159140000000  0.4333580000000  0.4738390000000 1.0
C      1  0.4159200000000  0.5666480000000  0.5261640000000 1.0
C      1  0.4719000000000  0.5649830000000  0.5859310000000 1.0
C      1  0.5649860000000  0.5859270000000  0.4718960000000 1.0
C      1  0.5859290000000  0.4718920000000  0.5649810000000 1.0
C      1  0.4718920000000  0.4350190000000  0.4140710000000 1.0
C      1  0.5281040000000  0.5649840000000  0.4140720000000 1.0
C      1  0.5281030000000  0.4350140000000  0.5859270000000 1.0
C      1  0.5649810000000  0.4140680000000  0.5281010000000 1.0
C      1  0.4350200000000  0.5859310000000  0.5281070000000 1.0
C      1  0.4350130000000  0.4140740000000  0.4718960000000 1.0
C      1  0.5859280000000  0.5281020000000  0.4350150000000 1.0
C      1  0.4140690000000  0.4719010000000  0.4350180000000 1.0
C      1  0.4140740000000  0.5281060000000  0.5649860000000 1.0
C      1  0.4815330000000  0.5210220000000  0.5433900000000 1.0
C      1  0.5184680000000  0.5210220000000  0.4566100000000 1.0
C      1  0.5184690000000  0.4789770000000  0.5433890000000 1.0
C      1  0.4815300000000  0.4789800000000  0.4566100000000 1.0
C      1  0.4566090000000  0.4815330000000  0.4789790000000 1.0
C      1  0.4789760000000  0.4566110000000  0.4815310000000 1.0
C      1  0.4566120000000  0.5184700000000  0.5210230000000 1.0
C      1  0.5433900000000  0.5184670000000  0.4789780000000 1.0
C      1  0.5433890000000  0.4815290000000  0.5210200000000 1.0
C      1  0.4789800000000  0.5433900000000  0.5184700000000 1.0
C      1  0.5210230000000  0.5433890000000  0.4815320000000 1.0
C      1  0.5210200000000  0.4566090000000  0.5184670000000 1.0
END
