TITL C-2782225-7408-1274 -0.0010194023075058 125000 -611.558084273251 0 0 107 (D3) n - 1
REM
REM in /home/nfs/bkarasulu/CARBON/AIRSS/Generating-Clusters/REBO/Higher-Symm/SD-CG/HFTN-CG
REM
REM
REM
REM
REM
REM ./C.cell (12c818d87b63d06a65506943cc24bca4)
REM
REM compiler GCC version 9.2.1 20190827 (Red Hat 9.2.1-1)
REM options -cpp -mtune=generic -march=x86-64 -g -O0 -fpre-include=/usr/include/finclude/math-vector-fortran.h
REM seed 197651688 -153433987 356165815 343970073 1893859142 1834650037 1645976790 -1478252384 -704260168 620210020 -1593992211 -712250224 -1417906111 1641359815 2092925106 1885066017 -17975862 427541038 -834427752 -381820719 -1583646277 -667271530 1183371966 1985804309 873811224 -692351094 -1540258695 473087775 -1489622903 -2126157652 1208867224 -1463602697 -332226503
REM
CELL 1.54180   50.00000   50.00000   50.00000   90.00000   90.00000   90.00000
LATT -1
SFAC C  
C      1  0.4803580000000  0.5204100000000  0.4193810000000 1.0
C      1  0.4400180000000  0.5204190000000  0.5571500000000 1.0
C      1  0.5794990000000  0.5204080000000  0.5232010000000 1.0
C      1  0.4803510000000  0.4781750000000  0.5804410000000 1.0
C      1  0.4400180000000  0.4781710000000  0.4426710000000 1.0
C      1  0.5794970000000  0.4781630000000  0.4766260000000 1.0
C      1  0.5118190000000  0.4171660000000  0.5153250000000 1.0
C      1  0.5073620000000  0.4171650000000  0.4819330000000 1.0
C      1  0.4806730000000  0.4171670000000  0.5024890000000 1.0
C      1  0.5118310000000  0.5814150000000  0.4844990000000 1.0
C      1  0.5073730000000  0.5814170000000  0.5178900000000 1.0
C      1  0.4806840000000  0.5814170000000  0.4973330000000 1.0
C      1  0.5517600000000  0.4966010000000  0.4855110000000 1.0
C      1  0.4615840000000  0.4966060000000  0.4622490000000 1.0
C      1  0.4865270000000  0.4966090000000  0.5519750000000 1.0
C      1  0.5517600000000  0.5019740000000  0.5143150000000 1.0
C      1  0.4615820000000  0.5019810000000  0.5375720000000 1.0
C      1  0.4865300000000  0.5019750000000  0.4478480000000 1.0
C      1  0.5298570000000  0.4400370000000  0.4802610000000 1.0
C      1  0.4679810000000  0.4400410000000  0.4838430000000 1.0
C      1  0.5020210000000  0.4400410000000  0.5356390000000 1.0
C      1  0.5298640000000  0.5585410000000  0.5195630000000 1.0
C      1  0.4679880000000  0.5585450000000  0.5159780000000 1.0
C      1  0.5020310000000  0.5585400000000  0.4641840000000 1.0
C      1  0.4419840000000  0.5524430000000  0.5454670000000 1.0
C      1  0.5684030000000  0.5524340000000  0.5273390000000 1.0
C      1  0.4894950000000  0.5524340000000  0.4269210000000 1.0
C      1  0.4419790000000  0.4461470000000  0.4543540000000 1.0
C      1  0.5683970000000  0.4461390000000  0.4724870000000 1.0
C      1  0.4894840000000  0.4461490000000  0.5729020000000 1.0
C      1  0.5470760000000  0.4331160000000  0.5496450000000 1.0
C      1  0.5194580000000  0.4331120000000  0.4342400000000 1.0
C      1  0.4333230000000  0.4331220000000  0.5158600000000 1.0
C      1  0.5470870000000  0.5654600000000  0.4501810000000 1.0
C      1  0.5194640000000  0.5654680000000  0.5655840000000 1.0
C      1  0.4333330000000  0.5654690000000  0.4839600000000 1.0
C      1  0.4534840000000  0.5226960000000  0.4771870000000 1.0
C      1  0.5035170000000  0.5226960000000  0.5515210000000 1.0
C      1  0.5428750000000  0.5226900000000  0.4710240000000 1.0
C      1  0.4534790000000  0.4758920000000  0.5226340000000 1.0
C      1  0.5035160000000  0.4758850000000  0.4483030000000 1.0
C      1  0.5428710000000  0.4758870000000  0.5288010000000 1.0
C      1  0.5115610000000  0.4667280000000  0.5875690000000 1.0
C      1  0.5700640000000  0.4667160000000  0.4460340000000 1.0
C      1  0.4182390000000  0.4667280000000  0.4661370000000 1.0
C      1  0.5115700000000  0.5318530000000  0.4122540000000 1.0
C      1  0.5700660000000  0.5318560000000  0.5537930000000 1.0
C      1  0.4182420000000  0.5318660000000  0.5336830000000 1.0
C      1  0.5641830000000  0.4520190000000  0.5268320000000 1.0
C      1  0.4911510000000  0.4520200000000  0.4308300000000 1.0
C      1  0.4445270000000  0.4520280000000  0.5420790000000 1.0
C      1  0.5641910000000  0.5465540000000  0.4729940000000 1.0
C      1  0.4911540000000  0.5465640000000  0.5689930000000 1.0
C      1  0.4445350000000  0.5465620000000  0.4577410000000 1.0
C      1  0.5609300000000  0.4929660000000  0.5521790000000 1.0
C      1  0.5147350000000  0.4929630000000  0.4209730000000 1.0
C      1  0.4242050000000  0.4929750000000  0.5265830000000 1.0
C      1  0.5609340000000  0.5056070000000  0.4476470000000 1.0
C      1  0.5147320000000  0.5056170000000  0.5788510000000 1.0
C      1  0.4242070000000  0.5056180000000  0.4732370000000 1.0
C      1  0.5822300000000  0.5175350000000  0.4716410000000 1.0
C      1  0.4343400000000  0.5175440000000  0.4427960000000 1.0
C      1  0.4833050000000  0.5175480000000  0.5852950000000 1.0
C      1  0.5822260000000  0.4810350000000  0.5281860000000 1.0
C      1  0.4343350000000  0.4810470000000  0.5570240000000 1.0
C      1  0.4833060000000  0.4810370000000  0.4145270000000 1.0
C      1  0.4194620000000  0.4800670000000  0.4959840000000 1.0
C      1  0.5368000000000  0.4800630000000  0.5715870000000 1.0
C      1  0.5436050000000  0.4800550000000  0.4321670000000 1.0
C      1  0.4194640000000  0.5185260000000  0.5038350000000 1.0
C      1  0.5368060000000  0.5185140000000  0.4282380000000 1.0
C      1  0.5436040000000  0.5185210000000  0.5676580000000 1.0
C      1  0.4710200000000  0.5629010000000  0.5492710000000 1.0
C      1  0.5571820000000  0.5628920000000  0.5002910000000 1.0
C      1  0.4716830000000  0.5628960000000  0.4501630000000 1.0
C      1  0.4710130000000  0.4356860000000  0.4505510000000 1.0
C      1  0.5571730000000  0.4356820000000  0.4995340000000 1.0
C      1  0.4716720000000  0.4356900000000  0.5496590000000 1.0
C      1  0.5212380000000  0.4382090000000  0.5627210000000 1.0
C      1  0.5437020000000  0.4382020000000  0.4500780000000 1.0
C      1  0.4349180000000  0.4382110000000  0.4869450000000 1.0
C      1  0.5212490000000  0.5603700000000  0.4371030000000 1.0
C      1  0.5437080000000  0.5603740000000  0.5497470000000 1.0
C      1  0.4349260000000  0.5603800000000  0.5128750000000 1.0
C      1  0.4723150000000  0.4683470000000  0.4998590000000 1.0
C      1  0.5137280000000  0.4683450000000  0.5238770000000 1.0
C      1  0.5138220000000  0.4683430000000  0.4760030000000 1.0
C      1  0.4723190000000  0.5302390000000  0.4999630000000 1.0
C      1  0.5137340000000  0.5302350000000  0.4759470000000 1.0
C      1  0.5138250000000  0.5302380000000  0.5238210000000 1.0
C      1  0.5418430000000  0.4750640000000  0.4650430000000 1.0
C      1  0.4488130000000  0.4750710000000  0.4810720000000 1.0
C      1  0.5092090000000  0.4750710000000  0.5536240000000 1.0
C      1  0.5418450000000  0.5235120000000  0.5347820000000 1.0
C      1  0.4488160000000  0.5235180000000  0.5187490000000 1.0
C      1  0.5092150000000  0.5235100000000  0.4462000000000 1.0
C      1  0.4983940000000  0.5791470000000  0.5474250000000 1.0
C      1  0.5418980000000  0.5791400000000  0.4775080000000 1.0
C      1  0.4595960000000  0.5791460000000  0.4747900000000 1.0
C      1  0.4983850000000  0.4194360000000  0.4523980000000 1.0
C      1  0.5418860000000  0.4194360000000  0.5223180000000 1.0
C      1  0.4595840000000  0.4194420000000  0.5250310000000 1.0
C      1  0.4555170000000  0.4992980000000  0.5768800000000 1.0
C      1  0.5888340000000  0.4992850000000  0.4999140000000 1.0
C      1  0.4555200000000  0.4992900000000  0.4229410000000 1.0
C      1  0.4999580000000  0.5163750000000  0.4999110000000 1.0
C      1  0.4999560000000  0.4822070000000  0.4999120000000 1.0
END
