TITL C-2782235-7892-1428 0.0661340643362047 125000 -269.10172092446 0 0 45 (C1) n - 1
REM
REM in /home/nfs/bkarasulu/CARBON/AIRSS/Generating-Clusters/REBO/Higher-Symm/SD-CG/HFTN-CG
REM
REM
REM
REM
REM
REM ./C.cell (12c818d87b63d06a65506943cc24bca4)
REM
REM compiler GCC version 9.2.1 20190827 (Red Hat 9.2.1-1)
REM options -cpp -mtune=generic -march=x86-64 -g -O0 -fpre-include=/usr/include/finclude/math-vector-fortran.h
REM seed 1011773201 -587890353 -1429667552 -1842043112 203642937 532554425 2080204806 1838047280 -62611620 1170207324 983372483 1901673740 -1329792950 327110762 306808350 -1146163876 286004014 -1231046358 -416704934 777483522 -1799653886 -1135539481 563690484 -508310254 -1707668438 -294230412 -1392692206 -545984061 1938342786 1700557118 -1135417144 1088538201 1406559593
REM
CELL 1.54180   50.00000   50.00000   50.00000   90.00000   90.00000   90.00000
LATT -1
SFAC C  
C      1  0.4719290000000  0.4676200000000  0.5126740000000 1.0
C      1  0.4861040000000  0.4948500000000  0.5799980000000 1.0
C      1  0.4520010000000  0.5208620000000  0.5175160000000 1.0
C      1  0.4679000000000  0.5509080000000  0.5194270000000 1.0
C      1  0.5198150000000  0.5761900000000  0.5594830000000 1.0
C      1  0.5486000000000  0.5308260000000  0.5813090000000 1.0
C      1  0.5374750000000  0.5087790000000  0.5141160000000 1.0
C      1  0.5285060000000  0.4595920000000  0.5328450000000 1.0
C      1  0.5269510000000  0.4860890000000  0.6005680000000 1.0
C      1  0.4996830000000  0.4342290000000  0.6010640000000 1.0
C      1  0.4781590000000  0.4200840000000  0.5484240000000 1.0
C      1  0.5129670000000  0.5493650000000  0.4309710000000 1.0
C      1  0.5340830000000  0.5340360000000  0.4427860000000 1.0
C      1  0.5441130000000  0.5105000000000  0.4304880000000 1.0
C      1  0.5369490000000  0.4853430000000  0.4415090000000 1.0
C      1  0.5183860000000  0.4678320000000  0.4286000000000 1.0
C      1  0.4930500000000  0.4622570000000  0.4405870000000 1.0
C      1  0.4684590000000  0.4717240000000  0.4299430000000 1.0
C      1  0.4543840000000  0.4925740000000  0.4433020000000 1.0
C      1  0.4506390000000  0.5176710000000  0.4309200000000 1.0
C      1  0.4639670000000  0.5413570000000  0.4307420000000 1.0
C      1  0.4870890000000  0.5517980000000  0.4430540000000 1.0
C      1  0.5333130000000  0.5062410000000  0.5420230000000 1.0
C      1  0.5281400000000  0.4800580000000  0.5520640000000 1.0
C      1  0.5193390000000  0.4726970000000  0.5781710000000 1.0
C      1  0.5015230000000  0.4501760000000  0.5790910000000 1.0
C      1  0.4858180000000  0.4452310000000  0.5554510000000 1.0
C      1  0.4783860000000  0.4681790000000  0.5400580000000 1.0
C      1  0.4794300000000  0.4932380000000  0.5536200000000 1.0
C      1  0.4738050000000  0.5169280000000  0.5391810000000 1.0
C      1  0.4898140000000  0.5432710000000  0.5408260000000 1.0
C      1  0.5137900000000  0.5503450000000  0.5533680000000 1.0
C      1  0.5322950000000  0.5292540000000  0.5595280000000 1.0
C      1  0.4938030000000  0.4605080000000  0.4693340000000 1.0
C      1  0.4715050000000  0.4709490000000  0.4846540000000 1.0
C      1  0.4560130000000  0.4920290000000  0.4719830000000 1.0
C      1  0.4518460000000  0.5158940000000  0.4867980000000 1.0
C      1  0.4664860000000  0.5439990000000  0.4886680000000 1.0
C      1  0.4877920000000  0.5529160000000  0.4717800000000 1.0
C      1  0.5142720000000  0.5518400000000  0.4828390000000 1.0
C      1  0.5333440000000  0.5336140000000  0.4717330000000 1.0
C      1  0.5386580000000  0.5088520000000  0.4858420000000 1.0
C      1  0.5361520000000  0.4843120000000  0.4703770000000 1.0
C      1  0.5199740000000  0.4628800000000  0.4814590000000 1.0
C      1  0.5254250000000  0.4533200000000  0.5070300000000 1.0
END
