TITL C-2782227-3064-757 0.000339898909869703 125000 -485.765584489023 0 0 85 (C1) n - 1
REM
REM in /home/nfs/bkarasulu/CARBON/AIRSS/Generating-Clusters/REBO/Higher-Symm/SD-CG/HFTN-CG
REM
REM
REM
REM
REM
REM ./C.cell (12c818d87b63d06a65506943cc24bca4)
REM
REM compiler GCC version 9.2.1 20190827 (Red Hat 9.2.1-1)
REM options -cpp -mtune=generic -march=x86-64 -g -O0 -fpre-include=/usr/include/finclude/math-vector-fortran.h
REM seed -1401362993 -1068564263 -45942031 1800184119 -1442984213 -436726459 1241445421 -1704349437 587565947 160289593 -1607481637 347673191 -1993957796 -140698000 295248531 1558749263 624213781 587565303 -874420231 -1159665912 -1834533668 1645234000 -908177617 -1792179569 -1009673299 1742357673 267469853 -1046072684 462351576 -746896904 832662754 -1094639296 119827216
REM
CELL 1.54180   50.00000   50.00000   50.00000   90.00000   90.00000   90.00000
LATT -1
SFAC C  
C      1  0.4865680000000  0.5167500000000  0.4331560000000 1.0
C      1  0.5096560000000  0.5225700000000  0.5599270000000 1.0
C      1  0.5188450000000  0.4469270000000  0.4861240000000 1.0
C      1  0.4842280000000  0.4337460000000  0.5251870000000 1.0
C      1  0.4578220000000  0.5281720000000  0.4955290000000 1.0
C      1  0.5408240000000  0.5093200000000  0.4973860000000 1.0
C      1  0.4929930000000  0.5424300000000  0.6024400000000 1.0
C      1  0.4989040000000  0.5518640000000  0.4010240000000 1.0
C      1  0.5369320000000  0.5349160000000  0.4877650000000 1.0
C      1  0.4590680000000  0.5509940000000  0.5153680000000 1.0
C      1  0.4546150000000  0.4350490000000  0.5109460000000 1.0
C      1  0.5512070000000  0.4445780000000  0.4947940000000 1.0
C      1  0.5594090000000  0.5535770000000  0.4965280000000 1.0
C      1  0.4283950000000  0.5536390000000  0.5044570000000 1.0
C      1  0.4057990000000  0.5353920000000  0.4301970000000 1.0
C      1  0.6123150000000  0.5109050000000  0.5713740000000 1.0
C      1  0.5235240000000  0.4868570000000  0.4873410000000 1.0
C      1  0.4685720000000  0.5009420000000  0.5055170000000 1.0
C      1  0.5129020000000  0.4272410000000  0.4596620000000 1.0
C      1  0.4834490000000  0.4321160000000  0.5558080000000 1.0
C      1  0.5232790000000  0.5435890000000  0.4597680000000 1.0
C      1  0.4715110000000  0.5504780000000  0.5443360000000 1.0
C      1  0.5633340000000  0.4572670000000  0.5426340000000 1.0
C      1  0.4347080000000  0.4719810000000  0.4419960000000 1.0
C      1  0.4755570000000  0.5619150000000  0.5942070000000 1.0
C      1  0.5142220000000  0.5694580000000  0.4153910000000 1.0
C      1  0.5073920000000  0.5244170000000  0.5875570000000 1.0
C      1  0.4875550000000  0.5282800000000  0.4091440000000 1.0
C      1  0.4925530000000  0.5017380000000  0.4633880000000 1.0
C      1  0.5108510000000  0.4760840000000  0.5171250000000 1.0
C      1  0.5956780000000  0.4998120000000  0.5555170000000 1.0
C      1  0.4210320000000  0.5231060000000  0.4471940000000 1.0
C      1  0.4943680000000  0.5342760000000  0.4599150000000 1.0
C      1  0.5018850000000  0.5444240000000  0.5432860000000 1.0
C      1  0.4443370000000  0.5631630000000  0.4803490000000 1.0
C      1  0.5496180000000  0.5699130000000  0.5176600000000 1.0
C      1  0.4664690000000  0.4530110000000  0.5661020000000 1.0
C      1  0.5305920000000  0.4428020000000  0.4381220000000 1.0
C      1  0.4854110000000  0.6033620000000  0.4872680000000 1.0
C      1  0.5068670000000  0.6061860000000  0.5035220000000 1.0
C      1  0.4977590000000  0.4797540000000  0.4397360000000 1.0
C      1  0.4990300000000  0.4890180000000  0.5453630000000 1.0
C      1  0.4707310000000  0.4150000000000  0.4926980000000 1.0
C      1  0.5442520000000  0.4158330000000  0.5050440000000 1.0
C      1  0.5697060000000  0.4560020000000  0.4724290000000 1.0
C      1  0.4376300000000  0.4549080000000  0.5232810000000 1.0
C      1  0.5169970000000  0.4694620000000  0.5671590000000 1.0
C      1  0.4735620000000  0.4610360000000  0.4442850000000 1.0
C      1  0.4991770000000  0.4122430000000  0.4872410000000 1.0
C      1  0.5163720000000  0.4153200000000  0.5102950000000 1.0
C      1  0.5771500000000  0.5044180000000  0.4699150000000 1.0
C      1  0.4215320000000  0.5017800000000  0.5302610000000 1.0
C      1  0.4897770000000  0.4500270000000  0.4958570000000 1.0
C      1  0.5155010000000  0.4455800000000  0.5258440000000 1.0
C      1  0.5100660000000  0.4360170000000  0.5664550000000 1.0
C      1  0.4817790000000  0.4308780000000  0.4510490000000 1.0
C      1  0.4406330000000  0.5242270000000  0.4724000000000 1.0
C      1  0.5589330000000  0.5037610000000  0.5164060000000 1.0
C      1  0.4708890000000  0.4505350000000  0.4745510000000 1.0
C      1  0.5368280000000  0.4483500000000  0.5500840000000 1.0
C      1  0.4422570000000  0.4912960000000  0.4895540000000 1.0
C      1  0.5708340000000  0.4659900000000  0.5108700000000 1.0
C      1  0.4844110000000  0.4747040000000  0.5729960000000 1.0
C      1  0.5140460000000  0.4589000000000  0.4214740000000 1.0
C      1  0.5243940000000  0.5901970000000  0.5174610000000 1.0
C      1  0.4691100000000  0.5836610000000  0.4773070000000 1.0
C      1  0.4443580000000  0.4622120000000  0.5510260000000 1.0
C      1  0.5530190000000  0.4629450000000  0.4485100000000 1.0
C      1  0.5203020000000  0.5615040000000  0.5318150000000 1.0
C      1  0.4733550000000  0.5531310000000  0.4684120000000 1.0
C      1  0.4658390000000  0.5678710000000  0.5693870000000 1.0
C      1  0.5245220000000  0.5685360000000  0.4406150000000 1.0
C      1  0.4507310000000  0.5251130000000  0.5445040000000 1.0
C      1  0.5521600000000  0.5287380000000  0.4515990000000 1.0
C      1  0.5741350000000  0.5359930000000  0.4736860000000 1.0
C      1  0.4246850000000  0.5313000000000  0.5244150000000 1.0
C      1  0.4257330000000  0.4793950000000  0.5107570000000 1.0
C      1  0.5834310000000  0.4808920000000  0.4840380000000 1.0
C      1  0.5763630000000  0.4869340000000  0.5371080000000 1.0
C      1  0.4343320000000  0.4939400000000  0.4580680000000 1.0
C      1  0.5265930000000  0.4816610000000  0.4576670000000 1.0
C      1  0.4710810000000  0.5006510000000  0.5356510000000 1.0
C      1  0.4429130000000  0.4927910000000  0.5526110000000 1.0
C      1  0.5537550000000  0.4969690000000  0.4463690000000 1.0
C      1  0.4922800000000  0.4911050000000  0.4927310000000 1.0
END
