TITL C-2782226-7400-303 -0.0185161241372573 125000 -187.29330546766 0 0 34 (C1) n - 1
REM
REM in /home/nfs/bkarasulu/CARBON/AIRSS/Generating-Clusters/REBO/Higher-Symm/SD-CG/HFTN-CG
REM
REM
REM
REM
REM
REM ./C.cell (12c818d87b63d06a65506943cc24bca4)
REM
REM compiler GCC version 9.2.1 20190827 (Red Hat 9.2.1-1)
REM options -cpp -mtune=generic -march=x86-64 -g -O0 -fpre-include=/usr/include/finclude/math-vector-fortran.h
REM seed -703260759 413747549 -143090089 -1272339269 -1327233676 1992930835 -111303127 163797678 -2102232815 -1695691149 354325313 -1465441630 -638670011 -1220115803 -1462175211 -610605294 482899245 -1302156206 -988346010 1221261544 1524707401 393052100 1929177979 156590137 -1872274221 325634762 -1720321069 -760169885 -854076855 -1475620141 -1730521894 263355509 1014654609
REM
CELL 1.54180   50.00000   50.00000   50.00000   90.00000   90.00000   90.00000
LATT -1
SFAC C  
C      1  0.5513690000000  0.5438710000000  0.4785750000000 1.0
C      1  0.4376310000000  0.5035980000000  0.5156090000000 1.0
C      1  0.5241860000000  0.4382190000000  0.5235810000000 1.0
C      1  0.5595860000000  0.5479210000000  0.4515200000000 1.0
C      1  0.4721860000000  0.5108400000000  0.4787710000000 1.0
C      1  0.4847290000000  0.5350100000000  0.4731360000000 1.0
C      1  0.5213000000000  0.5671100000000  0.5102660000000 1.0
C      1  0.4417960000000  0.4571870000000  0.5154980000000 1.0
C      1  0.5571990000000  0.5214310000000  0.4939410000000 1.0
C      1  0.4684870000000  0.5000210000000  0.5069430000000 1.0
C      1  0.4850510000000  0.4539250000000  0.4814230000000 1.0
C      1  0.5053960000000  0.5524710000000  0.4658060000000 1.0
C      1  0.4435250000000  0.4658340000000  0.4182460000000 1.0
C      1  0.4247080000000  0.4795190000000  0.5199290000000 1.0
C      1  0.4910470000000  0.5298000000000  0.5715720000000 1.0
C      1  0.4622940000000  0.4953070000000  0.4578820000000 1.0
C      1  0.4860940000000  0.5123790000000  0.5282220000000 1.0
C      1  0.4528340000000  0.4804520000000  0.4379050000000 1.0
C      1  0.4879160000000  0.4504400000000  0.4562450000000 1.0
C      1  0.5140650000000  0.5560740000000  0.4387790000000 1.0
C      1  0.4360280000000  0.4304450000000  0.5179630000000 1.0
C      1  0.4942620000000  0.4478070000000  0.5124280000000 1.0
C      1  0.5636850000000  0.4949640000000  0.5111030000000 1.0
C      1  0.4690920000000  0.4681320000000  0.5071030000000 1.0
C      1  0.5408460000000  0.5538760000000  0.4319700000000 1.0
C      1  0.4722520000000  0.5215690000000  0.5522500000000 1.0
C      1  0.5374750000000  0.5124190000000  0.5178480000000 1.0
C      1  0.5496160000000  0.4474420000000  0.5219430000000 1.0
C      1  0.4992120000000  0.4217390000000  0.5335680000000 1.0
C      1  0.5144630000000  0.5161670000000  0.5333640000000 1.0
C      1  0.5179130000000  0.5266610000000  0.5608270000000 1.0
C      1  0.5262240000000  0.5569030000000  0.4855800000000 1.0
C      1  0.5662130000000  0.4681870000000  0.5171240000000 1.0
C      1  0.5413200000000  0.5322790000000  0.5730790000000 1.0
END
