TITL C-2782225-7408-191 -0.00502486111923034 125000 -1041.2255182568 0 0 175 (C1) n - 1
REM
REM in /home/nfs/bkarasulu/CARBON/AIRSS/Generating-Clusters/REBO/Higher-Symm/SD-CG/HFTN-CG
REM
REM
REM
REM
REM
REM ./C.cell (12c818d87b63d06a65506943cc24bca4)
REM
REM compiler GCC version 9.2.1 20190827 (Red Hat 9.2.1-1)
REM options -cpp -mtune=generic -march=x86-64 -g -O0 -fpre-include=/usr/include/finclude/math-vector-fortran.h
REM seed -1044874708 -141888342 -1547838754 1613407596 -1039962299 -58315892 -810795993 -1653822382 840109037 -1955989628 43071731 780628922 401589796 110909389 1775424057 -691140538 -298901191 1539986023 1443951369 -1472348169 -1214499633 1544627143 1363600810 -461760673 214746830 -1455546419 -1808088443 1024271666 -1794139065 -905138357 1800542656 890151809 134655683
REM
CELL 1.54180   50.00000   50.00000   50.00000   90.00000   90.00000   90.00000
LATT -1
SFAC C  
C      1  0.5165790000000  0.4198340000000  0.5185060000000 1.0
C      1  0.5097080000000  0.4171790000000  0.4852560000000 1.0
C      1  0.4802280000000  0.4173610000000  0.5003830000000 1.0
C      1  0.5374330000000  0.4734130000000  0.4491750000000 1.0
C      1  0.4360290000000  0.4674410000000  0.4895250000000 1.0
C      1  0.5258870000000  0.4730380000000  0.5709090000000 1.0
C      1  0.5536010000000  0.4780850000000  0.5271230000000 1.0
C      1  0.4930530000000  0.4741970000000  0.4286110000000 1.0
C      1  0.4508880000000  0.4836170000000  0.5479600000000 1.0
C      1  0.4622330000000  0.6018010000000  0.4494580000000 1.0
C      1  0.4690670000000  0.6082750000000  0.5638880000000 1.0
C      1  0.5393090000000  0.5888360000000  0.4741820000000 1.0
C      1  0.4709340000000  0.5845930000000  0.5785350000000 1.0
C      1  0.5559430000000  0.5689690000000  0.4651390000000 1.0
C      1  0.4550460000000  0.5739480000000  0.4439020000000 1.0
C      1  0.4763870000000  0.3982320000000  0.5218440000000 1.0
C      1  0.5337270000000  0.3941390000000  0.5072270000000 1.0
C      1  0.4910980000000  0.3968450000000  0.4680080000000 1.0
C      1  0.4738300000000  0.4523800000000  0.4558190000000 1.0
C      1  0.4657350000000  0.4482940000000  0.5372820000000 1.0
C      1  0.5459910000000  0.4544840000000  0.4959180000000 1.0
C      1  0.4266330000000  0.5462120000000  0.5338190000000 1.0
C      1  0.5598880000000  0.5495980000000  0.5501840000000 1.0
C      1  0.5114160000000  0.5544170000000  0.4058510000000 1.0
C      1  0.5725910000000  0.4546170000000  0.4316590000000 1.0
C      1  0.4153890000000  0.4609570000000  0.4639490000000 1.0
C      1  0.5182620000000  0.4525060000000  0.5934830000000 1.0
C      1  0.5797490000000  0.5279860000000  0.5491520000000 1.0
C      1  0.4944200000000  0.5342100000000  0.3958170000000 1.0
C      1  0.4149960000000  0.5278410000000  0.5531860000000 1.0
C      1  0.4301140000000  0.4571050000000  0.5526330000000 1.0
C      1  0.5737870000000  0.4519060000000  0.5356380000000 1.0
C      1  0.4868260000000  0.4493230000000  0.4060740000000 1.0
C      1  0.5066260000000  0.5401880000000  0.5458550000000 1.0
C      1  0.5444820000000  0.5540470000000  0.5017010000000 1.0
C      1  0.4622030000000  0.5417350000000  0.4882010000000 1.0
C      1  0.4720840000000  0.4924400000000  0.4366640000000 1.0
C      1  0.4714940000000  0.5024590000000  0.5668130000000 1.0
C      1  0.5629570000000  0.4950520000000  0.4991410000000 1.0
C      1  0.5457380000000  0.5365010000000  0.5899890000000 1.0
C      1  0.5595940000000  0.5259560000000  0.4103750000000 1.0
C      1  0.4060230000000  0.5249760000000  0.4818450000000 1.0
C      1  0.4742990000000  0.4678820000000  0.5196440000000 1.0
C      1  0.5284470000000  0.4487370000000  0.5168470000000 1.0
C      1  0.4981020000000  0.4620820000000  0.4758870000000 1.0
C      1  0.4352700000000  0.5847740000000  0.5277850000000 1.0
C      1  0.5576750000000  0.5894480000000  0.5501950000000 1.0
C      1  0.5240950000000  0.5860900000000  0.4265510000000 1.0
C      1  0.4726010000000  0.6186260000000  0.4640400000000 1.0
C      1  0.4776190000000  0.6078920000000  0.5368520000000 1.0
C      1  0.5375000000000  0.6054260000000  0.5021660000000 1.0
C      1  0.4462920000000  0.5284730000000  0.4076120000000 1.0
C      1  0.4474220000000  0.5363050000000  0.5916000000000 1.0
C      1  0.6035690000000  0.5292450000000  0.5053470000000 1.0
C      1  0.5260210000000  0.5747500000000  0.5089640000000 1.0
C      1  0.4854840000000  0.5656040000000  0.4796450000000 1.0
C      1  0.4816880000000  0.5808400000000  0.5284120000000 1.0
C      1  0.5026620000000  0.4736490000000  0.3902450000000 1.0
C      1  0.4053980000000  0.4754870000000  0.5574810000000 1.0
C      1  0.5870420000000  0.4727640000000  0.5559620000000 1.0
C      1  0.5948700000000  0.4851340000000  0.5287140000000 1.0
C      1  0.4751130000000  0.4876620000000  0.3955430000000 1.0
C      1  0.4255150000000  0.4871710000000  0.5784410000000 1.0
C      1  0.5946840000000  0.5142020000000  0.5286830000000 1.0
C      1  0.4716090000000  0.5169190000000  0.3975870000000 1.0
C      1  0.4263700000000  0.5161560000000  0.5767570000000 1.0
C      1  0.4934880000000  0.4345830000000  0.4337850000000 1.0
C      1  0.4384940000000  0.4304910000000  0.5331010000000 1.0
C      1  0.5578580000000  0.4302780000000  0.5510650000000 1.0
C      1  0.5174420000000  0.3709320000000  0.5037720000000 1.0
C      1  0.4928210000000  0.3716310000000  0.4819540000000 1.0
C      1  0.4867530000000  0.3725610000000  0.5142940000000 1.0
C      1  0.4689450000000  0.4809130000000  0.6035370000000 1.0
C      1  0.5970320000000  0.4885000000000  0.4792690000000 1.0
C      1  0.4260240000000  0.4835200000000  0.4077930000000 1.0
C      1  0.5452760000000  0.4818750000000  0.4211320000000 1.0
C      1  0.4148980000000  0.4819390000000  0.5087760000000 1.0
C      1  0.5488270000000  0.4909420000000  0.5762710000000 1.0
C      1  0.5108430000000  0.4667600000000  0.4498580000000 1.0
C      1  0.4626600000000  0.4760150000000  0.4952720000000 1.0
C      1  0.5222430000000  0.4711850000000  0.5391020000000 1.0
C      1  0.5111300000000  0.4264320000000  0.5800470000000 1.0
C      1  0.5561220000000  0.4345350000000  0.4454370000000 1.0
C      1  0.4286170000000  0.4326990000000  0.4715540000000 1.0
C      1  0.5493920000000  0.5380510000000  0.4737440000000 1.0
C      1  0.4547760000000  0.5423810000000  0.4577920000000 1.0
C      1  0.4901150000000  0.5588720000000  0.5683780000000 1.0
C      1  0.4619360000000  0.4093390000000  0.5438480000000 1.0
C      1  0.5563930000000  0.4001900000000  0.4936130000000 1.0
C      1  0.4762860000000  0.4117210000000  0.4491680000000 1.0
C      1  0.4305400000000  0.4344950000000  0.5720570000000 1.0
C      1  0.5986190000000  0.4396080000000  0.5263920000000 1.0
C      1  0.4682900000000  0.4360410000000  0.3904040000000 1.0
C      1  0.5653800000000  0.4255880000000  0.4765280000000 1.0
C      1  0.4489960000000  0.4220830000000  0.4485460000000 1.0
C      1  0.4811830000000  0.4236120000000  0.5646560000000 1.0
C      1  0.4310370000000  0.4272060000000  0.5046850000000 1.0
C      1  0.5376040000000  0.4168670000000  0.5628550000000 1.0
C      1  0.5231800000000  0.4307720000000  0.4377890000000 1.0
C      1  0.5772430000000  0.4491600000000  0.4944720000000 1.0
C      1  0.4536850000000  0.4468160000000  0.4282780000000 1.0
C      1  0.4663720000000  0.4516430000000  0.5680560000000 1.0
C      1  0.4555580000000  0.5150160000000  0.5017140000000 1.0
C      1  0.5291390000000  0.5214610000000  0.5442190000000 1.0
C      1  0.5327520000000  0.5156060000000  0.4630700000000 1.0
C      1  0.5814290000000  0.4770110000000  0.4532940000000 1.0
C      1  0.4258060000000  0.4649550000000  0.4337290000000 1.0
C      1  0.4927790000000  0.4672040000000  0.6076270000000 1.0
C      1  0.5444740000000  0.5175170000000  0.5681140000000 1.0
C      1  0.5454010000000  0.5101280000000  0.4355600000000 1.0
C      1  0.4279280000000  0.5061650000000  0.4941130000000 1.0
C      1  0.4755430000000  0.5215070000000  0.4451970000000 1.0
C      1  0.4750600000000  0.5315930000000  0.5543600000000 1.0
C      1  0.5641220000000  0.5256570000000  0.5003180000000 1.0
C      1  0.6119480000000  0.5550500000000  0.5076750000000 1.0
C      1  0.4428900000000  0.5526650000000  0.4211690000000 1.0
C      1  0.4660170000000  0.5618210000000  0.5996600000000 1.0
C      1  0.5945880000000  0.4711140000000  0.5020820000000 1.0
C      1  0.4533490000000  0.4710400000000  0.4055050000000 1.0
C      1  0.4506920000000  0.4690750000000  0.5850040000000 1.0
C      1  0.4294980000000  0.4987180000000  0.4630760000000 1.0
C      1  0.5123990000000  0.5003130000000  0.5968190000000 1.0
C      1  0.5784890000000  0.5047870000000  0.4382330000000 1.0
C      1  0.4164530000000  0.5515580000000  0.4798390000000 1.0
C      1  0.5268020000000  0.5577820000000  0.5859570000000 1.0
C      1  0.5632200000000  0.5530750000000  0.4183350000000 1.0
C      1  0.5018090000000  0.5671500000000  0.4330690000000 1.0
C      1  0.4426610000000  0.5785630000000  0.5509680000000 1.0
C      1  0.5751760000000  0.5822680000000  0.5331420000000 1.0
C      1  0.4651540000000  0.5057900000000  0.5280200000000 1.0
C      1  0.5330090000000  0.5053990000000  0.5218830000000 1.0
C      1  0.5021350000000  0.5195510000000  0.4647590000000 1.0
C      1  0.5322350000000  0.4255000000000  0.4688150000000 1.0
C      1  0.4574870000000  0.4246250000000  0.4873930000000 1.0
C      1  0.5089880000000  0.4157680000000  0.5469710000000 1.0
C      1  0.4650450000000  0.5691300000000  0.5061550000000 1.0
C      1  0.5099400000000  0.5698500000000  0.5339920000000 1.0
C      1  0.5066740000000  0.5873130000000  0.4844540000000 1.0
C      1  0.5982930000000  0.5173390000000  0.4796610000000 1.0
C      1  0.4251440000000  0.5105810000000  0.4153040000000 1.0
C      1  0.4666190000000  0.5119190000000  0.5985150000000 1.0
C      1  0.3880470000000  0.5064440000000  0.4686490000000 1.0
C      1  0.5505500000000  0.5215730000000  0.6139930000000 1.0
C      1  0.5786970000000  0.5099550000000  0.3986270000000 1.0
C      1  0.5845190000000  0.4817250000000  0.4138010000000 1.0
C      1  0.3901910000000  0.4780640000000  0.4743940000000 1.0
C      1  0.5354770000000  0.4980640000000  0.6132920000000 1.0
C      1  0.5613330000000  0.4611130000000  0.4000880000000 1.0
C      1  0.3832020000000  0.4723510000000  0.5033690000000 1.0
C      1  0.5519790000000  0.4566310000000  0.5963160000000 1.0
C      1  0.5419120000000  0.5695850000000  0.4082820000000 1.0
C      1  0.4317460000000  0.5615980000000  0.5046720000000 1.0
C      1  0.5329430000000  0.5689660000000  0.5578060000000 1.0
C      1  0.4983410000000  0.5512850000000  0.5996390000000 1.0
C      1  0.5736520000000  0.5536210000000  0.4459920000000 1.0
C      1  0.4257980000000  0.5579260000000  0.4505870000000 1.0
C      1  0.4504130000000  0.4772460000000  0.4536130000000 1.0
C      1  0.5004730000000  0.4904860000000  0.5665330000000 1.0
C      1  0.5564370000000  0.4765470000000  0.4740960000000 1.0
C      1  0.5871740000000  0.5290010000000  0.4553140000000 1.0
C      1  0.4178240000000  0.5132610000000  0.4429230000000 1.0
C      1  0.4945740000000  0.5216140000000  0.6058210000000 1.0
C      1  0.5179600000000  0.6252360000000  0.5047850000000 1.0
C      1  0.4920820000000  0.6161300000000  0.4864620000000 1.0
C      1  0.4886970000000  0.6262720000000  0.5185530000000 1.0
C      1  0.4937010000000  0.5496400000000  0.4547820000000 1.0
C      1  0.4485250000000  0.5484950000000  0.5599000000000 1.0
C      1  0.5713850000000  0.5530720000000  0.5192640000000 1.0
C      1  0.4939020000000  0.4883090000000  0.5339320000000 1.0
C      1  0.5240670000000  0.5022760000000  0.4933930000000 1.0
C      1  0.4767680000000  0.5035870000000  0.4809250000000 1.0
C      1  0.3929940000000  0.4803360000000  0.5333600000000 1.0
C      1  0.5728650000000  0.4745230000000  0.5803390000000 1.0
C      1  0.5303780000000  0.4734060000000  0.3928800000000 1.0
C      1  0.5009900000000  0.4859130000000  0.4906250000000 1.0
END
