TITL C-2782240-8521-463 0.000130609077589299 125000 -553.724193845735 0 0 96 (C1) n - 1
REM
REM in /home/nfs/bkarasulu/CARBON/AIRSS/Generating-Clusters/REBO/Higher-Symm/SD-CG/HFTN-CG
REM
REM
REM
REM
REM
REM ./C.cell (12c818d87b63d06a65506943cc24bca4)
REM
REM compiler GCC version 9.2.1 20190827 (Red Hat 9.2.1-1)
REM options -cpp -mtune=generic -march=x86-64 -g -O0 -fpre-include=/usr/include/finclude/math-vector-fortran.h
REM seed 1025473670 987814565 -1729390609 323626425 564687746 -635329523 -322742868 1269162969 -740514182 328222021 -220408991 -147554136 -866148788 1501133740 -401142768 1423467539 181865912 -1891682322 -453640595 -1961368189 -2111817225 1003087491 572240796 -1587048268 483525257 1691922490 -547739543 747629133 976101124 604903385 967237704 -70274555 419005321
REM
CELL 1.54180   50.00000   50.00000   50.00000   90.00000   90.00000   90.00000
LATT -1
SFAC C  
C      1  0.4093720000000  0.4949810000000  0.5140230000000 1.0
C      1  0.5441530000000  0.5845010000000  0.5173670000000 1.0
C      1  0.5460540000000  0.4239240000000  0.5186640000000 1.0
C      1  0.4505190000000  0.4442930000000  0.5072160000000 1.0
C      1  0.4821380000000  0.5720120000000  0.5034090000000 1.0
C      1  0.5689270000000  0.4818870000000  0.5047350000000 1.0
C      1  0.5251540000000  0.4773100000000  0.4441760000000 1.0
C      1  0.4567090000000  0.4964810000000  0.4552070000000 1.0
C      1  0.5185410000000  0.5375520000000  0.4509980000000 1.0
C      1  0.5450710000000  0.5510770000000  0.5230370000000 1.0
C      1  0.5136010000000  0.4341530000000  0.5165500000000 1.0
C      1  0.4358220000000  0.5131140000000  0.5240410000000 1.0
C      1  0.4372910000000  0.5682560000000  0.5195940000000 1.0
C      1  0.5918370000000  0.5224680000000  0.5226470000000 1.0
C      1  0.4724790000000  0.4005170000000  0.5215370000000 1.0
C      1  0.5677160000000  0.4612100000000  0.4815670000000 1.0
C      1  0.4341630000000  0.4530350000000  0.4831960000000 1.0
C      1  0.5000910000000  0.5824610000000  0.4805830000000 1.0
C      1  0.4698000000000  0.4181310000000  0.4700660000000 1.0
C      1  0.4497710000000  0.5734500000000  0.4698560000000 1.0
C      1  0.5904090000000  0.5073770000000  0.4727450000000 1.0
C      1  0.5674580000000  0.5143750000000  0.4508380000000 1.0
C      1  0.4814400000000  0.4369490000000  0.4442360000000 1.0
C      1  0.4577080000000  0.5502410000000  0.4480650000000 1.0
C      1  0.5886410000000  0.5031300000000  0.5010970000000 1.0
C      1  0.4640730000000  0.4164360000000  0.4977150000000 1.0
C      1  0.4539830000000  0.5758810000000  0.4978880000000 1.0
C      1  0.5424470000000  0.5620090000000  0.4460910000000 1.0
C      1  0.5353530000000  0.4320380000000  0.4445310000000 1.0
C      1  0.4215980000000  0.4987540000000  0.4557980000000 1.0
C      1  0.5647160000000  0.4922180000000  0.5602810000000 1.0
C      1  0.4634830000000  0.4520280000000  0.5612210000000 1.0
C      1  0.4798650000000  0.5633260000000  0.5484120000000 1.0
C      1  0.4171380000000  0.4796970000000  0.4869490000000 1.0
C      1  0.5300320000000  0.5819450000000  0.4898330000000 1.0
C      1  0.5541760000000  0.4345550000000  0.4905210000000 1.0
C      1  0.5733510000000  0.5670140000000  0.5173400000000 1.0
C      1  0.5199430000000  0.4021380000000  0.5188190000000 1.0
C      1  0.4089660000000  0.5289840000000  0.5136960000000 1.0
C      1  0.4824300000000  0.4928030000000  0.4683780000000 1.0
C      1  0.5020520000000  0.5207340000000  0.4684050000000 1.0
C      1  0.5162520000000  0.4913270000000  0.4693870000000 1.0
C      1  0.4735750000000  0.4657290000000  0.5105440000000 1.0
C      1  0.4877520000000  0.5456910000000  0.5133880000000 1.0
C      1  0.5437880000000  0.4925490000000  0.5121150000000 1.0
C      1  0.4817030000000  0.5242940000000  0.4933810000000 1.0
C      1  0.5318420000000  0.5085060000000  0.4921140000000 1.0
C      1  0.4900250000000  0.4667230000000  0.4868120000000 1.0
C      1  0.4997370000000  0.5468870000000  0.5560110000000 1.0
C      1  0.5421250000000  0.4763050000000  0.5685810000000 1.0
C      1  0.4692950000000  0.4765680000000  0.5710680000000 1.0
C      1  0.5521390000000  0.5414770000000  0.4128490000000 1.0
C      1  0.5111670000000  0.4329800000000  0.4296980000000 1.0
C      1  0.4233950000000  0.5247680000000  0.4256290000000 1.0
C      1  0.4888990000000  0.4733680000000  0.5364760000000 1.0
C      1  0.4745060000000  0.5267640000000  0.5326170000000 1.0
C      1  0.5411420000000  0.5032920000000  0.5391020000000 1.0
C      1  0.4325440000000  0.5087580000000  0.4844870000000 1.0
C      1  0.5408130000000  0.5582770000000  0.4768610000000 1.0
C      1  0.5307240000000  0.4337740000000  0.4737220000000 1.0
C      1  0.4506490000000  0.4411240000000  0.4556810000000 1.0
C      1  0.4789920000000  0.5758190000000  0.4543450000000 1.0
C      1  0.5756920000000  0.4817770000000  0.4559020000000 1.0
C      1  0.4825040000000  0.4851450000000  0.4188200000000 1.0
C      1  0.4702400000000  0.5063490000000  0.4190010000000 1.0
C      1  0.5326530000000  0.4970210000000  0.4240780000000 1.0
C      1  0.4757950000000  0.5008690000000  0.5481570000000 1.0
C      1  0.5127390000000  0.5158690000000  0.5500320000000 1.0
C      1  0.5110600000000  0.4846570000000  0.5571800000000 1.0
C      1  0.5947470000000  0.5504740000000  0.5161290000000 1.0
C      1  0.4975530000000  0.3874530000000  0.5224000000000 1.0
C      1  0.4119790000000  0.5558030000000  0.5140300000000 1.0
C      1  0.5178690000000  0.4586030000000  0.5770340000000 1.0
C      1  0.4754910000000  0.5064530000000  0.5848070000000 1.0
C      1  0.5016220000000  0.5236270000000  0.5809380000000 1.0
C      1  0.4497360000000  0.5216060000000  0.5791990000000 1.0
C      1  0.5321260000000  0.5384540000000  0.5762490000000 1.0
C      1  0.5058790000000  0.4363940000000  0.5666200000000 1.0
C      1  0.5479060000000  0.5345500000000  0.5480870000000 1.0
C      1  0.4944630000000  0.4421560000000  0.5380900000000 1.0
C      1  0.4454730000000  0.5288590000000  0.5496360000000 1.0
C      1  0.4990760000000  0.4633670000000  0.4320130000000 1.0
C      1  0.4493550000000  0.5240520000000  0.4366040000000 1.0
C      1  0.5439970000000  0.5242620000000  0.4337910000000 1.0
C      1  0.5396410000000  0.6065600000000  0.5330010000000 1.0
C      1  0.5650060000000  0.4235130000000  0.5385630000000 1.0
C      1  0.3920790000000  0.4816280000000  0.5311180000000 1.0
C      1  0.5507600000000  0.4603460000000  0.4516140000000 1.0
C      1  0.4370190000000  0.4698210000000  0.4537090000000 1.0
C      1  0.5099710000000  0.5695650000000  0.4506500000000 1.0
C      1  0.5772380000000  0.5177290000000  0.5471860000000 1.0
C      1  0.4646370000000  0.4305900000000  0.5349510000000 1.0
C      1  0.4524050000000  0.5586590000000  0.5420440000000 1.0
C      1  0.4570010000000  0.5136390000000  0.4991570000000 1.0
C      1  0.5379330000000  0.5357530000000  0.4950390000000 1.0
C      1  0.5088220000000  0.4459740000000  0.4879730000000 1.0
END
