TITL C-2782231-7322-1253 0.000250092393667849 125000 -267.135469380224 0 0 47 (C1) n - 1
REM
REM in /home/nfs/bkarasulu/CARBON/AIRSS/Generating-Clusters/REBO/Higher-Symm/SD-CG/HFTN-CG
REM
REM
REM
REM
REM
REM ./C.cell (12c818d87b63d06a65506943cc24bca4)
REM
REM compiler GCC version 9.2.1 20190827 (Red Hat 9.2.1-1)
REM options -cpp -mtune=generic -march=x86-64 -g -O0 -fpre-include=/usr/include/finclude/math-vector-fortran.h
REM seed 126966514 261128377 -1603720517 -757165786 -416334211 -1792715540 -282867106 -428155215 -711037962 -1587383919 139085630 -2135364160 1334565563 74136373 1554136260 -1824705368 1300333676 1116646179 -1575946159 140136754 1917538930 1925200974 1587411438 1413993008 712378165 -869096292 -1952905396 468573749 -797304703 -1910138974 540450745 -173190451 1022750212
REM
CELL 1.54180   50.00000   50.00000   50.00000   90.00000   90.00000   90.00000
LATT -1
SFAC C  
C      1  0.5220620000000  0.4744350000000  0.4298920000000 1.0
C      1  0.5212370000000  0.5208960000000  0.5687820000000 1.0
C      1  0.4529910000000  0.4983650000000  0.4737020000000 1.0
C      1  0.4509280000000  0.5002890000000  0.5254580000000 1.0
C      1  0.5124470000000  0.4901230000000  0.5674950000000 1.0
C      1  0.5175910000000  0.5058900000000  0.4306910000000 1.0
C      1  0.4800480000000  0.4736300000000  0.5206700000000 1.0
C      1  0.4786400000000  0.5285340000000  0.4774260000000 1.0
C      1  0.5295060000000  0.5265480000000  0.4427180000000 1.0
C      1  0.5232430000000  0.4683490000000  0.5532210000000 1.0
C      1  0.5184090000000  0.4460180000000  0.4696790000000 1.0
C      1  0.5185110000000  0.5536780000000  0.5322700000000 1.0
C      1  0.4971580000000  0.5205310000000  0.5033210000000 1.0
C      1  0.5001310000000  0.4818330000000  0.4944190000000 1.0
C      1  0.5211830000000  0.4181760000000  0.4664900000000 1.0
C      1  0.5228390000000  0.5811630000000  0.5358150000000 1.0
C      1  0.4894410000000  0.4576830000000  0.4604760000000 1.0
C      1  0.4885190000000  0.5431980000000  0.5399050000000 1.0
C      1  0.4832150000000  0.5059920000000  0.5266010000000 1.0
C      1  0.4850030000000  0.4960910000000  0.4705050000000 1.0
C      1  0.5368060000000  0.5350490000000  0.5497960000000 1.0
C      1  0.5373450000000  0.4629150000000  0.4509470000000 1.0
C      1  0.5540700000000  0.4824920000000  0.4630280000000 1.0
C      1  0.5538470000000  0.5177650000000  0.5349810000000 1.0
C      1  0.5453410000000  0.5059830000000  0.4729640000000 1.0
C      1  0.5425010000000  0.4964320000000  0.5204470000000 1.0
C      1  0.4935040000000  0.4854110000000  0.4426950000000 1.0
C      1  0.4919000000000  0.5143270000000  0.5553150000000 1.0
C      1  0.4467850000000  0.5277280000000  0.5150340000000 1.0
C      1  0.4471550000000  0.4716530000000  0.4835260000000 1.0
C      1  0.4477680000000  0.5260740000000  0.4861140000000 1.0
C      1  0.4485730000000  0.4726810000000  0.5123390000000 1.0
C      1  0.5209770000000  0.4555770000000  0.4993910000000 1.0
C      1  0.5200160000000  0.5436900000000  0.5029930000000 1.0
C      1  0.4715260000000  0.5696450000000  0.4484410000000 1.0
C      1  0.4771650000000  0.4428600000000  0.5603540000000 1.0
C      1  0.4560880000000  0.4244290000000  0.4733070000000 1.0
C      1  0.4559040000000  0.5751440000000  0.5235320000000 1.0
C      1  0.4631950000000  0.5491070000000  0.5275120000000 1.0
C      1  0.4635890000000  0.4505410000000  0.4709260000000 1.0
C      1  0.4870480000000  0.5548380000000  0.4656290000000 1.0
C      1  0.4892340000000  0.4501120000000  0.5367200000000 1.0
C      1  0.5355720000000  0.5375620000000  0.4732290000000 1.0
C      1  0.5341940000000  0.4701600000000  0.5270100000000 1.0
C      1  0.5104360000000  0.4381530000000  0.5241560000000 1.0
C      1  0.5127210000000  0.5615670000000  0.4759320000000 1.0
C      1  0.5255530000000  0.5042850000000  0.4968980000000 1.0
END
