TITL C-2782237-5345-1315 0.0256721302867586 125000 -228.418485559914 0 0 40 (C3) n - 1
REM
REM in /home/nfs/bkarasulu/CARBON/AIRSS/Generating-Clusters/REBO/Higher-Symm/SD-CG/HFTN-CG
REM
REM
REM
REM
REM
REM ./C.cell (12c818d87b63d06a65506943cc24bca4)
REM
REM compiler GCC version 9.2.1 20190827 (Red Hat 9.2.1-1)
REM options -cpp -mtune=generic -march=x86-64 -g -O0 -fpre-include=/usr/include/finclude/math-vector-fortran.h
REM seed -323184629 1868509863 -319007899 -1880176665 951370195 151601587 -155188406 -386040141 992725226 373742559 -1629959019 -1625900965 -9326219 -627894508 1678891271 1638353041 701147354 1362165168 -1001497254 -841681343 -1206320864 1444371030 -485659242 -434776253 1472085621 -1222276503 422266835 -902818065 505737187 1728172338 -60991209 -2127522243 -923845870
REM
CELL 1.54180   50.00000   50.00000   50.00000   90.00000   90.00000   90.00000
LATT -1
SFAC C  
C      1  0.4324110000000  0.5616560000000  0.4326220000000 1.0
C      1  0.4776480000000  0.5615150000000  0.5929120000000 1.0
C      1  0.5938440000000  0.5612630000000  0.4735910000000 1.0
C      1  0.4851110000000  0.4969380000000  0.5550580000000 1.0
C      1  0.5571110000000  0.4967800000000  0.4859010000000 1.0
C      1  0.4612190000000  0.4970150000000  0.4581260000000 1.0
C      1  0.4912540000000  0.5365900000000  0.4718550000000 1.0
C      1  0.4821180000000  0.5366020000000  0.5222770000000 1.0
C      1  0.5303530000000  0.5364900000000  0.5049780000000 1.0
C      1  0.4856960000000  0.4681820000000  0.5587150000000 1.0
C      1  0.5598880000000  0.4680200000000  0.4834970000000 1.0
C      1  0.4576510000000  0.4682700000000  0.4568540000000 1.0
C      1  0.4912880000000  0.4249330000000  0.5156690000000 1.0
C      1  0.5196660000000  0.4248680000000  0.5000740000000 1.0
C      1  0.4919710000000  0.4249380000000  0.4832960000000 1.0
C      1  0.5275650000000  0.4985250000000  0.4924580000000 1.0
C      1  0.4816770000000  0.4986370000000  0.4804390000000 1.0
C      1  0.4942120000000  0.4985970000000  0.5261880000000 1.0
C      1  0.5097090000000  0.4528930000000  0.5438240000000 1.0
C      1  0.5349330000000  0.4528480000000  0.4701110000000 1.0
C      1  0.4584840000000  0.4530280000000  0.4851230000000 1.0
C      1  0.5108200000000  0.4650870000000  0.4623090000000 1.0
C      1  0.4638260000000  0.4651890000000  0.5099350000000 1.0
C      1  0.5285680000000  0.4650310000000  0.5268200000000 1.0
C      1  0.4837050000000  0.5278450000000  0.5510420000000 1.0
C      1  0.5544410000000  0.5276890000000  0.4892000000000 1.0
C      1  0.4655170000000  0.5279080000000  0.4588620000000 1.0
C      1  0.5081080000000  0.4914540000000  0.4729150000000 1.0
C      1  0.4744560000000  0.4915270000000  0.5070440000000 1.0
C      1  0.5208380000000  0.4914140000000  0.5191220000000 1.0
C      1  0.5401920000000  0.4485260000000  0.5035750000000 1.0
C      1  0.4848200000000  0.4486670000000  0.4638260000000 1.0
C      1  0.4780830000000  0.4486690000000  0.5316540000000 1.0
C      1  0.4805840000000  0.5451960000000  0.5726170000000 1.0
C      1  0.5747450000000  0.5449900000000  0.4811560000000 1.0
C      1  0.4484570000000  0.5452980000000  0.4453410000000 1.0
C      1  0.5364300000000  0.5496300000000  0.5284640000000 1.0
C      1  0.5086010000000  0.5497120000000  0.4548800000000 1.0
C      1  0.4587890000000  0.5498180000000  0.5157730000000 1.0
C      1  0.5012350000000  0.5335630000000  0.4997020000000 1.0
END
