TITL C-2782240-8521-418 -0.000174768590935678 125000 -787.477140796482 0 0 139 (C1) n - 1
REM
REM in /home/nfs/bkarasulu/CARBON/AIRSS/Generating-Clusters/REBO/Higher-Symm/SD-CG/HFTN-CG
REM
REM
REM
REM
REM
REM ./C.cell (12c818d87b63d06a65506943cc24bca4)
REM
REM compiler GCC version 9.2.1 20190827 (Red Hat 9.2.1-1)
REM options -cpp -mtune=generic -march=x86-64 -g -O0 -fpre-include=/usr/include/finclude/math-vector-fortran.h
REM seed -1168802436 1194335664 608729284 -1841106822 -1352911533 -719129659 -38587369 941949060 1448188835 -1589728753 1676873512 119571664 -954431438 -1541553689 -1789470906 1349817181 110052478 -947913313 -2066744027 -853169249 -1610244945 1449920518 1608607049 -1461735290 324417227 -888968482 158191383 -1903984000 -114159929 -715979033 683101488 -1192986156 -417186874
REM
CELL 1.54180   50.00000   50.00000   50.00000   90.00000   90.00000   90.00000
LATT -1
SFAC C  
C      1  0.5447820000000  0.5425560000000  0.5688700000000 1.0
C      1  0.4478020000000  0.5375170000000  0.5658500000000 1.0
C      1  0.4226380000000  0.5435250000000  0.4708960000000 1.0
C      1  0.5022710000000  0.5359680000000  0.4189870000000 1.0
C      1  0.5760210000000  0.5366240000000  0.4777620000000 1.0
C      1  0.5268250000000  0.4034560000000  0.4876100000000 1.0
C      1  0.5215440000000  0.4033590000000  0.5201270000000 1.0
C      1  0.4895090000000  0.4052320000000  0.5247400000000 1.0
C      1  0.4748530000000  0.4044480000000  0.4946180000000 1.0
C      1  0.4979690000000  0.4050950000000  0.4717450000000 1.0
C      1  0.4692390000000  0.5041000000000  0.4645640000000 1.0
C      1  0.5252000000000  0.4990270000000  0.4621670000000 1.0
C      1  0.5483920000000  0.5035860000000  0.5213750000000 1.0
C      1  0.4990200000000  0.5068380000000  0.5513720000000 1.0
C      1  0.4498890000000  0.5070240000000  0.5124650000000 1.0
C      1  0.5453370000000  0.4429190000000  0.4177440000000 1.0
C      1  0.5948960000000  0.4447620000000  0.5148370000000 1.0
C      1  0.5137260000000  0.4465130000000  0.5917020000000 1.0
C      1  0.4198430000000  0.4462420000000  0.5380590000000 1.0
C      1  0.4386090000000  0.4470890000000  0.4316270000000 1.0
C      1  0.5323520000000  0.4730150000000  0.4829870000000 1.0
C      1  0.5336130000000  0.4770990000000  0.5317300000000 1.0
C      1  0.4917690000000  0.4804650000000  0.5341150000000 1.0
C      1  0.4567880000000  0.4856260000000  0.4904420000000 1.0
C      1  0.4953060000000  0.4843570000000  0.4552180000000 1.0
C      1  0.5108340000000  0.5316080000000  0.5341690000000 1.0
C      1  0.4703240000000  0.5312720000000  0.5216050000000 1.0
C      1  0.4698560000000  0.5326410000000  0.4817930000000 1.0
C      1  0.5072370000000  0.5274510000000  0.4686990000000 1.0
C      1  0.5328870000000  0.5264510000000  0.5013490000000 1.0
C      1  0.4301520000000  0.4748740000000  0.4294860000000 1.0
C      1  0.5444700000000  0.4710530000000  0.4122480000000 1.0
C      1  0.5988960000000  0.4734160000000  0.5165170000000 1.0
C      1  0.5174970000000  0.4744330000000  0.5983620000000 1.0
C      1  0.4141290000000  0.4739420000000  0.5406820000000 1.0
C      1  0.5356400000000  0.4619770000000  0.4514120000000 1.0
C      1  0.5608720000000  0.4635510000000  0.5232570000000 1.0
C      1  0.4974950000000  0.4689390000000  0.5633300000000 1.0
C      1  0.4448280000000  0.4672970000000  0.5151670000000 1.0
C      1  0.4683020000000  0.4715960000000  0.4415190000000 1.0
C      1  0.5160800000000  0.5011340000000  0.5773450000000 1.0
C      1  0.4332910000000  0.4988110000000  0.5368920000000 1.0
C      1  0.4424370000000  0.5018280000000  0.4453300000000 1.0
C      1  0.5314850000000  0.4949650000000  0.4293390000000 1.0
C      1  0.5770320000000  0.4977860000000  0.5105900000000 1.0
C      1  0.5482390000000  0.4101700000000  0.4620350000000 1.0
C      1  0.5524670000000  0.4112330000000  0.5314630000000 1.0
C      1  0.4876710000000  0.4172590000000  0.5565470000000 1.0
C      1  0.4434770000000  0.4131370000000  0.5031150000000 1.0
C      1  0.4815500000000  0.4192100000000  0.4453360000000 1.0
C      1  0.5239690000000  0.5565460000000  0.4327130000000 1.0
C      1  0.5710120000000  0.5586370000000  0.5009300000000 1.0
C      1  0.5187740000000  0.5618840000000  0.5717450000000 1.0
C      1  0.4384980000000  0.5603610000000  0.5434900000000 1.0
C      1  0.4429870000000  0.5627020000000  0.4541500000000 1.0
C      1  0.4510850000000  0.5576160000000  0.5171890000000 1.0
C      1  0.4705300000000  0.5558100000000  0.4594740000000 1.0
C      1  0.5283100000000  0.5509460000000  0.4607500000000 1.0
C      1  0.5466990000000  0.5537040000000  0.5155970000000 1.0
C      1  0.4987890000000  0.5564350000000  0.5515200000000 1.0
C      1  0.5282330000000  0.5761330000000  0.5191900000000 1.0
C      1  0.4911240000000  0.5785610000000  0.5338840000000 1.0
C      1  0.4657490000000  0.5790780000000  0.5030950000000 1.0
C      1  0.4887980000000  0.5769230000000  0.4681740000000 1.0
C      1  0.5270550000000  0.5736760000000  0.4793570000000 1.0
C      1  0.4984140000000  0.5146970000000  0.3952530000000 1.0
C      1  0.6015180000000  0.5214230000000  0.4660570000000 1.0
C      1  0.5648670000000  0.5267200000000  0.5881530000000 1.0
C      1  0.4392850000000  0.5121040000000  0.5839890000000 1.0
C      1  0.3967770000000  0.5250580000000  0.4656130000000 1.0
C      1  0.4997770000000  0.6086540000000  0.4743460000000 1.0
C      1  0.5260960000000  0.6063640000000  0.4903540000000 1.0
C      1  0.5189130000000  0.6090680000000  0.5204700000000 1.0
C      1  0.4881200000000  0.6109820000000  0.5228630000000 1.0
C      1  0.4763360000000  0.6108260000000  0.4943090000000 1.0
C      1  0.5430170000000  0.5316910000000  0.5394130000000 1.0
C      1  0.4759720000000  0.5317990000000  0.5531780000000 1.0
C      1  0.4402590000000  0.5351980000000  0.4958440000000 1.0
C      1  0.4851380000000  0.5299750000000  0.4450840000000 1.0
C      1  0.5468940000000  0.5247740000000  0.4714120000000 1.0
C      1  0.5554980000000  0.4345710000000  0.4473610000000 1.0
C      1  0.5707580000000  0.4337090000000  0.5345620000000 1.0
C      1  0.4839530000000  0.4404900000000  0.5759690000000 1.0
C      1  0.4291200000000  0.4378010000000  0.5084480000000 1.0
C      1  0.4719590000000  0.4413460000000  0.4264850000000 1.0
C      1  0.5650310000000  0.4769090000000  0.4457870000000 1.0
C      1  0.5742340000000  0.4804360000000  0.5471130000000 1.0
C      1  0.4802370000000  0.4839520000000  0.5885770000000 1.0
C      1  0.4186400000000  0.4821060000000  0.5019250000000 1.0
C      1  0.4634320000000  0.4866450000000  0.4114020000000 1.0
C      1  0.5352240000000  0.5957890000000  0.5445240000000 1.0
C      1  0.4702630000000  0.6001870000000  0.5470280000000 1.0
C      1  0.4471850000000  0.6003580000000  0.4865210000000 1.0
C      1  0.4990700000000  0.5971760000000  0.4445280000000 1.0
C      1  0.5535280000000  0.5927540000000  0.4811120000000 1.0
C      1  0.5076350000000  0.5219470000000  0.6127860000000 1.0
C      1  0.3981550000000  0.5200400000000  0.5333000000000 1.0
C      1  0.4258480000000  0.5232880000000  0.4131080000000 1.0
C      1  0.5612010000000  0.5178200000000  0.4119130000000 1.0
C      1  0.6043390000000  0.5206670000000  0.5305750000000 1.0
C      1  0.4228430000000  0.5241230000000  0.5496940000000 1.0
C      1  0.4286530000000  0.5277390000000  0.4418280000000 1.0
C      1  0.5319180000000  0.5215830000000  0.4158240000000 1.0
C      1  0.5903480000000  0.5239440000000  0.5043010000000 1.0
C      1  0.5249920000000  0.5267890000000  0.5895980000000 1.0
C      1  0.5695640000000  0.4907470000000  0.4183450000000 1.0
C      1  0.6016170000000  0.4938860000000  0.5416500000000 1.0
C      1  0.4961980000000  0.4955260000000  0.6115150000000 1.0
C      1  0.3971000000000  0.4936040000000  0.5211090000000 1.0
C      1  0.4357870000000  0.4972510000000  0.4061720000000 1.0
C      1  0.4408250000000  0.4874360000000  0.5838230000000 1.0
C      1  0.4014870000000  0.4984140000000  0.4611240000000 1.0
C      1  0.4974500000000  0.4903650000000  0.3909540000000 1.0
C      1  0.6023090000000  0.4943070000000  0.4694220000000 1.0
C      1  0.5625700000000  0.4995180000000  0.5891010000000 1.0
C      1  0.5194270000000  0.4321000000000  0.4303470000000 1.0
C      1  0.5721850000000  0.4352320000000  0.4946870000000 1.0
C      1  0.5307880000000  0.4348790000000  0.5674820000000 1.0
C      1  0.4489660000000  0.4380650000000  0.5431660000000 1.0
C      1  0.4401910000000  0.4359890000000  0.4616320000000 1.0
C      1  0.4645540000000  0.4664270000000  0.5397240000000 1.0
C      1  0.4473140000000  0.4674690000000  0.4647250000000 1.0
C      1  0.5060390000000  0.4606150000000  0.4346870000000 1.0
C      1  0.5624030000000  0.4659370000000  0.4913910000000 1.0
C      1  0.5289460000000  0.4670070000000  0.5609380000000 1.0
C      1  0.5795510000000  0.4781290000000  0.4694360000000 1.0
C      1  0.5562960000000  0.4816330000000  0.5685770000000 1.0
C      1  0.4590810000000  0.4634830000000  0.5720720000000 1.0
C      1  0.4203970000000  0.4824750000000  0.4742390000000 1.0
C      1  0.4887700000000  0.4645980000000  0.4080720000000 1.0
C      1  0.5546050000000  0.4146650000000  0.5011120000000 1.0
C      1  0.5177230000000  0.4162790000000  0.5505860000000 1.0
C      1  0.4588770000000  0.4159120000000  0.5292200000000 1.0
C      1  0.4604820000000  0.4174580000000  0.4673400000000 1.0
C      1  0.5205030000000  0.4120630000000  0.4492940000000 1.0
C      1  0.4952330000000  0.5004800000000  0.4999480000000 1.0
C      1  0.4986370000000  0.5342630000000  0.5017240000000 1.0
C      1  0.4992810000000  0.5690500000000  0.5007520000000 1.0
C      1  0.5124990000000  0.4768710000000  0.5073610000000 1.0
END
