TITL C-2782238-9940-1190 8.78055994385462e-05 125000 -322.740420892236 0 0 59 (C1) n - 1
REM
REM in /home/nfs/bkarasulu/CARBON/AIRSS/Generating-Clusters/REBO/Higher-Symm/SD-CG/HFTN-CG
REM
REM
REM
REM
REM
REM ./C.cell (12c818d87b63d06a65506943cc24bca4)
REM
REM compiler GCC version 9.2.1 20190827 (Red Hat 9.2.1-1)
REM options -cpp -mtune=generic -march=x86-64 -g -O0 -fpre-include=/usr/include/finclude/math-vector-fortran.h
REM seed 699385234 -840397146 431097268 1224566232 -31748261 -1930786716 -237972981 1113149530 1141086165 741785389 794374651 -1511294815 -492692530 1852320038 -555671811 1126564221 130289781 1839503668 140762642 46613809 -1816480493 571026139 -40022536 -1387516354 -1879887136 -326631626 1794696463 -1143593586 553082664 1478975738 -1015313675 -1355676986 2021234485
REM
CELL 1.54180   50.00000   50.00000   50.00000   90.00000   90.00000   90.00000
LATT -1
SFAC C  
C      1  0.5128250000000  0.5417210000000  0.5206040000000 1.0
C      1  0.5466840000000  0.4899090000000  0.5232950000000 1.0
C      1  0.4953470000000  0.4583550000000  0.5201200000000 1.0
C      1  0.4634440000000  0.5083470000000  0.5177800000000 1.0
C      1  0.5053650000000  0.5398790000000  0.4817050000000 1.0
C      1  0.5333240000000  0.4906190000000  0.4859610000000 1.0
C      1  0.4858740000000  0.4571530000000  0.4816950000000 1.0
C      1  0.4524740000000  0.5090490000000  0.4798080000000 1.0
C      1  0.4298500000000  0.4737300000000  0.5121330000000 1.0
C      1  0.4760790000000  0.5727190000000  0.5149820000000 1.0
C      1  0.5750900000000  0.5279640000000  0.5207940000000 1.0
C      1  0.5299860000000  0.4254360000000  0.5185620000000 1.0
C      1  0.4235350000000  0.4712880000000  0.4822580000000 1.0
C      1  0.4708800000000  0.5730580000000  0.4843260000000 1.0
C      1  0.5689650000000  0.5252090000000  0.4909380000000 1.0
C      1  0.5231280000000  0.4263570000000  0.4878120000000 1.0
C      1  0.5267080000000  0.5154880000000  0.5316110000000 1.0
C      1  0.5198550000000  0.4762540000000  0.5329520000000 1.0
C      1  0.4807280000000  0.4837420000000  0.5304290000000 1.0
C      1  0.4876280000000  0.5230110000000  0.5308900000000 1.0
C      1  0.5187970000000  0.5145160000000  0.4688170000000 1.0
C      1  0.5104340000000  0.4755080000000  0.4697370000000 1.0
C      1  0.4715190000000  0.4833300000000  0.4709900000000 1.0
C      1  0.4797160000000  0.5222650000000  0.4709330000000 1.0
C      1  0.4689660000000  0.4541600000000  0.4439180000000 1.0
C      1  0.4521380000000  0.5290720000000  0.4429820000000 1.0
C      1  0.5280510000000  0.5470480000000  0.4477380000000 1.0
C      1  0.5440790000000  0.4700740000000  0.4490640000000 1.0
C      1  0.4725930000000  0.4531180000000  0.5546210000000 1.0
C      1  0.4550910000000  0.5279690000000  0.5534390000000 1.0
C      1  0.5293940000000  0.5445420000000  0.5588150000000 1.0
C      1  0.5484380000000  0.4695350000000  0.5598990000000 1.0
C      1  0.5057600000000  0.5521510000000  0.5584950000000 1.0
C      1  0.5554350000000  0.4934420000000  0.5620790000000 1.0
C      1  0.4963570000000  0.4464530000000  0.5582280000000 1.0
C      1  0.4484520000000  0.5040730000000  0.5545590000000 1.0
C      1  0.5041120000000  0.5532330000000  0.4440800000000 1.0
C      1  0.5488370000000  0.4943760000000  0.4492220000000 1.0
C      1  0.4926650000000  0.4465490000000  0.4438180000000 1.0
C      1  0.4443290000000  0.5054150000000  0.4409020000000 1.0
C      1  0.5060200000000  0.5680660000000  0.5211320000000 1.0
C      1  0.5729180000000  0.4972020000000  0.5251050000000 1.0
C      1  0.4998780000000  0.4318070000000  0.5212030000000 1.0
C      1  0.4370680000000  0.5032580000000  0.5162400000000 1.0
C      1  0.5010180000000  0.5664860000000  0.4816530000000 1.0
C      1  0.5627230000000  0.4963860000000  0.4865780000000 1.0
C      1  0.4930480000000  0.4309170000000  0.4819980000000 1.0
C      1  0.4261990000000  0.5019250000000  0.4778800000000 1.0
C      1  0.5499730000000  0.5255480000000  0.4625240000000 1.0
C      1  0.5226390000000  0.4460010000000  0.4598960000000 1.0
C      1  0.4439510000000  0.4744570000000  0.4550020000000 1.0
C      1  0.4728560000000  0.5520090000000  0.4574100000000 1.0
C      1  0.5543980000000  0.5242720000000  0.5477780000000 1.0
C      1  0.5279230000000  0.4463870000000  0.5455350000000 1.0
C      1  0.4498850000000  0.4737970000000  0.5398580000000 1.0
C      1  0.4761610000000  0.5522350000000  0.5423000000000 1.0
C      1  0.5029410000000  0.4998450000000  0.5485130000000 1.0
C      1  0.4950030000000  0.4989280000000  0.4528720000000 1.0
C      1  0.5057320000000  0.4977540000000  0.5026180000000 1.0
END
