TITL C-2782227-3064-502 0.000723470161010149 125000 -192.236902026565 0 0 34 (C1) n - 1
REM
REM in /home/nfs/bkarasulu/CARBON/AIRSS/Generating-Clusters/REBO/Higher-Symm/SD-CG/HFTN-CG
REM
REM
REM
REM
REM
REM ./C.cell (12c818d87b63d06a65506943cc24bca4)
REM
REM compiler GCC version 9.2.1 20190827 (Red Hat 9.2.1-1)
REM options -cpp -mtune=generic -march=x86-64 -g -O0 -fpre-include=/usr/include/finclude/math-vector-fortran.h
REM seed -84902607 1508600808 2119787231 -2055369150 29451496 336516835 32798381 1912991294 -1780393894 456482665 -1177174196 895089891 1988056565 1944461897 749594530 1962551945 1681987967 81532343 -223950305 -1307052124 2000954119 -1189717771 -1617871144 -971720508 2024654494 1461961577 888444239 -601547683 449177904 1978382042 1866124330 -527093588 1379166306
REM
CELL 1.54180   50.00000   50.00000   50.00000   90.00000   90.00000   90.00000
LATT -1
SFAC C  
C      1  0.4591080000000  0.5055000000000  0.4969180000000 1.0
C      1  0.5359920000000  0.4770050000000  0.5223710000000 1.0
C      1  0.5284720000000  0.5193110000000  0.4601830000000 1.0
C      1  0.4495830000000  0.4679070000000  0.4663800000000 1.0
C      1  0.5255450000000  0.4687600000000  0.4972140000000 1.0
C      1  0.4971640000000  0.4858750000000  0.5233350000000 1.0
C      1  0.5289070000000  0.5229400000000  0.5449100000000 1.0
C      1  0.4991360000000  0.4767420000000  0.4579940000000 1.0
C      1  0.4907540000000  0.4752510000000  0.5481320000000 1.0
C      1  0.5132200000000  0.5452920000000  0.4979300000000 1.0
C      1  0.4744900000000  0.4701050000000  0.4455430000000 1.0
C      1  0.5097180000000  0.5389610000000  0.5256300000000 1.0
C      1  0.4473650000000  0.4982950000000  0.4533980000000 1.0
C      1  0.4693470000000  0.5424830000000  0.4685710000000 1.0
C      1  0.4905580000000  0.5524810000000  0.4824530000000 1.0
C      1  0.4291170000000  0.4495230000000  0.4663870000000 1.0
C      1  0.4561340000000  0.5179070000000  0.4706320000000 1.0
C      1  0.5015690000000  0.5204480000000  0.5599970000000 1.0
C      1  0.5416440000000  0.4988910000000  0.5375000000000 1.0
C      1  0.4535810000000  0.4612230000000  0.5235220000000 1.0
C      1  0.4815950000000  0.5325460000000  0.5389330000000 1.0
C      1  0.5676790000000  0.4838530000000  0.4734580000000 1.0
C      1  0.4706060000000  0.4553390000000  0.5455230000000 1.0
C      1  0.5464460000000  0.4671880000000  0.4776110000000 1.0
C      1  0.5754580000000  0.5089000000000  0.4807700000000 1.0
C      1  0.5626570000000  0.5318800000000  0.4914130000000 1.0
C      1  0.5743340000000  0.5485000000000  0.5094290000000 1.0
C      1  0.4988850000000  0.4703430000000  0.4866010000000 1.0
C      1  0.5354760000000  0.5345480000000  0.4830470000000 1.0
C      1  0.5168450000000  0.4970930000000  0.4501360000000 1.0
C      1  0.4608050000000  0.5183080000000  0.5274190000000 1.0
C      1  0.4451170000000  0.4900280000000  0.5227860000000 1.0
C      1  0.4951520000000  0.4939640000000  0.5691280000000 1.0
C      1  0.4675430000000  0.4726080000000  0.4947480000000 1.0
END
