TITL C-2782234-8014-858 -0.00131742185660354 125000 -625.721781047277 0 0 113 (C1) n - 1
REM
REM in /home/nfs/bkarasulu/CARBON/AIRSS/Generating-Clusters/REBO/Higher-Symm/SD-CG/HFTN-CG
REM
REM
REM
REM
REM
REM ./C.cell (12c818d87b63d06a65506943cc24bca4)
REM
REM compiler GCC version 9.2.1 20190827 (Red Hat 9.2.1-1)
REM options -cpp -mtune=generic -march=x86-64 -g -O0 -fpre-include=/usr/include/finclude/math-vector-fortran.h
REM seed 758203128 -1003838364 -1038676776 1627278261 -93354512 70738053 2014893029 1609056203 -772183008 1385907222 811630499 382810412 -538768157 2009510398 -1863918845 1030059165 -1506801404 -1811924405 442398080 -1172393339 -1647063866 961606401 2031483923 -733556367 1099628104 -1286522904 837208783 1562696275 1651144672 -1735477257 837703180 1012776322 996772293
REM
CELL 1.54180   50.00000   50.00000   50.00000   90.00000   90.00000   90.00000
LATT -1
SFAC C  
C      1  0.5174080000000  0.5582130000000  0.5389900000000 1.0
C      1  0.5642380000000  0.4982720000000  0.5415610000000 1.0
C      1  0.5178870000000  0.4382260000000  0.5397690000000 1.0
C      1  0.4491460000000  0.4641050000000  0.5390860000000 1.0
C      1  0.4503340000000  0.5351430000000  0.5365270000000 1.0
C      1  0.5887420000000  0.5149160000000  0.5009900000000 1.0
C      1  0.5430620000000  0.4178700000000  0.5021880000000 1.0
C      1  0.4358370000000  0.4407180000000  0.4970750000000 1.0
C      1  0.4244440000000  0.5471900000000  0.4965580000000 1.0
C      1  0.5236190000000  0.5859020000000  0.4989190000000 1.0
C      1  0.5323830000000  0.4692240000000  0.4837170000000 1.0
C      1  0.4880180000000  0.4711940000000  0.4873840000000 1.0
C      1  0.4634760000000  0.5026510000000  0.4899120000000 1.0
C      1  0.4940360000000  0.5345620000000  0.4900760000000 1.0
C      1  0.5391260000000  0.5180200000000  0.4839670000000 1.0
C      1  0.5365070000000  0.5879330000000  0.4696110000000 1.0
C      1  0.5921570000000  0.5032220000000  0.4666170000000 1.0
C      1  0.5339860000000  0.4118240000000  0.4674180000000 1.0
C      1  0.4150490000000  0.4506350000000  0.4783550000000 1.0
C      1  0.4281460000000  0.5687350000000  0.4765320000000 1.0
C      1  0.4726170000000  0.5857400000000  0.4954610000000 1.0
C      1  0.5681270000000  0.5597000000000  0.4965740000000 1.0
C      1  0.5785290000000  0.4529990000000  0.4984590000000 1.0
C      1  0.4793450000000  0.4168610000000  0.4967500000000 1.0
C      1  0.4094200000000  0.4985050000000  0.4972430000000 1.0
C      1  0.5560730000000  0.4851930000000  0.4319450000000 1.0
C      1  0.5050220000000  0.4404290000000  0.4335490000000 1.0
C      1  0.4405280000000  0.4758610000000  0.4389730000000 1.0
C      1  0.4608080000000  0.5485130000000  0.4394420000000 1.0
C      1  0.5293000000000  0.5491480000000  0.4332700000000 1.0
C      1  0.4219450000000  0.5276190000000  0.5222000000000 1.0
C      1  0.5010980000000  0.5830120000000  0.5240350000000 1.0
C      1  0.5801190000000  0.5246830000000  0.5306440000000 1.0
C      1  0.5484010000000  0.4297960000000  0.5315560000000 1.0
C      1  0.4460390000000  0.4350300000000  0.5257440000000 1.0
C      1  0.4219360000000  0.4832440000000  0.5450910000000 1.0
C      1  0.4578060000000  0.5679670000000  0.5419140000000 1.0
C      1  0.5504870000000  0.5615300000000  0.5461880000000 1.0
C      1  0.5749970000000  0.4673630000000  0.5485180000000 1.0
C      1  0.4930800000000  0.4164310000000  0.5464080000000 1.0
C      1  0.4821580000000  0.4825010000000  0.5868350000000 1.0
C      1  0.4771090000000  0.5103370000000  0.5863020000000 1.0
C      1  0.5021990000000  0.5238340000000  0.5863750000000 1.0
C      1  0.5226260000000  0.5042610000000  0.5870890000000 1.0
C      1  0.5103760000000  0.4786430000000  0.5874410000000 1.0
C      1  0.4361060000000  0.5065360000000  0.4378910000000 1.0
C      1  0.4877000000000  0.5634960000000  0.4382690000000 1.0
C      1  0.5536420000000  0.5300560000000  0.4320590000000 1.0
C      1  0.5475400000000  0.4554640000000  0.4330440000000 1.0
C      1  0.4743120000000  0.4420340000000  0.4369020000000 1.0
C      1  0.4726570000000  0.5501570000000  0.5650730000000 1.0
C      1  0.5366040000000  0.5398510000000  0.5684840000000 1.0
C      1  0.5490050000000  0.4746000000000  0.5692850000000 1.0
C      1  0.4905430000000  0.4432450000000  0.5671880000000 1.0
C      1  0.4456600000000  0.4910640000000  0.5670780000000 1.0
C      1  0.4429190000000  0.5198840000000  0.4605190000000 1.0
C      1  0.5027770000000  0.5600750000000  0.4608070000000 1.0
C      1  0.5557050000000  0.5162680000000  0.4567150000000 1.0
C      1  0.5347840000000  0.4506030000000  0.4578370000000 1.0
C      1  0.4653310000000  0.4529320000000  0.4600820000000 1.0
C      1  0.4789350000000  0.4399280000000  0.5293500000000 1.0
C      1  0.4404350000000  0.4990590000000  0.5224040000000 1.0
C      1  0.4805720000000  0.5560080000000  0.5209500000000 1.0
C      1  0.5467110000000  0.5322020000000  0.5310810000000 1.0
C      1  0.5468850000000  0.4639060000000  0.5311930000000 1.0
C      1  0.5227930000000  0.4450660000000  0.5058770000000 1.0
C      1  0.4600880000000  0.4665110000000  0.5065760000000 1.0
C      1  0.4559780000000  0.5299580000000  0.5032780000000 1.0
C      1  0.5168610000000  0.5528040000000  0.5050440000000 1.0
C      1  0.5579110000000  0.5020150000000  0.5075340000000 1.0
C      1  0.5469340000000  0.5085330000000  0.5676730000000 1.0
C      1  0.5219290000000  0.4563120000000  0.5682000000000 1.0
C      1  0.4667930000000  0.4642880000000  0.5663860000000 1.0
C      1  0.4561700000000  0.5207380000000  0.5651580000000 1.0
C      1  0.5035850000000  0.5476350000000  0.5659130000000 1.0
C      1  0.5219090000000  0.5152110000000  0.5372460000000 1.0
C      1  0.5217790000000  0.4808090000000  0.5367400000000 1.0
C      1  0.4889690000000  0.4709000000000  0.5336170000000 1.0
C      1  0.4705500000000  0.4999040000000  0.5307960000000 1.0
C      1  0.4909780000000  0.5272610000000  0.5290490000000 1.0
C      1  0.4004890000000  0.4937730000000  0.5227680000000 1.0
C      1  0.4623870000000  0.5920590000000  0.5201540000000 1.0
C      1  0.5697470000000  0.5731780000000  0.5220510000000 1.0
C      1  0.5912680000000  0.4523940000000  0.5240290000000 1.0
C      1  0.4818460000000  0.4013080000000  0.5193640000000 1.0
C      1  0.5136330000000  0.5514480000000  0.4103640000000 1.0
C      1  0.5527030000000  0.4984570000000  0.4076330000000 1.0
C      1  0.5156260000000  0.4469510000000  0.4085880000000 1.0
C      1  0.4477120000000  0.4627850000000  0.4154290000000 1.0
C      1  0.4514440000000  0.5368980000000  0.4158140000000 1.0
C      1  0.4655210000000  0.4869500000000  0.4596100000000 1.0
C      1  0.4761430000000  0.5274870000000  0.4616980000000 1.0
C      1  0.5183360000000  0.5297220000000  0.4594500000000 1.0
C      1  0.5328050000000  0.4904010000000  0.4568130000000 1.0
C      1  0.5033310000000  0.4649360000000  0.4574960000000 1.0
C      1  0.5441200000000  0.5405890000000  0.5020750000000 1.0
C      1  0.5545840000000  0.4726800000000  0.5028220000000 1.0
C      1  0.4935880000000  0.4452620000000  0.5018550000000 1.0
C      1  0.4369060000000  0.4835810000000  0.4919230000000 1.0
C      1  0.4678700000000  0.5550720000000  0.4889530000000 1.0
C      1  0.5182260000000  0.4156030000000  0.4480530000000 1.0
C      1  0.4189630000000  0.4618480000000  0.4564230000000 1.0
C      1  0.4402490000000  0.5660640000000  0.4549140000000 1.0
C      1  0.5371670000000  0.5759520000000  0.4480320000000 1.0
C      1  0.5839520000000  0.4898620000000  0.4467890000000 1.0
C      1  0.5754690000000  0.5336860000000  0.4782990000000 1.0
C      1  0.5566130000000  0.4376070000000  0.4803670000000 1.0
C      1  0.4609460000000  0.4349720000000  0.4812830000000 1.0
C      1  0.4238830000000  0.5199700000000  0.4817790000000 1.0
C      1  0.4984860000000  0.5792890000000  0.4810020000000 1.0
C      1  0.4958320000000  0.5020170000000  0.4955630000000 1.0
C      1  0.4984930000000  0.5003530000000  0.4557090000000 1.0
C      1  0.4968520000000  0.4978120000000  0.5526540000000 1.0
END
