TITL C-2782225-7408-650 -0.0028285470447003 125000 -720.948573977005 0 0 125 (C1) n - 1
REM
REM in /home/nfs/bkarasulu/CARBON/AIRSS/Generating-Clusters/REBO/Higher-Symm/SD-CG/HFTN-CG
REM
REM
REM
REM
REM
REM ./C.cell (12c818d87b63d06a65506943cc24bca4)
REM
REM compiler GCC version 9.2.1 20190827 (Red Hat 9.2.1-1)
REM options -cpp -mtune=generic -march=x86-64 -g -O0 -fpre-include=/usr/include/finclude/math-vector-fortran.h
REM seed -1873807919 -60338153 -1833345088 1424947385 874085259 487743545 -139418917 -1530155395 -1857789147 94599944 -1864910862 -981227986 -1159224940 -1592245344 1419043475 -1299868949 -1578249867 -353538819 -2137803951 908944518 1134610706 -1811938803 -617017647 1361902811 1090910321 -40128575 -1076492608 1284332400 1597817153 -244037143 932917159 2115441079 1281894567
REM
CELL 1.54180   50.00000   50.00000   50.00000   90.00000   90.00000   90.00000
LATT -1
SFAC C  
C      1  0.5593070000000  0.5185250000000  0.5151790000000 1.0
C      1  0.5223340000000  0.5172790000000  0.5614670000000 1.0
C      1  0.5178290000000  0.5651270000000  0.5158180000000 1.0
C      1  0.4381820000000  0.5168960000000  0.4828160000000 1.0
C      1  0.4379470000000  0.4822250000000  0.5196670000000 1.0
C      1  0.5763380000000  0.4814500000000  0.4859800000000 1.0
C      1  0.4821840000000  0.5145950000000  0.4471270000000 1.0
C      1  0.4774560000000  0.4880480000000  0.5611130000000 1.0
C      1  0.5221640000000  0.4832660000000  0.4342340000000 1.0
C      1  0.4801540000000  0.5732010000000  0.4776350000000 1.0
C      1  0.4809630000000  0.4285740000000  0.5196650000000 1.0
C      1  0.5198420000000  0.4309050000000  0.4808960000000 1.0
C      1  0.4413270000000  0.4392870000000  0.5263440000000 1.0
C      1  0.4403090000000  0.5250970000000  0.4429810000000 1.0
C      1  0.5255430000000  0.4424240000000  0.4388050000000 1.0
C      1  0.5584620000000  0.4394870000000  0.4750190000000 1.0
C      1  0.5586930000000  0.5619160000000  0.5262080000000 1.0
C      1  0.4410630000000  0.5622480000000  0.4749570000000 1.0
C      1  0.5612240000000  0.5260300000000  0.5597220000000 1.0
C      1  0.5606670000000  0.4769040000000  0.4428880000000 1.0
C      1  0.4393820000000  0.4761870000000  0.5591810000000 1.0
C      1  0.4740700000000  0.4408690000000  0.5620400000000 1.0
C      1  0.4747250000000  0.5606130000000  0.4400610000000 1.0
C      1  0.5260110000000  0.5612230000000  0.5628630000000 1.0
C      1  0.5669490000000  0.5025510000000  0.4368160000000 1.0
C      1  0.4991160000000  0.4325890000000  0.5679740000000 1.0
C      1  0.4358880000000  0.5705070000000  0.5000880000000 1.0
C      1  0.4350980000000  0.5023490000000  0.5649730000000 1.0
C      1  0.4328880000000  0.4996220000000  0.4377820000000 1.0
C      1  0.5651620000000  0.4997650000000  0.5653810000000 1.0
C      1  0.5005500000000  0.4351790000000  0.4311940000000 1.0
C      1  0.5011330000000  0.5694280000000  0.5702840000000 1.0
C      1  0.4998390000000  0.5687080000000  0.4343490000000 1.0
C      1  0.5647610000000  0.5696420000000  0.5010030000000 1.0
C      1  0.5640430000000  0.4306620000000  0.5000130000000 1.0
C      1  0.4370420000000  0.4305330000000  0.5011710000000 1.0
C      1  0.5029540000000  0.4769620000000  0.5475450000000 1.0
C      1  0.4736250000000  0.5584790000000  0.5065930000000 1.0
C      1  0.5570040000000  0.5029970000000  0.4785570000000 1.0
C      1  0.4967080000000  0.4777570000000  0.4522730000000 1.0
C      1  0.4961800000000  0.5283530000000  0.5480310000000 1.0
C      1  0.5121200000000  0.5206650000000  0.4596790000000 1.0
C      1  0.5214010000000  0.5475550000000  0.4881980000000 1.0
C      1  0.5191810000000  0.4479150000000  0.5095670000000 1.0
C      1  0.4817610000000  0.4467310000000  0.4914190000000 1.0
C      1  0.4528640000000  0.5097480000000  0.5192940000000 1.0
C      1  0.4565600000000  0.4898700000000  0.4851170000000 1.0
C      1  0.5440100000000  0.4907060000000  0.5180500000000 1.0
C      1  0.4730990000000  0.4342190000000  0.4330910000000 1.0
C      1  0.4368350000000  0.4317400000000  0.4738210000000 1.0
C      1  0.4328890000000  0.4722080000000  0.4371180000000 1.0
C      1  0.5266060000000  0.4326230000000  0.5672240000000 1.0
C      1  0.5271800000000  0.5685230000000  0.4351070000000 1.0
C      1  0.4735060000000  0.5699470000000  0.5685020000000 1.0
C      1  0.5641490000000  0.4313930000000  0.5275090000000 1.0
C      1  0.5656270000000  0.5701280000000  0.4735440000000 1.0
C      1  0.4364800000000  0.5693330000000  0.5274120000000 1.0
C      1  0.5647000000000  0.4723080000000  0.5652120000000 1.0
C      1  0.5665490000000  0.5300070000000  0.4361770000000 1.0
C      1  0.4347280000000  0.5298040000000  0.5650180000000 1.0
C      1  0.4772160000000  0.4826180000000  0.4047950000000 1.0
C      1  0.4800240000000  0.3962070000000  0.4783290000000 1.0
C      1  0.4016350000000  0.4782640000000  0.4812350000000 1.0
C      1  0.5176270000000  0.4783650000000  0.5984130000000 1.0
C      1  0.5161660000000  0.5265230000000  0.4045120000000 1.0
C      1  0.4813070000000  0.5247130000000  0.5986390000000 1.0
C      1  0.5224430000000  0.3956140000000  0.5204900000000 1.0
C      1  0.5228780000000  0.6049500000000  0.4790140000000 1.0
C      1  0.4808180000000  0.6033900000000  0.5207360000000 1.0
C      1  0.5960990000000  0.4800710000000  0.5205390000000 1.0
C      1  0.6005230000000  0.5253160000000  0.4816540000000 1.0
C      1  0.4019570000000  0.5214570000000  0.5215540000000 1.0
C      1  0.5134420000000  0.5972640000000  0.5108690000000 1.0
C      1  0.5912590000000  0.5130250000000  0.5127990000000 1.0
C      1  0.5127410000000  0.5120870000000  0.5930190000000 1.0
C      1  0.4896430000000  0.6025250000000  0.4877350000000 1.0
C      1  0.4892400000000  0.3984100000000  0.5112090000000 1.0
C      1  0.5130780000000  0.4000190000000  0.4878470000000 1.0
C      1  0.4070630000000  0.5110710000000  0.4890560000000 1.0
C      1  0.4068950000000  0.4884730000000  0.5137120000000 1.0
C      1  0.6070620000000  0.4929480000000  0.4904720000000 1.0
C      1  0.4855720000000  0.5146580000000  0.4143890000000 1.0
C      1  0.4863780000000  0.4912570000000  0.5924570000000 1.0
C      1  0.5098390000000  0.4928350000000  0.4061730000000 1.0
C      1  0.5399370000000  0.5442800000000  0.4217120000000 1.0
C      1  0.5411560000000  0.4157200000000  0.5415060000000 1.0
C      1  0.4205330000000  0.5430050000000  0.5410220000000 1.0
C      1  0.4598630000000  0.5450730000000  0.5810340000000 1.0
C      1  0.4586900000000  0.4592840000000  0.4219350000000 1.0
C      1  0.5390010000000  0.4577260000000  0.5808110000000 1.0
C      1  0.4599030000000  0.4166390000000  0.4590490000000 1.0
C      1  0.4599890000000  0.5846600000000  0.5409700000000 1.0
C      1  0.5418470000000  0.5839660000000  0.4597830000000 1.0
C      1  0.5817910000000  0.5443480000000  0.4596670000000 1.0
C      1  0.5783950000000  0.4588140000000  0.5410310000000 1.0
C      1  0.4206610000000  0.4579650000000  0.4611370000000 1.0
C      1  0.4703800000000  0.4857100000000  0.4371750000000 1.0
C      1  0.4896910000000  0.4258430000000  0.4684390000000 1.0
C      1  0.4321280000000  0.4685520000000  0.4899490000000 1.0
C      1  0.5268490000000  0.4847080000000  0.5677430000000 1.0
C      1  0.5292930000000  0.5153290000000  0.4329140000000 1.0
C      1  0.4731140000000  0.5191020000000  0.5671030000000 1.0
C      1  0.5118730000000  0.4246240000000  0.5309840000000 1.0
C      1  0.5124920000000  0.5738850000000  0.4718870000000 1.0
C      1  0.4897650000000  0.5737880000000  0.5323110000000 1.0
C      1  0.5653640000000  0.4684740000000  0.5127730000000 1.0
C      1  0.5687640000000  0.5325860000000  0.4865750000000 1.0
C      1  0.4314640000000  0.5326630000000  0.5120530000000 1.0
C      1  0.5059460000000  0.4615560000000  0.4749260000000 1.0
C      1  0.4666170000000  0.4684660000000  0.5097610000000 1.0
C      1  0.4847660000000  0.4976850000000  0.4770120000000 1.0
C      1  0.4933880000000  0.4594230000000  0.5271570000000 1.0
C      1  0.4908230000000  0.5407550000000  0.4755520000000 1.0
C      1  0.4976650000000  0.5376590000000  0.5185540000000 1.0
C      1  0.5307850000000  0.4747660000000  0.4937400000000 1.0
C      1  0.5319170000000  0.5203780000000  0.4944720000000 1.0
C      1  0.4669540000000  0.5287250000000  0.4946070000000 1.0
C      1  0.5191810000000  0.4999450000000  0.5320910000000 1.0
C      1  0.5307730000000  0.4929160000000  0.4657240000000 1.0
C      1  0.4795180000000  0.5042460000000  0.5307690000000 1.0
C      1  0.5493600000000  0.5503450000000  0.5504900000000 1.0
C      1  0.4512500000000  0.5498010000000  0.4516590000000 1.0
C      1  0.5490020000000  0.4523860000000  0.4514960000000 1.0
C      1  0.4506320000000  0.4516130000000  0.5501250000000 1.0
C      1  0.5015900000000  0.5074740000000  0.5033610000000 1.0
END
