TITL C-2782233-7966-1110 0.00162735413412867 125000 -180.582246782293 0 0 33 (C1) n - 1
REM
REM in /home/nfs/bkarasulu/CARBON/AIRSS/Generating-Clusters/REBO/Higher-Symm/SD-CG/HFTN-CG
REM
REM
REM
REM
REM
REM ./C.cell (12c818d87b63d06a65506943cc24bca4)
REM
REM compiler GCC version 9.2.1 20190827 (Red Hat 9.2.1-1)
REM options -cpp -mtune=generic -march=x86-64 -g -O0 -fpre-include=/usr/include/finclude/math-vector-fortran.h
REM seed -1205784981 -1484015973 -944717514 -489105565 -1154341316 1189326359 -124485639 1094557770 -294549769 148753795 480190755 -1384806452 651802798 1815926442 -2086822667 -1325049128 -639572589 921205745 -816197709 -2053139993 774354336 -629271659 256914740 -390186294 775340151 -1562321740 146931013 50850695 1960688137 841762247 -11152646 -609046680 -533925806
REM
CELL 1.54180   50.00000   50.00000   50.00000   90.00000   90.00000   90.00000
LATT -1
SFAC C  
C      1  0.5419250000000  0.4728940000000  0.4547600000000 1.0
C      1  0.5590940000000  0.4753850000000  0.4835740000000 1.0
C      1  0.5542820000000  0.4716900000000  0.5164700000000 1.0
C      1  0.5375580000000  0.4744400000000  0.5454130000000 1.0
C      1  0.5060880000000  0.4711240000000  0.5563470000000 1.0
C      1  0.4727810000000  0.4746830000000  0.5544810000000 1.0
C      1  0.4500770000000  0.4713730000000  0.5301390000000 1.0
C      1  0.4388200000000  0.4750000000000  0.4987520000000 1.0
C      1  0.4524910000000  0.4714670000000  0.4683930000000 1.0
C      1  0.4768830000000  0.4745840000000  0.4455810000000 1.0
C      1  0.5101630000000  0.4708050000000  0.4441790000000 1.0
C      1  0.5227120000000  0.5275590000000  0.5439860000000 1.0
C      1  0.4936310000000  0.5261600000000  0.5526900000000 1.0
C      1  0.4683030000000  0.5277120000000  0.5404660000000 1.0
C      1  0.4488280000000  0.5263190000000  0.5172120000000 1.0
C      1  0.4504560000000  0.5278720000000  0.4891580000000 1.0
C      1  0.4644460000000  0.5264050000000  0.4622580000000 1.0
C      1  0.4907760000000  0.5276510000000  0.4522610000000 1.0
C      1  0.5210660000000  0.5265220000000  0.4524700000000 1.0
C      1  0.5455280000000  0.5253330000000  0.4685880000000 1.0
C      1  0.5507350000000  0.5288370000000  0.4965920000000 1.0
C      1  0.5447420000000  0.5266790000000  0.5263420000000 1.0
C      1  0.5596830000000  0.4988740000000  0.5368190000000 1.0
C      1  0.5230330000000  0.5007110000000  0.5613870000000 1.0
C      1  0.4909710000000  0.4984300000000  0.5707730000000 1.0
C      1  0.4522370000000  0.5009370000000  0.5477440000000 1.0
C      1  0.4310100000000  0.4987530000000  0.5218920000000 1.0
C      1  0.4373950000000  0.5012030000000  0.4771250000000 1.0
C      1  0.4530400000000  0.4988420000000  0.4476020000000 1.0
C      1  0.4958410000000  0.5008860000000  0.4354020000000 1.0
C      1  0.5292450000000  0.4982120000000  0.4357910000000 1.0
C      1  0.5598590000000  0.5010860000000  0.4612120000000 1.0
C      1  0.5662970000000  0.5015740000000  0.5041400000000 1.0
END
