TITL C-2782239-8622-956 -0.00385416332641927 125000 -1159.18235832725 0 0 195 (C1) n - 1
REM
REM in /home/nfs/bkarasulu/CARBON/AIRSS/Generating-Clusters/REBO/Higher-Symm/SD-CG/HFTN-CG
REM
REM
REM
REM
REM
REM ./C.cell (12c818d87b63d06a65506943cc24bca4)
REM
REM compiler GCC version 9.2.1 20190827 (Red Hat 9.2.1-1)
REM options -cpp -mtune=generic -march=x86-64 -g -O0 -fpre-include=/usr/include/finclude/math-vector-fortran.h
REM seed -1384285658 43782735 1340011657 1404888390 2064078176 1418645343 -1184688260 -1526751501 -769853989 -14610547 791031384 -212236710 -1546714173 -1535365670 372939055 -900943370 1863729576 -340677224 -1561688067 -1173644669 414528225 1406631970 848938917 -55909401 939711348 -294085056 734676174 -1381392400 -2051338071 -1989012777 -646085066 1997144445 407877463
REM
CELL 1.54180   50.00000   50.00000   50.00000   90.00000   90.00000   90.00000
LATT -1
SFAC C  
C      1  0.5096150000000  0.4499880000000  0.5609610000000 1.0
C      1  0.4496850000000  0.4702720000000  0.5650470000000 1.0
C      1  0.4667490000000  0.5317610000000  0.5610750000000 1.0
C      1  0.5235290000000  0.5423220000000  0.5516130000000 1.0
C      1  0.5532810000000  0.4945950000000  0.5639640000000 1.0
C      1  0.4784210000000  0.4524920000000  0.5593260000000 1.0
C      1  0.5398390000000  0.4661180000000  0.5613680000000 1.0
C      1  0.5454330000000  0.5272840000000  0.5655110000000 1.0
C      1  0.4932210000000  0.5487250000000  0.5600570000000 1.0
C      1  0.4500790000000  0.5018460000000  0.5634340000000 1.0
C      1  0.4584370000000  0.4199620000000  0.4886650000000 1.0
C      1  0.4097080000000  0.5150930000000  0.4917200000000 1.0
C      1  0.4874940000000  0.5924220000000  0.4906240000000 1.0
C      1  0.5831440000000  0.5433110000000  0.4928310000000 1.0
C      1  0.5636260000000  0.4343920000000  0.4921000000000 1.0
C      1  0.5367820000000  0.4163880000000  0.4925720000000 1.0
C      1  0.5916980000000  0.5112550000000  0.4949190000000 1.0
C      1  0.5207440000000  0.5908250000000  0.4920800000000 1.0
C      1  0.4234690000000  0.5451030000000  0.4935180000000 1.0
C      1  0.4306000000000  0.4381340000000  0.4911430000000 1.0
C      1  0.4643300000000  0.4285830000000  0.5957090000000 1.0
C      1  0.4201340000000  0.5132130000000  0.5873570000000 1.0
C      1  0.4875210000000  0.5792190000000  0.5852050000000 1.0
C      1  0.5773350000000  0.5352890000000  0.5880550000000 1.0
C      1  0.5585420000000  0.4417240000000  0.5869130000000 1.0
C      1  0.5348480000000  0.4273370000000  0.5873710000000 1.0
C      1  0.5856290000000  0.5088380000000  0.5866810000000 1.0
C      1  0.5148510000000  0.5744050000000  0.5857780000000 1.0
C      1  0.4315330000000  0.5382350000000  0.5874290000000 1.0
C      1  0.4396290000000  0.4516230000000  0.5919490000000 1.0
C      1  0.4942970000000  0.4440500000000  0.4818520000000 1.0
C      1  0.4454930000000  0.4875550000000  0.4820890000000 1.0
C      1  0.4720500000000  0.5474180000000  0.4826240000000 1.0
C      1  0.5366670000000  0.5401980000000  0.4821440000000 1.0
C      1  0.5510560000000  0.4768210000000  0.4832460000000 1.0
C      1  0.5251170000000  0.4560920000000  0.4824700000000 1.0
C      1  0.5494340000000  0.5098170000000  0.4839150000000 1.0
C      1  0.5051570000000  0.5489500000000  0.4826500000000 1.0
C      1  0.4540920000000  0.5196250000000  0.4824770000000 1.0
C      1  0.4664000000000  0.4619600000000  0.4820670000000 1.0
C      1  0.5473240000000  0.5030500000000  0.3824290000000 1.0
C      1  0.5175030000000  0.4579040000000  0.3810320000000 1.0
C      1  0.4648640000000  0.4718420000000  0.3806440000000 1.0
C      1  0.4616740000000  0.5258230000000  0.3811400000000 1.0
C      1  0.5124900000000  0.5447660000000  0.3811000000000 1.0
C      1  0.4542820000000  0.4983400000000  0.3745810000000 1.0
C      1  0.4891360000000  0.4569170000000  0.3742920000000 1.0
C      1  0.5400910000000  0.4755910000000  0.3756400000000 1.0
C      1  0.5365700000000  0.5293220000000  0.3753980000000 1.0
C      1  0.4840430000000  0.5434360000000  0.3747100000000 1.0
C      1  0.5801040000000  0.4554310000000  0.5727210000000 1.0
C      1  0.4828220000000  0.4128390000000  0.5797570000000 1.0
C      1  0.4072470000000  0.4904700000000  0.5752410000000 1.0
C      1  0.4620460000000  0.5795230000000  0.5714100000000 1.0
C      1  0.5674550000000  0.5594730000000  0.5743330000000 1.0
C      1  0.4129310000000  0.4621690000000  0.5784100000000 1.0
C      1  0.5127010000000  0.4128000000000  0.5753400000000 1.0
C      1  0.5924170000000  0.4837880000000  0.5734540000000 1.0
C      1  0.5413330000000  0.5760610000000  0.5736680000000 1.0
C      1  0.4373390000000  0.5633370000000  0.5745590000000 1.0
C      1  0.4862180000000  0.6133290000000  0.5392100000000 1.0
C      1  0.6065560000000  0.5455030000000  0.5409430000000 1.0
C      1  0.5743700000000  0.4128880000000  0.5406700000000 1.0
C      1  0.4412850000000  0.4062820000000  0.5503280000000 1.0
C      1  0.3830590000000  0.5260290000000  0.5469340000000 1.0
C      1  0.5139840000000  0.6109760000000  0.5408430000000 1.0
C      1  0.3929580000000  0.5536640000000  0.5479910000000 1.0
C      1  0.4160830000000  0.4202780000000  0.5468410000000 1.0
C      1  0.5506860000000  0.3980370000000  0.5412270000000 1.0
C      1  0.6147090000000  0.5192310000000  0.5414920000000 1.0
C      1  0.4572720000000  0.4658940000000  0.4107980000000 1.0
C      1  0.4537590000000  0.5307840000000  0.4113800000000 1.0
C      1  0.5149530000000  0.5534860000000  0.4114090000000 1.0
C      1  0.5566570000000  0.5035140000000  0.4127300000000 1.0
C      1  0.5206850000000  0.4491330000000  0.4112860000000 1.0
C      1  0.5464740000000  0.4711170000000  0.4099960000000 1.0
C      1  0.5427770000000  0.5338580000000  0.4097780000000 1.0
C      1  0.4813110000000  0.5507090000000  0.4090820000000 1.0
C      1  0.4462980000000  0.4981050000000  0.4089370000000 1.0
C      1  0.4867010000000  0.4491490000000  0.4085590000000 1.0
C      1  0.5963240000000  0.4616270000000  0.4215610000000 1.0
C      1  0.4927330000000  0.3983680000000  0.4181030000000 1.0
C      1  0.3999310000000  0.4770220000000  0.4189000000000 1.0
C      1  0.4463820000000  0.5878230000000  0.4198540000000 1.0
C      1  0.5676680000000  0.5781860000000  0.4195410000000 1.0
C      1  0.4086780000000  0.4533050000000  0.4191170000000 1.0
C      1  0.5179260000000  0.3991680000000  0.4200520000000 1.0
C      1  0.6030520000000  0.4859280000000  0.4233530000000 1.0
C      1  0.5466170000000  0.5921910000000  0.4201980000000 1.0
C      1  0.4265380000000  0.5722490000000  0.4215340000000 1.0
C      1  0.4510940000000  0.5306340000000  0.5345460000000 1.0
C      1  0.5175660000000  0.5617610000000  0.5311470000000 1.0
C      1  0.5639170000000  0.5064580000000  0.5368160000000 1.0
C      1  0.5229680000000  0.4425090000000  0.5337860000000 1.0
C      1  0.4464540000000  0.4580080000000  0.5360020000000 1.0
C      1  0.5593780000000  0.5358090000000  0.5356010000000 1.0
C      1  0.4894960000000  0.5688390000000  0.5346130000000 1.0
C      1  0.4380880000000  0.5059700000000  0.5325150000000 1.0
C      1  0.4685650000000  0.4417950000000  0.5315770000000 1.0
C      1  0.5476610000000  0.4556820000000  0.5318210000000 1.0
C      1  0.4199170000000  0.5704430000000  0.5240930000000 1.0
C      1  0.5589920000000  0.5995510000000  0.5283100000000 1.0
C      1  0.6179770000000  0.4743150000000  0.5270280000000 1.0
C      1  0.5030820000000  0.3933930000000  0.5250900000000 1.0
C      1  0.3965500000000  0.4500770000000  0.5291070000000 1.0
C      1  0.5816110000000  0.5839970000000  0.5281170000000 1.0
C      1  0.4440330000000  0.5914570000000  0.5205420000000 1.0
C      1  0.3925110000000  0.4809170000000  0.5260990000000 1.0
C      1  0.4719860000000  0.3941780000000  0.5282730000000 1.0
C      1  0.6005480000000  0.4517960000000  0.5234220000000 1.0
C      1  0.4467680000000  0.5522430000000  0.5139520000000 1.0
C      1  0.5356920000000  0.5681810000000  0.5105770000000 1.0
C      1  0.5737280000000  0.4930510000000  0.5136170000000 1.0
C      1  0.5116760000000  0.4244030000000  0.5119890000000 1.0
C      1  0.4249590000000  0.4609080000000  0.5142840000000 1.0
C      1  0.5589410000000  0.5520330000000  0.5129050000000 1.0
C      1  0.4711980000000  0.5723290000000  0.5116780000000 1.0
C      1  0.4204880000000  0.4929790000000  0.5123470000000 1.0
C      1  0.4794410000000  0.4225740000000  0.5119970000000 1.0
C      1  0.5705060000000  0.4611970000000  0.5122260000000 1.0
C      1  0.4159320000000  0.5703350000000  0.5568560000000 1.0
C      1  0.5402370000000  0.5969100000000  0.5532900000000 1.0
C      1  0.6125770000000  0.4898430000000  0.5531160000000 1.0
C      1  0.5216390000000  0.3984380000000  0.5520400000000 1.0
C      1  0.4026190000000  0.4434760000000  0.5603120000000 1.0
C      1  0.5861210000000  0.5659350000000  0.5529630000000 1.0
C      1  0.4623990000000  0.5963650000000  0.5482780000000 1.0
C      1  0.3902750000000  0.4977610000000  0.5532200000000 1.0
C      1  0.4677940000000  0.3982390000000  0.5604190000000 1.0
C      1  0.5883120000000  0.4388290000000  0.5507210000000 1.0
C      1  0.4372370000000  0.4497900000000  0.4295600000000 1.0
C      1  0.4328730000000  0.5440160000000  0.4314170000000 1.0
C      1  0.5215840000000  0.5779550000000  0.4306100000000 1.0
C      1  0.5812110000000  0.5051310000000  0.4328190000000 1.0
C      1  0.5294780000000  0.4253830000000  0.4307400000000 1.0
C      1  0.5676680000000  0.4549630000000  0.4305610000000 1.0
C      1  0.5646830000000  0.5495230000000  0.4303730000000 1.0
C      1  0.4731450000000  0.5761420000000  0.4294970000000 1.0
C      1  0.4193630000000  0.4983390000000  0.4295720000000 1.0
C      1  0.4778710000000  0.4233390000000  0.4281750000000 1.0
C      1  0.4425620000000  0.4078320000000  0.5162280000000 1.0
C      1  0.3863800000000  0.5130700000000  0.5162970000000 1.0
C      1  0.4704600000000  0.6117290000000  0.5124970000000 1.0
C      1  0.5977370000000  0.5610270000000  0.5152280000000 1.0
C      1  0.5849470000000  0.4242720000000  0.5139600000000 1.0
C      1  0.5352730000000  0.3928060000000  0.5150970000000 1.0
C      1  0.6140040000000  0.5024350000000  0.5153890000000 1.0
C      1  0.5324140000000  0.6076680000000  0.5158680000000 1.0
C      1  0.3980920000000  0.5451860000000  0.5153360000000 1.0
C      1  0.4119330000000  0.4232920000000  0.5143780000000 1.0
C      1  0.5534890000000  0.5015660000000  0.4522350000000 1.0
C      1  0.5182260000000  0.4504400000000  0.4508290000000 1.0
C      1  0.4578750000000  0.4670400000000  0.4504440000000 1.0
C      1  0.4566440000000  0.5293190000000  0.4508930000000 1.0
C      1  0.5148800000000  0.5515190000000  0.4510040000000 1.0
C      1  0.4460000000000  0.4981390000000  0.4497790000000 1.0
C      1  0.4851210000000  0.4485470000000  0.4493900000000 1.0
C      1  0.5449960000000  0.4696760000000  0.4505480000000 1.0
C      1  0.5432860000000  0.5331180000000  0.4501550000000 1.0
C      1  0.4818900000000  0.5510750000000  0.4502470000000 1.0
C      1  0.4638750000000  0.4158950000000  0.4580570000000 1.0
C      1  0.4088210000000  0.5081540000000  0.4604340000000 1.0
C      1  0.4803870000000  0.5899020000000  0.4595530000000 1.0
C      1  0.5785480000000  0.5482190000000  0.4614200000000 1.0
C      1  0.5693910000000  0.4398280000000  0.4609390000000 1.0
C      1  0.5437880000000  0.4211710000000  0.4602120000000 1.0
C      1  0.5884100000000  0.5181950000000  0.4623680000000 1.0
C      1  0.5120670000000  0.5905040000000  0.4594230000000 1.0
C      1  0.4189830000000  0.5382650000000  0.4607480000000 1.0
C      1  0.4372180000000  0.4336630000000  0.4580540000000 1.0
C      1  0.5650870000000  0.5769300000000  0.4594310000000 1.0
C      1  0.5914180000000  0.4629610000000  0.4616540000000 1.0
C      1  0.4923450000000  0.4012020000000  0.4580840000000 1.0
C      1  0.4031110000000  0.4768300000000  0.4590260000000 1.0
C      1  0.4488610000000  0.5845210000000  0.4600610000000 1.0
C      1  0.4300980000000  0.5691510000000  0.4623230000000 1.0
C      1  0.4115170000000  0.4539770000000  0.4598340000000 1.0
C      1  0.5165220000000  0.4027110000000  0.4609450000000 1.0
C      1  0.5973740000000  0.4864450000000  0.4641660000000 1.0
C      1  0.5449640000000  0.5906620000000  0.4603760000000 1.0
C      1  0.5390050000000  0.4752530000000  0.5954460000000 1.0
C      1  0.4855070000000  0.4619550000000  0.5903110000000 1.0
C      1  0.4553400000000  0.4969990000000  0.5970030000000 1.0
C      1  0.4911930000000  0.5400020000000  0.5914140000000 1.0
C      1  0.5390560000000  0.5308510000000  0.5982200000000 1.0
C      1  0.4620740000000  0.4709500000000  0.6030100000000 1.0
C      1  0.5145270000000  0.4613820000000  0.5919150000000 1.0
C      1  0.5476950000000  0.5029620000000  0.5969070000000 1.0
C      1  0.5144470000000  0.5404570000000  0.6068120000000 1.0
C      1  0.4677460000000  0.5223980000000  0.5927810000000 1.0
C      1  0.5227640000000  0.4851380000000  0.5003730000000 1.0
C      1  0.4934670000000  0.4728510000000  0.5000240000000 1.0
C      1  0.4728680000000  0.4969910000000  0.5000190000000 1.0
C      1  0.5203080000000  0.5166800000000  0.5005300000000 1.0
C      1  0.4895210000000  0.5240340000000  0.5002180000000 1.0
END
