TITL C-2782227-3064-1485 0.0061232366139157 125000 -765.992574635096 0 0 132 (C1) n - 1
REM
REM in /home/nfs/bkarasulu/CARBON/AIRSS/Generating-Clusters/REBO/Higher-Symm/SD-CG/HFTN-CG
REM
REM
REM
REM
REM
REM ./C.cell (12c818d87b63d06a65506943cc24bca4)
REM
REM compiler GCC version 9.2.1 20190827 (Red Hat 9.2.1-1)
REM options -cpp -mtune=generic -march=x86-64 -g -O0 -fpre-include=/usr/include/finclude/math-vector-fortran.h
REM seed -2034348707 907937589 -1713647099 1275957315 -1441073161 1111199434 -732511742 897653639 1249170953 -1306545281 -1190621874 -1655681882 1610314070 896112465 -657471643 1234251331 361064357 -953565509 -1418740834 -361711944 1419798784 -2493657 -146302381 -7952835 523963246 -491815813 880140162 -1891066795 407656285 -1577475380 428316586 1301941405 -1115084967
REM
CELL 1.54180   50.00000   50.00000   50.00000   90.00000   90.00000   90.00000
LATT -1
SFAC C  
C      1  0.5210460000000  0.5635730000000  0.4490200000000 1.0
C      1  0.4451510000000  0.5761860000000  0.4613110000000 1.0
C      1  0.4411980000000  0.5738260000000  0.5430440000000 1.0
C      1  0.5271430000000  0.5846020000000  0.5725350000000 1.0
C      1  0.5925370000000  0.5702210000000  0.4889080000000 1.0
C      1  0.5481450000000  0.5682360000000  0.5528270000000 1.0
C      1  0.5924540000000  0.5633360000000  0.4623880000000 1.0
C      1  0.4925810000000  0.5637090000000  0.4398220000000 1.0
C      1  0.4341830000000  0.5672150000000  0.4884470000000 1.0
C      1  0.4548860000000  0.5579580000000  0.5698480000000 1.0
C      1  0.5467710000000  0.5066540000000  0.4461790000000 1.0
C      1  0.4632960000000  0.5061200000000  0.4443570000000 1.0
C      1  0.4372440000000  0.4991590000000  0.5223510000000 1.0
C      1  0.4941200000000  0.5198820000000  0.5646820000000 1.0
C      1  0.5763790000000  0.4959560000000  0.5182540000000 1.0
C      1  0.5387970000000  0.5366580000000  0.4399130000000 1.0
C      1  0.4586350000000  0.5359300000000  0.4698940000000 1.0
C      1  0.4779230000000  0.5484530000000  0.5240360000000 1.0
C      1  0.5126910000000  0.5554140000000  0.5661610000000 1.0
C      1  0.5860820000000  0.5439310000000  0.5079690000000 1.0
C      1  0.4393960000000  0.4977360000000  0.5820110000000 1.0
C      1  0.5641960000000  0.5097620000000  0.5684090000000 1.0
C      1  0.5948840000000  0.4987300000000  0.4570170000000 1.0
C      1  0.4838080000000  0.5044220000000  0.4080100000000 1.0
C      1  0.4102350000000  0.5033830000000  0.4855470000000 1.0
C      1  0.4837090000000  0.5094520000000  0.5216440000000 1.0
C      1  0.5161360000000  0.5091840000000  0.5190380000000 1.0
C      1  0.5327720000000  0.5133050000000  0.4896250000000 1.0
C      1  0.5027070000000  0.5084670000000  0.4764980000000 1.0
C      1  0.4733860000000  0.5145130000000  0.4918820000000 1.0
C      1  0.4359500000000  0.5644370000000  0.4357030000000 1.0
C      1  0.4397310000000  0.5449690000000  0.5353070000000 1.0
C      1  0.5239320000000  0.6067610000000  0.5852390000000 1.0
C      1  0.5918350000000  0.5782490000000  0.5193250000000 1.0
C      1  0.5478700000000  0.5745660000000  0.4333880000000 1.0
C      1  0.4298820000000  0.4368060000000  0.5308920000000 1.0
C      1  0.5089970000000  0.4441320000000  0.5741050000000 1.0
C      1  0.5749690000000  0.4450500000000  0.5134710000000 1.0
C      1  0.5329340000000  0.4423250000000  0.4319950000000 1.0
C      1  0.4465860000000  0.4426260000000  0.4477180000000 1.0
C      1  0.4423290000000  0.5244360000000  0.5525360000000 1.0
C      1  0.5312000000000  0.5315470000000  0.5725540000000 1.0
C      1  0.5876440000000  0.5207470000000  0.4892600000000 1.0
C      1  0.5158450000000  0.5202850000000  0.4251460000000 1.0
C      1  0.4298190000000  0.5225310000000  0.4569100000000 1.0
C      1  0.4049010000000  0.4664700000000  0.5222920000000 1.0
C      1  0.4930060000000  0.4771660000000  0.5877840000000 1.0
C      1  0.5952710000000  0.4714630000000  0.5346050000000 1.0
C      1  0.5590570000000  0.4697970000000  0.4201920000000 1.0
C      1  0.4445620000000  0.4704150000000  0.4196640000000 1.0
C      1  0.5312250000000  0.4856260000000  0.4584400000000 1.0
C      1  0.4834230000000  0.4804430000000  0.4739730000000 1.0
C      1  0.4577920000000  0.4779890000000  0.5130480000000 1.0
C      1  0.4950780000000  0.4817750000000  0.5387500000000 1.0
C      1  0.5234440000000  0.4789650000000  0.5076390000000 1.0
C      1  0.4612300000000  0.5020740000000  0.5445470000000 1.0
C      1  0.5226860000000  0.5099930000000  0.5490640000000 1.0
C      1  0.5614790000000  0.5003230000000  0.4887100000000 1.0
C      1  0.4948060000000  0.5067610000000  0.4461680000000 1.0
C      1  0.4482810000000  0.4993690000000  0.4741550000000 1.0
C      1  0.4814120000000  0.5479580000000  0.5559510000000 1.0
C      1  0.5751080000000  0.5559060000000  0.5378930000000 1.0
C      1  0.5696170000000  0.5509820000000  0.4410400000000 1.0
C      1  0.4635790000000  0.5470970000000  0.4411700000000 1.0
C      1  0.4494360000000  0.5430000000000  0.5062870000000 1.0
C      1  0.5644040000000  0.4589150000000  0.5416350000000 1.0
C      1  0.5619640000000  0.4508990000000  0.4460930000000 1.0
C      1  0.4696510000000  0.4492520000000  0.4251870000000 1.0
C      1  0.4188370000000  0.4451800000000  0.5008620000000 1.0
C      1  0.4767190000000  0.4499790000000  0.5750750000000 1.0
C      1  0.5128330000000  0.4237840000000  0.4394780000000 1.0
C      1  0.4474930000000  0.4220500000000  0.4668440000000 1.0
C      1  0.4515890000000  0.4200430000000  0.5375490000000 1.0
C      1  0.5177380000000  0.4205800000000  0.5553690000000 1.0
C      1  0.5574480000000  0.4246410000000  0.4988710000000 1.0
C      1  0.4147810000000  0.4921120000000  0.4536110000000 1.0
C      1  0.4211870000000  0.4755630000000  0.5712500000000 1.0
C      1  0.5361810000000  0.4999560000000  0.5852580000000 1.0
C      1  0.6005500000000  0.4889420000000  0.4872140000000 1.0
C      1  0.5155100000000  0.4916750000000  0.4067240000000 1.0
C      1  0.5703420000000  0.4793540000000  0.4631940000000 1.0
C      1  0.4860600000000  0.4772740000000  0.4290760000000 1.0
C      1  0.4286590000000  0.4741840000000  0.4860790000000 1.0
C      1  0.4605340000000  0.4773320000000  0.5648830000000 1.0
C      1  0.5471510000000  0.4872420000000  0.5493510000000 1.0
C      1  0.5420950000000  0.4392690000000  0.5530590000000 1.0
C      1  0.5595380000000  0.4454450000000  0.4768380000000 1.0
C      1  0.4897000000000  0.4259400000000  0.4244320000000 1.0
C      1  0.4248990000000  0.4214000000000  0.4825910000000 1.0
C      1  0.4623970000000  0.4254290000000  0.5624500000000 1.0
C      1  0.5909940000000  0.5303880000000  0.4567830000000 1.0
C      1  0.4868020000000  0.5360960000000  0.4203480000000 1.0
C      1  0.4226630000000  0.5351150000000  0.4868450000000 1.0
C      1  0.4410200000000  0.5296500000000  0.5826610000000 1.0
C      1  0.5622270000000  0.5407350000000  0.5647590000000 1.0
C      1  0.4830400000000  0.5943430000000  0.4838880000000 1.0
C      1  0.4677550000000  0.6011430000000  0.5087040000000 1.0
C      1  0.4882770000000  0.6071310000000  0.5286210000000 1.0
C      1  0.5131710000000  0.5943410000000  0.5206440000000 1.0
C      1  0.5110060000000  0.5895140000000  0.4914780000000 1.0
C      1  0.4253210000000  0.4676080000000  0.4434310000000 1.0
C      1  0.4161450000000  0.4579210000000  0.5498640000000 1.0
C      1  0.5231100000000  0.4743920000000  0.5809150000000 1.0
C      1  0.5968890000000  0.4658230000000  0.5021500000000 1.0
C      1  0.5297130000000  0.4676230000000  0.4111820000000 1.0
C      1  0.5227080000000  0.5667960000000  0.4786850000000 1.0
C      1  0.4728910000000  0.5816060000000  0.4609640000000 1.0
C      1  0.4444150000000  0.5857250000000  0.5150390000000 1.0
C      1  0.5066430000000  0.5486840000000  0.5176230000000 1.0
C      1  0.5205190000000  0.5692810000000  0.5362410000000 1.0
C      1  0.5065760000000  0.4072830000000  0.5261150000000 1.0
C      1  0.5269040000000  0.4096610000000  0.4988040000000 1.0
C      1  0.5073960000000  0.4112940000000  0.4708020000000 1.0
C      1  0.4749050000000  0.4075980000000  0.4810560000000 1.0
C      1  0.4741020000000  0.4071850000000  0.5152940000000 1.0
C      1  0.4839530000000  0.5035440000000  0.5838770000000 1.0
C      1  0.5852300000000  0.4987220000000  0.5491180000000 1.0
C      1  0.5656640000000  0.4964490000000  0.4273480000000 1.0
C      1  0.4533730000000  0.4968900000000  0.4174330000000 1.0
C      1  0.4101710000000  0.4934080000000  0.5156550000000 1.0
C      1  0.5136600000000  0.4401530000000  0.5208270000000 1.0
C      1  0.5225230000000  0.4422200000000  0.4910940000000 1.0
C      1  0.4992710000000  0.4439700000000  0.4709850000000 1.0
C      1  0.4747740000000  0.4386440000000  0.4907730000000 1.0
C      1  0.4827640000000  0.4388570000000  0.5214940000000 1.0
C      1  0.4702410000000  0.4610340000000  0.5372000000000 1.0
C      1  0.5251220000000  0.4655080000000  0.5385550000000 1.0
C      1  0.5381700000000  0.4685580000000  0.4836060000000 1.0
C      1  0.5049420000000  0.4689380000000  0.4531120000000 1.0
C      1  0.4587700000000  0.4625930000000  0.4845120000000 1.0
C      1  0.5215720000000  0.5437160000000  0.4941920000000 1.0
C      1  0.4909380000000  0.4742580000000  0.5050040000000 1.0
END
