TITL C-2782230-7391-1494 -0.00497933446501594 125000 -1020.35651362073 0 0 175 (C1) n - 1
REM
REM in /home/nfs/bkarasulu/CARBON/AIRSS/Generating-Clusters/REBO/Higher-Symm/SD-CG/HFTN-CG
REM
REM
REM
REM
REM
REM ./C.cell (12c818d87b63d06a65506943cc24bca4)
REM
REM compiler GCC version 9.2.1 20190827 (Red Hat 9.2.1-1)
REM options -cpp -mtune=generic -march=x86-64 -g -O0 -fpre-include=/usr/include/finclude/math-vector-fortran.h
REM seed 169292410 -1332979875 -497654436 -1338568828 -471333535 650667830 461518636 -896628013 1566864552 -714071151 173955434 -2007429525 -919088605 462355214 -1301562955 1832361202 632175867 1829558255 -166608059 -1850287114 -1896979614 -1353468830 -1772617983 1892305966 -1618799480 -755589317 -1298818835 -1324614241 2064043013 -2059076517 -1875562134 -689343951 -735453164
REM
CELL 1.54180   50.00000   50.00000   50.00000   90.00000   90.00000   90.00000
LATT -1
SFAC C  
C      1  0.6170560000000  0.5189160000000  0.4834970000000 1.0
C      1  0.6141150000000  0.4843960000000  0.5163040000000 1.0
C      1  0.3967090000000  0.5125040000000  0.4945820000000 1.0
C      1  0.3801760000000  0.4843720000000  0.5174290000000 1.0
C      1  0.6180360000000  0.4886730000000  0.4860890000000 1.0
C      1  0.6039280000000  0.5148690000000  0.5125740000000 1.0
C      1  0.3854680000000  0.4834530000000  0.4869320000000 1.0
C      1  0.3803500000000  0.5146610000000  0.5224820000000 1.0
C      1  0.5480040000000  0.4714780000000  0.4047350000000 1.0
C      1  0.5494180000000  0.5295130000000  0.5968600000000 1.0
C      1  0.4518300000000  0.4658730000000  0.4039820000000 1.0
C      1  0.4514030000000  0.5296000000000  0.5940780000000 1.0
C      1  0.5472630000000  0.5336260000000  0.4049710000000 1.0
C      1  0.5473790000000  0.4685780000000  0.5970890000000 1.0
C      1  0.4504550000000  0.5218690000000  0.4048010000000 1.0
C      1  0.4495550000000  0.4740340000000  0.5914100000000 1.0
C      1  0.5252170000000  0.4461660000000  0.5153800000000 1.0
C      1  0.5272400000000  0.5553160000000  0.4852040000000 1.0
C      1  0.4754780000000  0.4491730000000  0.5099990000000 1.0
C      1  0.4776970000000  0.5436220000000  0.4827330000000 1.0
C      1  0.5287100000000  0.5533190000000  0.5151680000000 1.0
C      1  0.5248390000000  0.4496360000000  0.4851970000000 1.0
C      1  0.4774200000000  0.5508870000000  0.5127520000000 1.0
C      1  0.4731040000000  0.4518470000000  0.4797180000000 1.0
C      1  0.4424700000000  0.5194250000000  0.5638730000000 1.0
C      1  0.4416830000000  0.4747270000000  0.4332430000000 1.0
C      1  0.5607560000000  0.5234520000000  0.5679130000000 1.0
C      1  0.5617260000000  0.4770430000000  0.4332980000000 1.0
C      1  0.4427300000000  0.4849790000000  0.5612100000000 1.0
C      1  0.4425010000000  0.5259760000000  0.4379790000000 1.0
C      1  0.5594290000000  0.4735720000000  0.5681290000000 1.0
C      1  0.5613150000000  0.5273590000000  0.4324520000000 1.0
C      1  0.5106730000000  0.4264920000000  0.5383500000000 1.0
C      1  0.5146880000000  0.5791100000000  0.4671670000000 1.0
C      1  0.4806120000000  0.4257340000000  0.5308650000000 1.0
C      1  0.4837840000000  0.5712270000000  0.4631730000000 1.0
C      1  0.5156540000000  0.5737740000000  0.5386610000000 1.0
C      1  0.5144690000000  0.4254280000000  0.4659670000000 1.0
C      1  0.4847390000000  0.5759700000000  0.5323430000000 1.0
C      1  0.4835640000000  0.4258210000000  0.4604830000000 1.0
C      1  0.4847090000000  0.5485510000000  0.5844950000000 1.0
C      1  0.4859780000000  0.4464320000000  0.4088210000000 1.0
C      1  0.5127830000000  0.5420640000000  0.5886380000000 1.0
C      1  0.5118500000000  0.4591580000000  0.4156670000000 1.0
C      1  0.4820440000000  0.4540270000000  0.5814970000000 1.0
C      1  0.4850500000000  0.5405210000000  0.4093870000000 1.0
C      1  0.5100950000000  0.4574900000000  0.5890800000000 1.0
C      1  0.5127590000000  0.5488460000000  0.4161770000000 1.0
C      1  0.5477700000000  0.5611700000000  0.4010520000000 1.0
C      1  0.5498400000000  0.4410810000000  0.6013290000000 1.0
C      1  0.4394320000000  0.5492430000000  0.4056650000000 1.0
C      1  0.4424240000000  0.4472010000000  0.5925030000000 1.0
C      1  0.5493350000000  0.4438450000000  0.4011490000000 1.0
C      1  0.5554120000000  0.5567190000000  0.6005490000000 1.0
C      1  0.4441580000000  0.4394680000000  0.3999120000000 1.0
C      1  0.4473470000000  0.5569580000000  0.5960100000000 1.0
C      1  0.5313400000000  0.4796300000000  0.5173210000000 1.0
C      1  0.5330930000000  0.5236540000000  0.4779980000000 1.0
C      1  0.4900740000000  0.4796860000000  0.5074720000000 1.0
C      1  0.4863030000000  0.5105920000000  0.4771520000000 1.0
C      1  0.5356540000000  0.5207810000000  0.5175430000000 1.0
C      1  0.5317930000000  0.4811570000000  0.4777270000000 1.0
C      1  0.4882640000000  0.5187520000000  0.5152840000000 1.0
C      1  0.4718350000000  0.4854200000000  0.4726200000000 1.0
C      1  0.4568430000000  0.5930370000000  0.5125520000000 1.0
C      1  0.4532590000000  0.3970480000000  0.4910220000000 1.0
C      1  0.5401610000000  0.5984940000000  0.5228930000000 1.0
C      1  0.5366910000000  0.4078410000000  0.4915860000000 1.0
C      1  0.4544600000000  0.3988220000000  0.5236770000000 1.0
C      1  0.4608610000000  0.5966750000000  0.4800100000000 1.0
C      1  0.5367770000000  0.3988020000000  0.5231830000000 1.0
C      1  0.5400110000000  0.5963250000000  0.4900480000000 1.0
C      1  0.4305660000000  0.5125730000000  0.4904920000000 1.0
C      1  0.4574750000000  0.4857310000000  0.5099040000000 1.0
C      1  0.5639150000000  0.5182110000000  0.4810090000000 1.0
C      1  0.5628610000000  0.4826580000000  0.5173010000000 1.0
C      1  0.4408630000000  0.4825370000000  0.4807240000000 1.0
C      1  0.4541700000000  0.5184030000000  0.5143350000000 1.0
C      1  0.5625680000000  0.4857290000000  0.4842670000000 1.0
C      1  0.5696490000000  0.5159550000000  0.5145750000000 1.0
C      1  0.4877850000000  0.4646360000000  0.4524110000000 1.0
C      1  0.4897240000000  0.5374710000000  0.5417670000000 1.0
C      1  0.5164460000000  0.4637860000000  0.4550950000000 1.0
C      1  0.5204970000000  0.5344470000000  0.5425490000000 1.0
C      1  0.4907190000000  0.5330990000000  0.4545300000000 1.0
C      1  0.4864600000000  0.4662270000000  0.5376360000000 1.0
C      1  0.5189020000000  0.5413040000000  0.4549380000000 1.0
C      1  0.5170290000000  0.4656450000000  0.5419780000000 1.0
C      1  0.5315540000000  0.4857200000000  0.4380650000000 1.0
C      1  0.5305980000000  0.5157140000000  0.5644270000000 1.0
C      1  0.4719790000000  0.4843090000000  0.4329270000000 1.0
C      1  0.4763190000000  0.5180310000000  0.5602240000000 1.0
C      1  0.5313210000000  0.5180140000000  0.4381120000000 1.0
C      1  0.5291590000000  0.4825610000000  0.5644480000000 1.0
C      1  0.4717350000000  0.5157150000000  0.4375960000000 1.0
C      1  0.4760990000000  0.4850810000000  0.5570470000000 1.0
C      1  0.5457830000000  0.4323680000000  0.4558780000000 1.0
C      1  0.5489100000000  0.5690990000000  0.5456460000000 1.0
C      1  0.4512750000000  0.4275770000000  0.4524010000000 1.0
C      1  0.4546270000000  0.5673640000000  0.5428950000000 1.0
C      1  0.5458760000000  0.5732150000000  0.4547250000000 1.0
C      1  0.5430930000000  0.4298160000000  0.5471600000000 1.0
C      1  0.4515520000000  0.5655230000000  0.4573860000000 1.0
C      1  0.4498200000000  0.4363270000000  0.5378470000000 1.0
C      1  0.4146990000000  0.5491570000000  0.4915060000000 1.0
C      1  0.4187620000000  0.4527180000000  0.5190180000000 1.0
C      1  0.5833080000000  0.5528420000000  0.4859600000000 1.0
C      1  0.5817820000000  0.4475640000000  0.5154070000000 1.0
C      1  0.4192080000000  0.4489690000000  0.4866920000000 1.0
C      1  0.4138910000000  0.5467220000000  0.5245080000000 1.0
C      1  0.5846950000000  0.4522170000000  0.4842720000000 1.0
C      1  0.5881480000000  0.5511600000000  0.5180120000000 1.0
C      1  0.4497670000000  0.4214390000000  0.4199220000000 1.0
C      1  0.4544730000000  0.5729580000000  0.5752280000000 1.0
C      1  0.5432690000000  0.4281360000000  0.4226570000000 1.0
C      1  0.5489450000000  0.5732780000000  0.5794040000000 1.0
C      1  0.4478910000000  0.5664030000000  0.4250810000000 1.0
C      1  0.4478300000000  0.4312490000000  0.5710460000000 1.0
C      1  0.5417610000000  0.5773500000000  0.4221240000000 1.0
C      1  0.5423890000000  0.4249290000000  0.5803920000000 1.0
C      1  0.5878370000000  0.5120870000000  0.5583160000000 1.0
C      1  0.5867360000000  0.4887960000000  0.4485050000000 1.0
C      1  0.4089750000000  0.5143160000000  0.5604300000000 1.0
C      1  0.4154760000000  0.4859940000000  0.4487580000000 1.0
C      1  0.5857760000000  0.4839550000000  0.5545490000000 1.0
C      1  0.5866400000000  0.5168330000000  0.4472250000000 1.0
C      1  0.4088430000000  0.4840460000000  0.5566790000000 1.0
C      1  0.4148370000000  0.5143200000000  0.4480930000000 1.0
C      1  0.3982980000000  0.4700040000000  0.5342270000000 1.0
C      1  0.4002310000000  0.5292870000000  0.4679270000000 1.0
C      1  0.5973190000000  0.4695910000000  0.5328140000000 1.0
C      1  0.5990700000000  0.5324390000000  0.4670630000000 1.0
C      1  0.3955110000000  0.5294570000000  0.5405180000000 1.0
C      1  0.4030730000000  0.4704940000000  0.4697200000000 1.0
C      1  0.6021450000000  0.5293320000000  0.5401870000000 1.0
C      1  0.5997780000000  0.4748740000000  0.4693140000000 1.0
C      1  0.5618000000000  0.5451900000000  0.4603780000000 1.0
C      1  0.5599820000000  0.4572260000000  0.5397890000000 1.0
C      1  0.4388110000000  0.5379890000000  0.4695930000000 1.0
C      1  0.4448770000000  0.4683150000000  0.5315690000000 1.0
C      1  0.5617550000000  0.4603750000000  0.4614030000000 1.0
C      1  0.5639690000000  0.5400410000000  0.5393170000000 1.0
C      1  0.4387620000000  0.4556460000000  0.4598950000000 1.0
C      1  0.4430390000000  0.5378080000000  0.5354900000000 1.0
C      1  0.5190650000000  0.5151960000000  0.6027250000000 1.0
C      1  0.5177310000000  0.4863910000000  0.3999230000000 1.0
C      1  0.4828930000000  0.5177600000000  0.5996200000000 1.0
C      1  0.4827180000000  0.4776860000000  0.3955560000000 1.0
C      1  0.5176750000000  0.4842580000000  0.6027800000000 1.0
C      1  0.5171450000000  0.5185120000000  0.4008690000000 1.0
C      1  0.4814570000000  0.4836630000000  0.5987660000000 1.0
C      1  0.4819070000000  0.5102860000000  0.3985110000000 1.0
C      1  0.5646390000000  0.5787670000000  0.4815370000000 1.0
C      1  0.5604830000000  0.4227740000000  0.5196470000000 1.0
C      1  0.4351210000000  0.5748560000000  0.4845320000000 1.0
C      1  0.4318430000000  0.4220610000000  0.5132050000000 1.0
C      1  0.5614640000000  0.4288900000000  0.4859660000000 1.0
C      1  0.5643680000000  0.5754430000000  0.5156900000000 1.0
C      1  0.4356500000000  0.4207760000000  0.4792150000000 1.0
C      1  0.4326760000000  0.5724210000000  0.5184500000000 1.0
C      1  0.4798110000000  0.5668900000000  0.4294270000000 1.0
C      1  0.4792880000000  0.4271570000000  0.5631210000000 1.0
C      1  0.5114950000000  0.5761100000000  0.4348140000000 1.0
C      1  0.5118330000000  0.4292920000000  0.5718200000000 1.0
C      1  0.4810420000000  0.4205260000000  0.4269910000000 1.0
C      1  0.4861590000000  0.5759560000000  0.5655460000000 1.0
C      1  0.5127130000000  0.4301660000000  0.4335610000000 1.0
C      1  0.5186660000000  0.5692360000000  0.5716280000000 1.0
C      1  0.5090890000000  0.3972260000000  0.5065740000000 1.0
C      1  0.5121300000000  0.6008360000000  0.5052380000000 1.0
C      1  0.4822080000000  0.3948100000000  0.5056170000000 1.0
C      1  0.4860880000000  0.6000890000000  0.5004930000000 1.0
C      1  0.5019720000000  0.5010600000000  0.4334310000000 1.0
C      1  0.5022100000000  0.5003620000000  0.5697000000000 1.0
C      1  0.5136580000000  0.5026950000000  0.4977900000000 1.0
END
