TITL C-2782227-3064-316 0.00516092413223145 125000 -722.101553492076 0 0 128 (C1) n - 1
REM
REM in /home/nfs/bkarasulu/CARBON/AIRSS/Generating-Clusters/REBO/Higher-Symm/SD-CG/HFTN-CG
REM
REM
REM
REM
REM
REM ./C.cell (12c818d87b63d06a65506943cc24bca4)
REM
REM compiler GCC version 9.2.1 20190827 (Red Hat 9.2.1-1)
REM options -cpp -mtune=generic -march=x86-64 -g -O0 -fpre-include=/usr/include/finclude/math-vector-fortran.h
REM seed -1157400065 1574666260 -1859551430 1423518404 -222008144 -1692162232 -207238810 -256543167 1976698690 607943982 356542007 1212322821 -1975154121 -2092939908 1104193200 -1909253891 1896054642 669175396 176705405 1900028432 -1205843053 847514250 -174934081 -907882327 -1555820227 169640872 -1046225186 1437554882 -1099375348 282375194 -227901924 349333946 -1036892876
REM
CELL 1.54180   50.00000   50.00000   50.00000   90.00000   90.00000   90.00000
LATT -1
SFAC C  
C      1  0.5343570000000  0.4078420000000  0.4646510000000 1.0
C      1  0.5370710000000  0.5872190000000  0.4571050000000 1.0
C      1  0.5618030000000  0.5515310000000  0.5488820000000 1.0
C      1  0.5666550000000  0.4445490000000  0.5360540000000 1.0
C      1  0.5653830000000  0.5775290000000  0.5041190000000 1.0
C      1  0.5835800000000  0.4194170000000  0.4882510000000 1.0
C      1  0.5257770000000  0.5174480000000  0.5874750000000 1.0
C      1  0.5162170000000  0.4852930000000  0.5932460000000 1.0
C      1  0.5070850000000  0.4707220000000  0.4178370000000 1.0
C      1  0.5073460000000  0.5301090000000  0.4218090000000 1.0
C      1  0.5248620000000  0.4372490000000  0.4940020000000 1.0
C      1  0.5173790000000  0.5596930000000  0.4969730000000 1.0
C      1  0.4995050000000  0.4081270000000  0.5449310000000 1.0
C      1  0.5019570000000  0.5764140000000  0.5489120000000 1.0
C      1  0.4537580000000  0.5294280000000  0.4178500000000 1.0
C      1  0.4541660000000  0.4770340000000  0.4129710000000 1.0
C      1  0.4891100000000  0.5700800000000  0.4454630000000 1.0
C      1  0.4945430000000  0.4352350000000  0.4415870000000 1.0
C      1  0.4687260000000  0.4199040000000  0.5508100000000 1.0
C      1  0.4680520000000  0.5771270000000  0.5460260000000 1.0
C      1  0.5024120000000  0.3944860000000  0.5161300000000 1.0
C      1  0.5058320000000  0.6062120000000  0.5086420000000 1.0
C      1  0.5569060000000  0.4818920000000  0.5673000000000 1.0
C      1  0.5564040000000  0.5091000000000  0.5750320000000 1.0
C      1  0.5266840000000  0.4627260000000  0.4445540000000 1.0
C      1  0.5271040000000  0.5371930000000  0.4481910000000 1.0
C      1  0.5591830000000  0.5277720000000  0.4420040000000 1.0
C      1  0.5484910000000  0.4450000000000  0.4267550000000 1.0
C      1  0.4848630000000  0.6031470000000  0.4386010000000 1.0
C      1  0.4875000000000  0.4037990000000  0.4365370000000 1.0
C      1  0.4370390000000  0.4595870000000  0.5429340000000 1.0
C      1  0.4339960000000  0.5384750000000  0.5435830000000 1.0
C      1  0.4744910000000  0.3889200000000  0.5009880000000 1.0
C      1  0.4771030000000  0.6129100000000  0.4952990000000 1.0
C      1  0.5379800000000  0.5190480000000  0.5279210000000 1.0
C      1  0.5373680000000  0.4713390000000  0.5313850000000 1.0
C      1  0.5786760000000  0.4499760000000  0.4735930000000 1.0
C      1  0.5718490000000  0.5500520000000  0.4848680000000 1.0
C      1  0.4813250000000  0.4753370000000  0.5504320000000 1.0
C      1  0.4793430000000  0.5245830000000  0.5465290000000 1.0
C      1  0.5284240000000  0.5317460000000  0.5579950000000 1.0
C      1  0.5290830000000  0.4697770000000  0.5703380000000 1.0
C      1  0.4655160000000  0.5314170000000  0.5200360000000 1.0
C      1  0.4713800000000  0.4645150000000  0.5230920000000 1.0
C      1  0.4554890000000  0.5635380000000  0.5211390000000 1.0
C      1  0.4606470000000  0.4333580000000  0.5242490000000 1.0
C      1  0.4276920000000  0.4723580000000  0.5209210000000 1.0
C      1  0.4257990000000  0.5256000000000  0.5215030000000 1.0
C      1  0.4947770000000  0.5275710000000  0.5948240000000 1.0
C      1  0.4881350000000  0.4795860000000  0.5976460000000 1.0
C      1  0.4918530000000  0.4149380000000  0.4917210000000 1.0
C      1  0.4847040000000  0.5817560000000  0.5009340000000 1.0
C      1  0.5303930000000  0.5631390000000  0.5558230000000 1.0
C      1  0.5323810000000  0.4393030000000  0.5675460000000 1.0
C      1  0.4770320000000  0.5406390000000  0.5749100000000 1.0
C      1  0.4752720000000  0.4609450000000  0.5792510000000 1.0
C      1  0.4464000000000  0.5717060000000  0.4966930000000 1.0
C      1  0.4545890000000  0.4278820000000  0.4983260000000 1.0
C      1  0.4847620000000  0.3984670000000  0.5717870000000 1.0
C      1  0.4854100000000  0.6002420000000  0.5635210000000 1.0
C      1  0.5321660000000  0.4539530000000  0.4060830000000 1.0
C      1  0.5398880000000  0.5357470000000  0.4161870000000 1.0
C      1  0.4763700000000  0.5398660000000  0.4682760000000 1.0
C      1  0.4834560000000  0.4671660000000  0.4827650000000 1.0
C      1  0.4527730000000  0.5549640000000  0.4398930000000 1.0
C      1  0.4653360000000  0.4615940000000  0.4476090000000 1.0
C      1  0.6084200000000  0.4820690000000  0.5061570000000 1.0
C      1  0.6052100000000  0.5143060000000  0.5121590000000 1.0
C      1  0.5521730000000  0.4291230000000  0.4793810000000 1.0
C      1  0.5438620000000  0.5688540000000  0.4802060000000 1.0
C      1  0.5751200000000  0.4685140000000  0.5498890000000 1.0
C      1  0.5732950000000  0.5262040000000  0.5603440000000 1.0
C      1  0.5081120000000  0.4518120000000  0.4681870000000 1.0
C      1  0.5079510000000  0.5520650000000  0.4661130000000 1.0
C      1  0.4107290000000  0.5385400000000  0.4744570000000 1.0
C      1  0.4114410000000  0.4592090000000  0.4743980000000 1.0
C      1  0.5105830000000  0.4789780000000  0.5438080000000 1.0
C      1  0.5062660000000  0.5184080000000  0.5393480000000 1.0
C      1  0.4930670000000  0.4451550000000  0.5044990000000 1.0
C      1  0.4848680000000  0.5492420000000  0.4984330000000 1.0
C      1  0.5731820000000  0.5172520000000  0.5091270000000 1.0
C      1  0.5762990000000  0.4770560000000  0.5027850000000 1.0
C      1  0.4555720000000  0.4468120000000  0.5613420000000 1.0
C      1  0.4534620000000  0.5521780000000  0.5593210000000 1.0
C      1  0.5496630000000  0.5788580000000  0.5321740000000 1.0
C      1  0.5431780000000  0.4313170000000  0.5435030000000 1.0
C      1  0.4333720000000  0.5260190000000  0.4902810000000 1.0
C      1  0.4336760000000  0.4708840000000  0.4884590000000 1.0
C      1  0.4561300000000  0.4508700000000  0.4835640000000 1.0
C      1  0.4483360000000  0.5514520000000  0.4776240000000 1.0
C      1  0.5688390000000  0.5468400000000  0.5184130000000 1.0
C      1  0.5746930000000  0.4458720000000  0.5077010000000 1.0
C      1  0.5139200000000  0.5930520000000  0.4455520000000 1.0
C      1  0.5040460000000  0.4122360000000  0.4647630000000 1.0
C      1  0.5188630000000  0.5800550000000  0.5216440000000 1.0
C      1  0.5225110000000  0.4210550000000  0.5232520000000 1.0
C      1  0.5947930000000  0.4850940000000  0.5372450000000 1.0
C      1  0.5927260000000  0.5144500000000  0.5439120000000 1.0
C      1  0.4821420000000  0.5470460000000  0.4247720000000 1.0
C      1  0.4794160000000  0.4551500000000  0.4205900000000 1.0
C      1  0.5834670000000  0.4765930000000  0.4634720000000 1.0
C      1  0.5806160000000  0.5290530000000  0.4674560000000 1.0
C      1  0.5069870000000  0.4974260000000  0.5151150000000 1.0
C      1  0.4709250000000  0.5037220000000  0.4084090000000 1.0
C      1  0.5821770000000  0.5041580000000  0.4441880000000 1.0
C      1  0.4120000000000  0.4986470000000  0.5543130000000 1.0
C      1  0.4500190000000  0.5002250000000  0.4848410000000 1.0
C      1  0.5581680000000  0.4985860000000  0.4847440000000 1.0
C      1  0.4660430000000  0.5013250000000  0.5626490000000 1.0
C      1  0.4094420000000  0.4984590000000  0.5093770000000 1.0
C      1  0.5014700000000  0.5038500000000  0.4513840000000 1.0
C      1  0.3864150000000  0.4982520000000  0.5599830000000 1.0
C      1  0.4749470000000  0.5049040000000  0.5925430000000 1.0
C      1  0.4374950000000  0.4990470000000  0.5489990000000 1.0
C      1  0.4811200000000  0.4938290000000  0.4979170000000 1.0
C      1  0.4554190000000  0.4892970000000  0.4471160000000 1.0
C      1  0.4078510000000  0.4988110000000  0.4762770000000 1.0
C      1  0.4598760000000  0.4973720000000  0.5234540000000 1.0
C      1  0.5557290000000  0.4918460000000  0.5238500000000 1.0
C      1  0.4994830000000  0.4999050000000  0.4193640000000 1.0
C      1  0.4351280000000  0.5026910000000  0.4256500000000 1.0
C      1  0.5233310000000  0.5015120000000  0.4658620000000 1.0
C      1  0.5300460000000  0.5067050000000  0.4971040000000 1.0
C      1  0.5507950000000  0.4888520000000  0.4539100000000 1.0
C      1  0.3829740000000  0.4973890000000  0.5201490000000 1.0
C      1  0.4162640000000  0.5006740000000  0.4531730000000 1.0
C      1  0.4736890000000  0.5102070000000  0.4623040000000 1.0
C      1  0.5975170000000  0.5025860000000  0.4806960000000 1.0
END
