TITL C-2782240-8521-1186 -8.49776950413456e-06 125000 -195.199391679659 0 0 33 (C2) n - 1
REM
REM in /home/nfs/bkarasulu/CARBON/AIRSS/Generating-Clusters/REBO/Higher-Symm/SD-CG/HFTN-CG
REM
REM
REM
REM
REM
REM ./C.cell (12c818d87b63d06a65506943cc24bca4)
REM
REM compiler GCC version 9.2.1 20190827 (Red Hat 9.2.1-1)
REM options -cpp -mtune=generic -march=x86-64 -g -O0 -fpre-include=/usr/include/finclude/math-vector-fortran.h
REM seed 770286256 920123309 1156250095 1168855849 -739131748 976660380 1550247018 1642698052 -1331234001 1157084289 -1698935315 -364546283 -1020192242 -571670126 -2011039626 433957967 -361621162 614778586 288009137 533518042 -1308202535 309379797 1869392132 640221871 -675470749 -191273104 1458373556 -1497177679 1763346466 788478243 854216572 1386412004 2063182553
REM
CELL 1.54180   50.00000   50.00000   50.00000   90.00000   90.00000   90.00000
LATT -1
SFAC C  
C      1  0.4824570000000  0.5551230000000  0.5182220000000 1.0
C      1  0.5172450000000  0.5551340000000  0.4830170000000 1.0
C      1  0.5141170000000  0.5547540000000  0.5144630000000 1.0
C      1  0.4855860000000  0.5547380000000  0.4867750000000 1.0
C      1  0.4723460000000  0.5317370000000  0.5318810000000 1.0
C      1  0.5273780000000  0.5317530000000  0.4693630000000 1.0
C      1  0.5254840000000  0.5316450000000  0.5276290000000 1.0
C      1  0.4742390000000  0.5316160000000  0.4736160000000 1.0
C      1  0.4820510000000  0.5061230000000  0.5189160000000 1.0
C      1  0.5176950000000  0.5061340000000  0.4823350000000 1.0
C      1  0.5140660000000  0.5066340000000  0.5147160000000 1.0
C      1  0.4856800000000  0.5066180000000  0.4865350000000 1.0
C      1  0.4878530000000  0.5321710000000  0.5800310000000 1.0
C      1  0.5118700000000  0.5321610000000  0.4212130000000 1.0
C      1  0.5151570000000  0.5318880000000  0.5777520000000 1.0
C      1  0.4845660000000  0.5318550000000  0.4234930000000 1.0
C      1  0.5476470000000  0.4599600000000  0.4748730000000 1.0
C      1  0.4521400000000  0.4599240000000  0.5263900000000 1.0
C      1  0.4528350000000  0.4633290000000  0.4719090000000 1.0
C      1  0.5469490000000  0.4633790000000  0.5293530000000 1.0
C      1  0.4731640000000  0.4753430000000  0.5214970000000 1.0
C      1  0.5266100000000  0.4753620000000  0.4797620000000 1.0
C      1  0.5258140000000  0.4774820000000  0.5219950000000 1.0
C      1  0.4739580000000  0.4774530000000  0.4792630000000 1.0
C      1  0.4690680000000  0.5315770000000  0.4460000000000 1.0
C      1  0.5306550000000  0.5316180000000  0.5552440000000 1.0
C      1  0.5304430000000  0.5321630000000  0.4413480000000 1.0
C      1  0.4692800000000  0.5321510000000  0.5598960000000 1.0
C      1  0.5670080000000  0.4470890000000  0.4894400000000 1.0
C      1  0.4327910000000  0.4470320000000  0.5118260000000 1.0
C      1  0.4330880000000  0.4488170000000  0.4842460000000 1.0
C      1  0.5667090000000  0.4488810000000  0.5170200000000 1.0
C      1  0.4998880000000  0.4720870000000  0.5006300000000 1.0
END
