TITL C-2782236-320-129 -0.00158885890241315 125000 -554.668733776396 0 0 95 (C1) n - 1
REM
REM in /home/nfs/bkarasulu/CARBON/AIRSS/Generating-Clusters/REBO/Higher-Symm/SD-CG/HFTN-CG
REM
REM
REM
REM
REM
REM ./C.cell (12c818d87b63d06a65506943cc24bca4)
REM
REM compiler GCC version 9.2.1 20190827 (Red Hat 9.2.1-1)
REM options -cpp -mtune=generic -march=x86-64 -g -O0 -fpre-include=/usr/include/finclude/math-vector-fortran.h
REM seed -1180988708 -280447635 -1688267129 -926170372 1374656768 162404127 -833881719 -721660912 -1816448369 -569136352 1163080100 914624024 -425433724 777571048 -720046690 -253335212 1043672828 1444343860 -1368814942 2087498539 -3831277 -885429146 627304901 396205049 1451600073 -1908704290 -781543874 1606462510 -2099280988 785598712 1418640257 -789767180 769808275
REM
CELL 1.54180   50.00000   50.00000   50.00000   90.00000   90.00000   90.00000
LATT -1
SFAC C  
C      1  0.4823090000000  0.5304230000000  0.4730190000000 1.0
C      1  0.4878800000000  0.5315900000000  0.5304620000000 1.0
C      1  0.5300360000000  0.5330540000000  0.4930140000000 1.0
C      1  0.5920380000000  0.5646710000000  0.5270850000000 1.0
C      1  0.4624260000000  0.5509710000000  0.4030810000000 1.0
C      1  0.4290560000000  0.5670300000000  0.5650400000000 1.0
C      1  0.5840250000000  0.4715800000000  0.4761520000000 1.0
C      1  0.4414320000000  0.4868700000000  0.4448420000000 1.0
C      1  0.4812680000000  0.4769920000000  0.5815250000000 1.0
C      1  0.5217660000000  0.5337140000000  0.5328830000000 1.0
C      1  0.5314350000000  0.5358040000000  0.4591350000000 1.0
C      1  0.4595170000000  0.5336830000000  0.4984530000000 1.0
C      1  0.4358510000000  0.5000180000000  0.4736700000000 1.0
C      1  0.4901540000000  0.5029470000000  0.5736470000000 1.0
C      1  0.5734660000000  0.4974310000000  0.4750480000000 1.0
C      1  0.5315790000000  0.4629500000000  0.5582210000000 1.0
C      1  0.5416650000000  0.4615340000000  0.4389480000000 1.0
C      1  0.4322620000000  0.4663500000000  0.4950850000000 1.0
C      1  0.5427190000000  0.4748620000000  0.5013180000000 1.0
C      1  0.4869010000000  0.4759030000000  0.4666170000000 1.0
C      1  0.4745090000000  0.4763710000000  0.5342170000000 1.0
C      1  0.4816720000000  0.5667180000000  0.4895430000000 1.0
C      1  0.4958290000000  0.5920840000000  0.5282710000000 1.0
C      1  0.5229720000000  0.5929130000000  0.4831110000000 1.0
C      1  0.4563460000000  0.4490480000000  0.5377510000000 1.0
C      1  0.5530460000000  0.4455730000000  0.5152480000000 1.0
C      1  0.4921640000000  0.4511620000000  0.4462690000000 1.0
C      1  0.4650790000000  0.4680060000000  0.4341720000000 1.0
C      1  0.4605160000000  0.4624730000000  0.5688550000000 1.0
C      1  0.5801860000000  0.4569230000000  0.4994700000000 1.0
C      1  0.4371340000000  0.5555610000000  0.5111120000000 1.0
C      1  0.5372330000000  0.5578260000000  0.5428910000000 1.0
C      1  0.5406610000000  0.5609060000000  0.4454580000000 1.0
C      1  0.4901400000000  0.4233930000000  0.4612280000000 1.0
C      1  0.4704990000000  0.4232650000000  0.5259240000000 1.0
C      1  0.5365750000000  0.4202260000000  0.5076320000000 1.0
C      1  0.4371320000000  0.4690860000000  0.5220700000000 1.0
C      1  0.5517540000000  0.4665530000000  0.5393840000000 1.0
C      1  0.5169290000000  0.4661240000000  0.4283180000000 1.0
C      1  0.4849820000000  0.5066690000000  0.4560820000000 1.0
C      1  0.4684400000000  0.5090420000000  0.5372910000000 1.0
C      1  0.5469320000000  0.5084960000000  0.5054890000000 1.0
C      1  0.5513140000000  0.5774120000000  0.4802940000000 1.0
C      1  0.4532530000000  0.5576150000000  0.4746300000000 1.0
C      1  0.4929550000000  0.5755900000000  0.5525940000000 1.0
C      1  0.4394920000000  0.5235770000000  0.5448740000000 1.0
C      1  0.5688350000000  0.5216530000000  0.5266380000000 1.0
C      1  0.4644950000000  0.5075650000000  0.4305580000000 1.0
C      1  0.4920260000000  0.4869260000000  0.4286250000000 1.0
C      1  0.4380840000000  0.4944510000000  0.5328380000000 1.0
C      1  0.5599240000000  0.4921240000000  0.5330040000000 1.0
C      1  0.4596010000000  0.4679360000000  0.4750130000000 1.0
C      1  0.4994140000000  0.4665260000000  0.5477150000000 1.0
C      1  0.5450910000000  0.4639410000000  0.4729470000000 1.0
C      1  0.4769990000000  0.4875680000000  0.5048910000000 1.0
C      1  0.5211890000000  0.4875560000000  0.5244580000000 1.0
C      1  0.5166640000000  0.4911640000000  0.4735200000000 1.0
C      1  0.4729640000000  0.5550150000000  0.5466370000000 1.0
C      1  0.5522300000000  0.5552320000000  0.5001110000000 1.0
C      1  0.4773600000000  0.5550170000000  0.4517320000000 1.0
C      1  0.5125610000000  0.5053760000000  0.5479530000000 1.0
C      1  0.5416770000000  0.5058850000000  0.4660840000000 1.0
C      1  0.4564350000000  0.5033270000000  0.4931410000000 1.0
C      1  0.4593330000000  0.3807620000000  0.5048760000000 1.0
C      1  0.5172090000000  0.3772430000000  0.5195020000000 1.0
C      1  0.5065780000000  0.3778790000000  0.4666820000000 1.0
C      1  0.4250550000000  0.4635050000000  0.4621480000000 1.0
C      1  0.5071250000000  0.4583540000000  0.5815030000000 1.0
C      1  0.5725170000000  0.4552060000000  0.4518840000000 1.0
C      1  0.5355350000000  0.4150440000000  0.4794070000000 1.0
C      1  0.4652010000000  0.4192460000000  0.4753740000000 1.0
C      1  0.4964360000000  0.4175780000000  0.5371350000000 1.0
C      1  0.4475970000000  0.5800770000000  0.5202440000000 1.0
C      1  0.5422690000000  0.5817230000000  0.5283520000000 1.0
C      1  0.5258050000000  0.5840810000000  0.4503260000000 1.0
C      1  0.4676100000000  0.5392730000000  0.4261490000000 1.0
C      1  0.4458960000000  0.5497310000000  0.5527860000000 1.0
C      1  0.5721750000000  0.5482220000000  0.5188210000000 1.0
C      1  0.4465110000000  0.4390630000000  0.4697940000000 1.0
C      1  0.5043590000000  0.4349690000000  0.5569870000000 1.0
C      1  0.5506870000000  0.4322200000000  0.4642050000000 1.0
C      1  0.4638500000000  0.4075840000000  0.5022830000000 1.0
C      1  0.5178180000000  0.4043410000000  0.5226900000000 1.0
C      1  0.5110730000000  0.4047600000000  0.4675430000000 1.0
C      1  0.4163380000000  0.5206840000000  0.4746780000000 1.0
C      1  0.5060800000000  0.5311680000000  0.5695490000000 1.0
C      1  0.5693380000000  0.5274620000000  0.4684500000000 1.0
C      1  0.4972240000000  0.5794810000000  0.4648220000000 1.0
C      1  0.4738920000000  0.5861030000000  0.5113740000000 1.0
C      1  0.5207650000000  0.5942410000000  0.5142980000000 1.0
C      1  0.5664220000000  0.5546010000000  0.4627320000000 1.0
C      1  0.4240720000000  0.5459750000000  0.4840630000000 1.0
C      1  0.5144580000000  0.5581100000000  0.5635440000000 1.0
C      1  0.5042480000000  0.4898880000000  0.4997310000000 1.0
C      1  0.4991000000000  0.5395820000000  0.5004670000000 1.0
END
