TITL C-2782229-3092-1490 -0.0013349199203486 125000 -182.365291503291 0 0 32 (C1) n - 1
REM
REM in /home/nfs/bkarasulu/CARBON/AIRSS/Generating-Clusters/REBO/Higher-Symm/SD-CG/HFTN-CG
REM
REM
REM
REM
REM
REM ./C.cell (12c818d87b63d06a65506943cc24bca4)
REM
REM compiler GCC version 9.2.1 20190827 (Red Hat 9.2.1-1)
REM options -cpp -mtune=generic -march=x86-64 -g -O0 -fpre-include=/usr/include/finclude/math-vector-fortran.h
REM seed 1661140186 1130735224 -978218749 -1603732806 621190038 -2132209924 663174466 -908986315 1595800321 556001775 -1573819491 753108131 -1418110165 314360015 -589559945 1093928230 -293604818 296278207 -117713782 -755766237 -624531938 -322838096 1115283408 -521891778 1535371738 9232303 528894083 179811680 -547472765 -2014495712 -1018885170 1436370963 591790035
REM
CELL 1.54180   50.00000   50.00000   50.00000   90.00000   90.00000   90.00000
LATT -1
SFAC C  
C      1  0.6214630000000  0.5399070000000  0.5154330000000 1.0
C      1  0.5711350000000  0.5285200000000  0.5286310000000 1.0
C      1  0.4395520000000  0.4548710000000  0.4781120000000 1.0
C      1  0.4742450000000  0.4798710000000  0.4477930000000 1.0
C      1  0.5235700000000  0.5237390000000  0.4699050000000 1.0
C      1  0.5264560000000  0.5106320000000  0.5173130000000 1.0
C      1  0.4336790000000  0.4599410000000  0.5064180000000 1.0
C      1  0.4456070000000  0.5220660000000  0.6088690000000 1.0
C      1  0.4418490000000  0.4877460000000  0.5114810000000 1.0
C      1  0.4483270000000  0.4993440000000  0.4854130000000 1.0
C      1  0.5305760000000  0.4778220000000  0.4803890000000 1.0
C      1  0.4827260000000  0.5052510000000  0.4389370000000 1.0
C      1  0.4817170000000  0.4106710000000  0.4244230000000 1.0
C      1  0.5338970000000  0.5280720000000  0.5610600000000 1.0
C      1  0.5006340000000  0.5059410000000  0.5275860000000 1.0
C      1  0.4932020000000  0.4577800000000  0.4483950000000 1.0
C      1  0.4836420000000  0.5178070000000  0.5707010000000 1.0
C      1  0.5163470000000  0.4617920000000  0.4639290000000 1.0
C      1  0.5103960000000  0.5262260000000  0.5745320000000 1.0
C      1  0.4742150000000  0.5543440000000  0.4117810000000 1.0
C      1  0.4872810000000  0.4334950000000  0.4360380000000 1.0
C      1  0.6462270000000  0.5455110000000  0.5089390000000 1.0
C      1  0.4243940000000  0.4421790000000  0.5245310000000 1.0
C      1  0.4840630000000  0.5354090000000  0.4273160000000 1.0
C      1  0.5047330000000  0.5261010000000  0.4500490000000 1.0
C      1  0.5448260000000  0.5225670000000  0.5355310000000 1.0
C      1  0.4537310000000  0.4982490000000  0.5345830000000 1.0
C      1  0.4640480000000  0.5200010000000  0.5903630000000 1.0
C      1  0.4517670000000  0.4782450000000  0.4652810000000 1.0
C      1  0.4783510000000  0.5070720000000  0.5448490000000 1.0
C      1  0.5310440000000  0.5046170000000  0.4893870000000 1.0
C      1  0.5962990000000  0.5342140000000  0.5220320000000 1.0
END
