TITL C-2782235-7892-1426 0.00930733564364835 125000 -1077.25947053856 0 0 186 (C1) n - 1
REM
REM in /home/nfs/bkarasulu/CARBON/AIRSS/Generating-Clusters/REBO/Higher-Symm/SD-CG/HFTN-CG
REM
REM
REM
REM
REM
REM ./C.cell (12c818d87b63d06a65506943cc24bca4)
REM
REM compiler GCC version 9.2.1 20190827 (Red Hat 9.2.1-1)
REM options -cpp -mtune=generic -march=x86-64 -g -O0 -fpre-include=/usr/include/finclude/math-vector-fortran.h
REM seed -212046930 -1015019273 -731299602 164664450 -1588336474 1205898320 -1963532390 2023953162 -683596720 1476288773 -1333451176 -688468873 478946198 9454417 -1979474801 -984330849 -575315463 -1435104135 -1629720019 174990119 -1241342713 -738097992 1909815705 1001828645 342735748 -2079130634 -621650195 -514559310 -235237852 1436459752 2080107312 1916785036 1924507005
REM
CELL 1.54180   50.00000   50.00000   50.00000   90.00000   90.00000   90.00000
LATT -1
SFAC C  
C      1  0.4279770000000  0.4386890000000  0.5107620000000 1.0
C      1  0.5822160000000  0.5615800000000  0.5005810000000 1.0
C      1  0.5382780000000  0.4450210000000  0.5464920000000 1.0
C      1  0.4535280000000  0.5495050000000  0.5610330000000 1.0
C      1  0.4333380000000  0.5389220000000  0.5018850000000 1.0
C      1  0.5677610000000  0.4584520000000  0.4917050000000 1.0
C      1  0.4736260000000  0.6116030000000  0.5255030000000 1.0
C      1  0.5264400000000  0.3892840000000  0.5216560000000 1.0
C      1  0.4893500000000  0.5089430000000  0.3789100000000 1.0
C      1  0.5131250000000  0.4909080000000  0.3733360000000 1.0
C      1  0.3887730000000  0.4934220000000  0.5380150000000 1.0
C      1  0.6142940000000  0.5016510000000  0.5409100000000 1.0
C      1  0.4911970000000  0.5653510000000  0.5893590000000 1.0
C      1  0.5030480000000  0.4362850000000  0.5784120000000 1.0
C      1  0.5159290000000  0.5017870000000  0.4710460000000 1.0
C      1  0.4823270000000  0.5062970000000  0.4746280000000 1.0
C      1  0.4945730000000  0.4449990000000  0.5216370000000 1.0
C      1  0.5233810000000  0.5602670000000  0.5273490000000 1.0
C      1  0.5790490000000  0.5332040000000  0.5399600000000 1.0
C      1  0.4242850000000  0.4628210000000  0.5424370000000 1.0
C      1  0.5034480000000  0.4608130000000  0.3835980000000 1.0
C      1  0.4998170000000  0.5380790000000  0.3881500000000 1.0
C      1  0.5752530000000  0.5181760000000  0.4632210000000 1.0
C      1  0.4272930000000  0.4855550000000  0.4692880000000 1.0
C      1  0.4529380000000  0.4456660000000  0.5704800000000 1.0
C      1  0.5357670000000  0.5731010000000  0.5774330000000 1.0
C      1  0.3580870000000  0.5155550000000  0.4838580000000 1.0
C      1  0.6408040000000  0.4783840000000  0.5071330000000 1.0
C      1  0.5009510000000  0.4411280000000  0.4489980000000 1.0
C      1  0.5024370000000  0.5650510000000  0.4481640000000 1.0
C      1  0.4178660000000  0.5391670000000  0.5462310000000 1.0
C      1  0.5872930000000  0.4586710000000  0.5490130000000 1.0
C      1  0.4492050000000  0.5011770000000  0.4189470000000 1.0
C      1  0.5445470000000  0.5016590000000  0.4170420000000 1.0
C      1  0.5083390000000  0.4100800000000  0.4424720000000 1.0
C      1  0.4887510000000  0.5845590000000  0.4353640000000 1.0
C      1  0.5073290000000  0.4487330000000  0.5489670000000 1.0
C      1  0.4812550000000  0.5447310000000  0.5674510000000 1.0
C      1  0.4238760000000  0.5015950000000  0.4328500000000 1.0
C      1  0.5706730000000  0.4967880000000  0.4298480000000 1.0
C      1  0.4311430000000  0.5318940000000  0.5767330000000 1.0
C      1  0.5644180000000  0.4511320000000  0.5650120000000 1.0
C      1  0.4756680000000  0.5898950000000  0.5478780000000 1.0
C      1  0.5256630000000  0.4012700000000  0.5461650000000 1.0
C      1  0.4694770000000  0.4872470000000  0.3960730000000 1.0
C      1  0.5386800000000  0.5104130000000  0.3849790000000 1.0
C      1  0.5129730000000  0.4404890000000  0.4085630000000 1.0
C      1  0.4829660000000  0.5562410000000  0.4077420000000 1.0
C      1  0.4852590000000  0.4219790000000  0.4723200000000 1.0
C      1  0.5177680000000  0.5768210000000  0.4742190000000 1.0
C      1  0.5723340000000  0.5579470000000  0.4623260000000 1.0
C      1  0.4260370000000  0.4458400000000  0.4685660000000 1.0
C      1  0.4286110000000  0.5647740000000  0.5321480000000 1.0
C      1  0.5785660000000  0.4288080000000  0.5352250000000 1.0
C      1  0.5326120000000  0.5808240000000  0.4272360000000 1.0
C      1  0.4682760000000  0.4150470000000  0.4368110000000 1.0
C      1  0.4459520000000  0.4642700000000  0.4859310000000 1.0
C      1  0.5562540000000  0.5362170000000  0.4839990000000 1.0
C      1  0.5526240000000  0.5182750000000  0.5802640000000 1.0
C      1  0.4434290000000  0.5011770000000  0.5790250000000 1.0
C      1  0.5471600000000  0.4489270000000  0.4694710000000 1.0
C      1  0.4545070000000  0.5554910000000  0.4807930000000 1.0
C      1  0.4403090000000  0.4330470000000  0.5413810000000 1.0
C      1  0.5689840000000  0.5548980000000  0.5265540000000 1.0
C      1  0.4483450000000  0.5102320000000  0.4743770000000 1.0
C      1  0.5497730000000  0.4982170000000  0.4716900000000 1.0
C      1  0.4466260000000  0.5806820000000  0.5545820000000 1.0
C      1  0.5539460000000  0.4142800000000  0.5539780000000 1.0
C      1  0.4828760000000  0.4267010000000  0.4166930000000 1.0
C      1  0.5156700000000  0.5660640000000  0.4105390000000 1.0
C      1  0.4103130000000  0.4633990000000  0.5905570000000 1.0
C      1  0.5733510000000  0.5537270000000  0.6077360000000 1.0
C      1  0.4283450000000  0.5501090000000  0.4250440000000 1.0
C      1  0.5681980000000  0.4407780000000  0.4220720000000 1.0
C      1  0.5496640000000  0.4148430000000  0.4665450000000 1.0
C      1  0.4476890000000  0.5821430000000  0.4601360000000 1.0
C      1  0.5974090000000  0.5133540000000  0.4972730000000 1.0
C      1  0.4040180000000  0.4874850000000  0.5015860000000 1.0
C      1  0.4934760000000  0.5713080000000  0.5249940000000 1.0
C      1  0.5158680000000  0.4331370000000  0.5021260000000 1.0
C      1  0.5602990000000  0.5802450000000  0.4817140000000 1.0
C      1  0.4487980000000  0.4253580000000  0.4940590000000 1.0
C      1  0.5097100000000  0.5319800000000  0.6197180000000 1.0
C      1  0.4817120000000  0.4670950000000  0.6076260000000 1.0
C      1  0.4831470000000  0.5580720000000  0.4947940000000 1.0
C      1  0.5180200000000  0.4493650000000  0.4770460000000 1.0
C      1  0.5873790000000  0.4824940000000  0.4893090000000 1.0
C      1  0.4125880000000  0.5184510000000  0.4976140000000 1.0
C      1  0.4698950000000  0.5339410000000  0.4298430000000 1.0
C      1  0.5238710000000  0.4685580000000  0.4243640000000 1.0
C      1  0.5182810000000  0.5178290000000  0.5602650000000 1.0
C      1  0.4899050000000  0.4824840000000  0.5659090000000 1.0
C      1  0.4342020000000  0.4691930000000  0.5805070000000 1.0
C      1  0.5515360000000  0.5469350000000  0.5916420000000 1.0
C      1  0.6004180000000  0.5410360000000  0.4561310000000 1.0
C      1  0.3987100000000  0.4645350000000  0.4694090000000 1.0
C      1  0.6073700000000  0.5282160000000  0.5368320000000 1.0
C      1  0.3964780000000  0.4662900000000  0.5394380000000 1.0
C      1  0.5060530000000  0.5942310000000  0.4948100000000 1.0
C      1  0.5027350000000  0.4044420000000  0.4936160000000 1.0
C      1  0.5437960000000  0.5244350000000  0.5094660000000 1.0
C      1  0.4580740000000  0.4768870000000  0.5109630000000 1.0
C      1  0.5049520000000  0.4825550000000  0.6059020000000 1.0
C      1  0.4881880000000  0.5172670000000  0.6134860000000 1.0
C      1  0.5285710000000  0.4415950000000  0.5939110000000 1.0
C      1  0.4609280000000  0.5556400000000  0.5998520000000 1.0
C      1  0.4206620000000  0.5733350000000  0.4692720000000 1.0
C      1  0.5802900000000  0.4270040000000  0.4697680000000 1.0
C      1  0.5195730000000  0.5544490000000  0.6008400000000 1.0
C      1  0.4777960000000  0.4465930000000  0.5899780000000 1.0
C      1  0.4718420000000  0.4186110000000  0.5609880000000 1.0
C      1  0.5213620000000  0.5941530000000  0.5660510000000 1.0
C      1  0.4663880000000  0.5066790000000  0.5446220000000 1.0
C      1  0.5439980000000  0.4850200000000  0.5443120000000 1.0
C      1  0.4115440000000  0.5527970000000  0.4519630000000 1.0
C      1  0.5841150000000  0.4472150000000  0.4492620000000 1.0
C      1  0.5339030000000  0.5479400000000  0.4656310000000 1.0
C      1  0.4669060000000  0.4504490000000  0.4672850000000 1.0
C      1  0.5358900000000  0.4083880000000  0.4398050000000 1.0
C      1  0.4606790000000  0.5844770000000  0.4351490000000 1.0
C      1  0.4350480000000  0.5660430000000  0.5833310000000 1.0
C      1  0.5513160000000  0.4300720000000  0.5828260000000 1.0
C      1  0.5967800000000  0.5402310000000  0.4885300000000 1.0
C      1  0.4101030000000  0.4586390000000  0.5026630000000 1.0
C      1  0.5249250000000  0.5984150000000  0.5157260000000 1.0
C      1  0.4798910000000  0.3952930000000  0.5172160000000 1.0
C      1  0.5273510000000  0.5001390000000  0.5871860000000 1.0
C      1  0.4747460000000  0.5004870000000  0.5868260000000 1.0
C      1  0.4775350000000  0.4584540000000  0.4053520000000 1.0
C      1  0.5296410000000  0.5370240000000  0.3994080000000 1.0
C      1  0.4575490000000  0.4036060000000  0.5392910000000 1.0
C      1  0.5254900000000  0.6085600000000  0.5419800000000 1.0
C      1  0.5656670000000  0.5071230000000  0.5541810000000 1.0
C      1  0.4356380000000  0.4919860000000  0.5477050000000 1.0
C      1  0.5706880000000  0.4779860000000  0.4552990000000 1.0
C      1  0.4245560000000  0.5224160000000  0.4542720000000 1.0
C      1  0.5038970000000  0.5396750000000  0.4782550000000 1.0
C      1  0.4929500000000  0.4695290000000  0.4752820000000 1.0
C      1  0.5074480000000  0.4942060000000  0.5030950000000 1.0
C      1  0.4865060000000  0.5181490000000  0.5069290000000 1.0
C      1  0.4938950000000  0.5903870000000  0.5722100000000 1.0
C      1  0.5024730000000  0.4105390000000  0.5594190000000 1.0
C      1  0.5182120000000  0.4784990000000  0.5548350000000 1.0
C      1  0.4905900000000  0.5212960000000  0.5566530000000 1.0
C      1  0.4731820000000  0.4251970000000  0.5101550000000 1.0
C      1  0.5474790000000  0.5769610000000  0.5121000000000 1.0
C      1  0.4519390000000  0.5811330000000  0.5113500000000 1.0
C      1  0.5599750000000  0.4095500000000  0.5138430000000 1.0
C      1  0.4223390000000  0.5702900000000  0.4991620000000 1.0
C      1  0.5823060000000  0.4313780000000  0.5015280000000 1.0
C      1  0.4319720000000  0.4518420000000  0.4289590000000 1.0
C      1  0.5662010000000  0.5450960000000  0.4350840000000 1.0
C      1  0.5145000000000  0.5003880000000  0.4329460000000 1.0
C      1  0.4811350000000  0.5018590000000  0.4313800000000 1.0
C      1  0.4116810000000  0.5111540000000  0.5393010000000 1.0
C      1  0.5918310000000  0.4860360000000  0.5487010000000 1.0
C      1  0.4511610000000  0.5288050000000  0.5269250000000 1.0
C      1  0.5510490000000  0.4694770000000  0.5175470000000 1.0
C      1  0.4879150000000  0.4718800000000  0.4415350000000 1.0
C      1  0.5048210000000  0.5309710000000  0.4451760000000 1.0
C      1  0.4610300000000  0.5275210000000  0.6036280000000 1.0
C      1  0.5315380000000  0.4687400000000  0.5999400000000 1.0
C      1  0.4598470000000  0.4540010000000  0.4342310000000 1.0
C      1  0.5354900000000  0.5393650000000  0.4324780000000 1.0
C      1  0.3825920000000  0.5095140000000  0.4916050000000 1.0
C      1  0.6170830000000  0.4879120000000  0.5004620000000 1.0
C      1  0.5418820000000  0.5848360000000  0.4531840000000 1.0
C      1  0.4534860000000  0.4132320000000  0.4648240000000 1.0
C      1  0.5424250000000  0.4367130000000  0.5162370000000 1.0
C      1  0.4660330000000  0.5539350000000  0.5234500000000 1.0
C      1  0.5422200000000  0.4258930000000  0.4179370000000 1.0
C      1  0.4511750000000  0.5657800000000  0.4146100000000 1.0
C      1  0.5358690000000  0.4778660000000  0.3944990000000 1.0
C      1  0.4654370000000  0.5215310000000  0.3984870000000 1.0
C      1  0.5366200000000  0.4007240000000  0.4914380000000 1.0
C      1  0.4785200000000  0.5990430000000  0.4998550000000 1.0
C      1  0.4699470000000  0.4732650000000  0.5426730000000 1.0
C      1  0.5352110000000  0.5317680000000  0.5416730000000 1.0
C      1  0.5391530000000  0.4941470000000  0.5025110000000 1.0
C      1  0.4564450000000  0.5064740000000  0.5047210000000 1.0
C      1  0.4137140000000  0.4733380000000  0.4408870000000 1.0
C      1  0.5885490000000  0.5215620000000  0.4313710000000 1.0
C      1  0.5476390000000  0.4597700000000  0.4399290000000 1.0
C      1  0.4503190000000  0.5431110000000  0.4518150000000 1.0
C      1  0.4884190000000  0.4704130000000  0.5075350000000 1.0
C      1  0.5127500000000  0.5355030000000  0.5092410000000 1.0
END
