TITL C-2782232-2968-96 0.000349171339551329 125000 -856.017330829573 0 0 148 (C1) n - 1
REM
REM in /home/nfs/bkarasulu/CARBON/AIRSS/Generating-Clusters/REBO/Higher-Symm/SD-CG/HFTN-CG
REM
REM
REM
REM
REM
REM ./C.cell (12c818d87b63d06a65506943cc24bca4)
REM
REM compiler GCC version 9.2.1 20190827 (Red Hat 9.2.1-1)
REM options -cpp -mtune=generic -march=x86-64 -g -O0 -fpre-include=/usr/include/finclude/math-vector-fortran.h
REM seed -73815189 -1051877714 -743068471 -86850681 -1546925857 -1480749224 1365594546 615712274 757735722 241616765 911961345 877887648 2116188721 2064267854 -923533484 -1768171833 234436146 1812872843 -934684549 -1171854811 -2075654598 1854666521 696210816 1219369996 998051919 -1612758833 -2057267734 -562528529 -1171028122 -264750839 -687029678 206461263 -375523906
REM
CELL 1.54180   50.00000   50.00000   50.00000   90.00000   90.00000   90.00000
LATT -1
SFAC C  
C      1  0.5387050000000  0.5633350000000  0.4872400000000 1.0
C      1  0.4890230000000  0.4431470000000  0.5451150000000 1.0
C      1  0.4387580000000  0.4885000000000  0.5183970000000 1.0
C      1  0.5320920000000  0.4899260000000  0.5060580000000 1.0
C      1  0.4570270000000  0.5232120000000  0.5360110000000 1.0
C      1  0.4493000000000  0.4375520000000  0.5203950000000 1.0
C      1  0.5753340000000  0.4922450000000  0.4742380000000 1.0
C      1  0.5020300000000  0.4196400000000  0.4905640000000 1.0
C      1  0.4894880000000  0.5651890000000  0.5358340000000 1.0
C      1  0.5385850000000  0.5897810000000  0.4561940000000 1.0
C      1  0.6019600000000  0.5030910000000  0.5512790000000 1.0
C      1  0.4875260000000  0.3849410000000  0.5040180000000 1.0
C      1  0.5630410000000  0.5871020000000  0.4882420000000 1.0
C      1  0.4707690000000  0.5828650000000  0.4607340000000 1.0
C      1  0.4903010000000  0.5875480000000  0.4873190000000 1.0
C      1  0.4838700000000  0.4101900000000  0.4639060000000 1.0
C      1  0.4747800000000  0.4901910000000  0.6050540000000 1.0
C      1  0.4963020000000  0.4478120000000  0.4209170000000 1.0
C      1  0.5097130000000  0.4705300000000  0.5465060000000 1.0
C      1  0.4451570000000  0.5715020000000  0.4801430000000 1.0
C      1  0.5756990000000  0.5533280000000  0.4726680000000 1.0
C      1  0.4829200000000  0.4981200000000  0.5570660000000 1.0
C      1  0.5919620000000  0.4872930000000  0.5006930000000 1.0
C      1  0.5563000000000  0.5194010000000  0.4337440000000 1.0
C      1  0.5198860000000  0.4179780000000  0.5761630000000 1.0
C      1  0.4659560000000  0.4716250000000  0.4295100000000 1.0
C      1  0.5722100000000  0.5215120000000  0.4624570000000 1.0
C      1  0.4638250000000  0.4932380000000  0.5767200000000 1.0
C      1  0.4889740000000  0.5208190000000  0.4891920000000 1.0
C      1  0.5616880000000  0.6098920000000  0.5035220000000 1.0
C      1  0.5950930000000  0.5101650000000  0.5252390000000 1.0
C      1  0.4909730000000  0.5154940000000  0.5974110000000 1.0
C      1  0.4374680000000  0.5355720000000  0.4247600000000 1.0
C      1  0.5169020000000  0.3936810000000  0.5013520000000 1.0
C      1  0.4072860000000  0.4775680000000  0.5192610000000 1.0
C      1  0.5865180000000  0.4230100000000  0.5079820000000 1.0
C      1  0.5013960000000  0.4459260000000  0.4604630000000 1.0
C      1  0.4163460000000  0.4617330000000  0.4640450000000 1.0
C      1  0.4156750000000  0.4943970000000  0.4719540000000 1.0
C      1  0.4675580000000  0.5342060000000  0.4085690000000 1.0
C      1  0.4893050000000  0.4787140000000  0.4082980000000 1.0
C      1  0.4293290000000  0.5137680000000  0.5528930000000 1.0
C      1  0.5079540000000  0.5188960000000  0.3779570000000 1.0
C      1  0.4999490000000  0.5994850000000  0.4565430000000 1.0
C      1  0.5082110000000  0.5489630000000  0.4881130000000 1.0
C      1  0.4752510000000  0.5737990000000  0.5084160000000 1.0
C      1  0.5686710000000  0.4881510000000  0.4409190000000 1.0
C      1  0.5119170000000  0.5360450000000  0.5513810000000 1.0
C      1  0.4620660000000  0.4979880000000  0.4460630000000 1.0
C      1  0.4502630000000  0.5064720000000  0.4179440000000 1.0
C      1  0.5415150000000  0.4126260000000  0.4634100000000 1.0
C      1  0.5613430000000  0.4122680000000  0.5116990000000 1.0
C      1  0.5753130000000  0.5355490000000  0.5258610000000 1.0
C      1  0.5280560000000  0.5281380000000  0.5159020000000 1.0
C      1  0.5102860000000  0.5253940000000  0.4096410000000 1.0
C      1  0.4743960000000  0.4446360000000  0.4460860000000 1.0
C      1  0.5174510000000  0.5636750000000  0.4183850000000 1.0
C      1  0.4470080000000  0.5004580000000  0.4732950000000 1.0
C      1  0.5995210000000  0.4543130000000  0.5047120000000 1.0
C      1  0.4482930000000  0.4379910000000  0.4640450000000 1.0
C      1  0.5061100000000  0.5409460000000  0.4394200000000 1.0
C      1  0.4854910000000  0.5566050000000  0.4090390000000 1.0
C      1  0.5258640000000  0.4461200000000  0.4282510000000 1.0
C      1  0.5317850000000  0.5623600000000  0.5549070000000 1.0
C      1  0.4033150000000  0.5021900000000  0.4975030000000 1.0
C      1  0.5131780000000  0.5135060000000  0.4584360000000 1.0
C      1  0.4663100000000  0.4623370000000  0.5303500000000 1.0
C      1  0.5392400000000  0.5260600000000  0.5698310000000 1.0
C      1  0.4299140000000  0.4881660000000  0.4105700000000 1.0
C      1  0.5101130000000  0.4746480000000  0.4766190000000 1.0
C      1  0.5527670000000  0.5114780000000  0.5325190000000 1.0
C      1  0.5266850000000  0.5079540000000  0.4304810000000 1.0
C      1  0.5220780000000  0.4777140000000  0.4175990000000 1.0
C      1  0.5155890000000  0.4255860000000  0.5470580000000 1.0
C      1  0.5714560000000  0.4577100000000  0.5236620000000 1.0
C      1  0.4576430000000  0.5877450000000  0.5428000000000 1.0
C      1  0.5133480000000  0.4159900000000  0.4526080000000 1.0
C      1  0.5411910000000  0.4382840000000  0.5749190000000 1.0
C      1  0.5726810000000  0.4522840000000  0.4846570000000 1.0
C      1  0.5565970000000  0.5683020000000  0.4518310000000 1.0
C      1  0.4920470000000  0.5559800000000  0.4622270000000 1.0
C      1  0.4870390000000  0.4437310000000  0.5017500000000 1.0
C      1  0.4912780000000  0.5438830000000  0.5852140000000 1.0
C      1  0.4459080000000  0.5865660000000  0.5107290000000 1.0
C      1  0.5046120000000  0.5689160000000  0.5725840000000 1.0
C      1  0.5407360000000  0.4858880000000  0.5941630000000 1.0
C      1  0.4518580000000  0.5162420000000  0.5031170000000 1.0
C      1  0.4652650000000  0.4526800000000  0.4871530000000 1.0
C      1  0.5623770000000  0.4865190000000  0.5143800000000 1.0
C      1  0.4730690000000  0.5430830000000  0.5060460000000 1.0
C      1  0.5464690000000  0.5504890000000  0.4304130000000 1.0
C      1  0.5564610000000  0.5072780000000  0.5864120000000 1.0
C      1  0.5440290000000  0.4788270000000  0.4764810000000 1.0
C      1  0.4929840000000  0.4933040000000  0.4994930000000 1.0
C      1  0.4479340000000  0.5558560000000  0.5356460000000 1.0
C      1  0.4072240000000  0.4507470000000  0.5093890000000 1.0
C      1  0.5736040000000  0.5598910000000  0.5060480000000 1.0
C      1  0.4669200000000  0.4602880000000  0.5990740000000 1.0
C      1  0.4681340000000  0.3987790000000  0.4871210000000 1.0
C      1  0.4768990000000  0.4893700000000  0.5293800000000 1.0
C      1  0.5215750000000  0.5990650000000  0.4830300000000 1.0
C      1  0.4410970000000  0.5370920000000  0.5697260000000 1.0
C      1  0.4842290000000  0.5885060000000  0.5594830000000 1.0
C      1  0.5519620000000  0.6025090000000  0.5301470000000 1.0
C      1  0.5619480000000  0.4510430000000  0.5525530000000 1.0
C      1  0.4201840000000  0.5124410000000  0.4436050000000 1.0
C      1  0.5304490000000  0.4684710000000  0.5692320000000 1.0
C      1  0.5581690000000  0.5705460000000  0.5346800000000 1.0
C      1  0.5604090000000  0.5439850000000  0.5545140000000 1.0
C      1  0.4437480000000  0.4130970000000  0.4995100000000 1.0
C      1  0.5086420000000  0.5110720000000  0.5704520000000 1.0
C      1  0.5544370000000  0.4845290000000  0.4142470000000 1.0
C      1  0.4347020000000  0.4874250000000  0.5678820000000 1.0
C      1  0.4483290000000  0.4564600000000  0.5747190000000 1.0
C      1  0.4077330000000  0.5098720000000  0.5310490000000 1.0
C      1  0.5302760000000  0.5863950000000  0.5111310000000 1.0
C      1  0.5279040000000  0.5144350000000  0.4843350000000 1.0
C      1  0.5808350000000  0.4988990000000  0.5697740000000 1.0
C      1  0.5437550000000  0.4014860000000  0.4909610000000 1.0
C      1  0.5005280000000  0.4199300000000  0.5964990000000 1.0
C      1  0.4436240000000  0.4078140000000  0.5336070000000 1.0
C      1  0.4554930000000  0.4779320000000  0.4938240000000 1.0
C      1  0.4254350000000  0.5601180000000  0.5129760000000 1.0
C      1  0.4131120000000  0.4800380000000  0.4351090000000 1.0
C      1  0.5463120000000  0.4370120000000  0.4446790000000 1.0
C      1  0.4580220000000  0.4314870000000  0.5537340000000 1.0
C      1  0.4617500000000  0.5447630000000  0.4665660000000 1.0
C      1  0.5462880000000  0.4479200000000  0.5027470000000 1.0
C      1  0.4847600000000  0.5068950000000  0.3977730000000 1.0
C      1  0.4318410000000  0.5416250000000  0.4566390000000 1.0
C      1  0.4068410000000  0.5335790000000  0.5067470000000 1.0
C      1  0.5560280000000  0.4846960000000  0.5536120000000 1.0
C      1  0.5148530000000  0.5588640000000  0.5188580000000 1.0
C      1  0.4363930000000  0.4663310000000  0.5441460000000 1.0
C      1  0.5028880000000  0.4642950000000  0.5143130000000 1.0
C      1  0.4164390000000  0.5530940000000  0.4811720000000 1.0
C      1  0.5628950000000  0.4589950000000  0.4562220000000 1.0
C      1  0.5143110000000  0.5011020000000  0.5321000000000 1.0
C      1  0.5187960000000  0.5914800000000  0.4322870000000 1.0
C      1  0.4237980000000  0.4384090000000  0.4877760000000 1.0
C      1  0.4376680000000  0.4571670000000  0.4379240000000 1.0
C      1  0.4709250000000  0.5509400000000  0.5608900000000 1.0
C      1  0.5428240000000  0.4313650000000  0.5324280000000 1.0
C      1  0.4798000000000  0.5182090000000  0.4589810000000 1.0
C      1  0.4906980000000  0.5260120000000  0.5297660000000 1.0
C      1  0.5235780000000  0.4453240000000  0.4859630000000 1.0
C      1  0.5504080000000  0.5343260000000  0.4833810000000 1.0
C      1  0.4826120000000  0.4380600000000  0.6058670000000 1.0
END
