TITL C-2782237-5345-1310 -9.43296326667009e-07 125000 -90.6126491476126 0 0 17 (C2) n - 1
REM
REM in /home/nfs/bkarasulu/CARBON/AIRSS/Generating-Clusters/REBO/Higher-Symm/SD-CG/HFTN-CG
REM
REM
REM
REM
REM
REM ./C.cell (12c818d87b63d06a65506943cc24bca4)
REM
REM compiler GCC version 9.2.1 20190827 (Red Hat 9.2.1-1)
REM options -cpp -mtune=generic -march=x86-64 -g -O0 -fpre-include=/usr/include/finclude/math-vector-fortran.h
REM seed -1101555662 580654300 -1093718373 905277727 356147471 1145444392 1223830043 -1946129209 689626883 -370304403 1146105462 970058508 -449724640 320937677 -1872318278 -153791114 1658274607 526404591 730418018 -1224549491 -250662106 1616189866 315692773 -1839520424 -1994147331 700038034 2026518933 1477308254 341196982 160738547 976138730 -1461843391 1240936787
REM
CELL 1.54180   50.00000   50.00000   50.00000   90.00000   90.00000   90.00000
LATT -1
SFAC C  
C      1  0.4446900000000  0.5288110000000  0.4342860000000 1.0
C      1  0.5525220000000  0.5286070000000  0.5626720000000 1.0
C      1  0.5469730000000  0.5083740000000  0.5811590000000 1.0
C      1  0.4502260000000  0.5086240000000  0.4157460000000 1.0
C      1  0.5088190000000  0.4871330000000  0.5230130000000 1.0
C      1  0.4883660000000  0.4872050000000  0.4738360000000 1.0
C      1  0.4395010000000  0.5477310000000  0.4516630000000 1.0
C      1  0.5577230000000  0.5475690000000  0.5453460000000 1.0
C      1  0.5577240000000  0.5088470000000  0.6062060000000 1.0
C      1  0.4394760000000  0.5091690000000  0.3907010000000 1.0
C      1  0.5240300000000  0.4670680000000  0.5910380000000 1.0
C      1  0.4731430000000  0.4673300000000  0.4057580000000 1.0
C      1  0.4674020000000  0.4872780000000  0.4234280000000 1.0
C      1  0.5297840000000  0.4870600000000  0.5734210000000 1.0
C      1  0.4781400000000  0.4872400000000  0.4492470000000 1.0
C      1  0.5190460000000  0.4870970000000  0.5476020000000 1.0
C      1  0.4985930000000  0.4871690000000  0.4984240000000 1.0
END
