TITL C-2782235-7892-434 -0.00289925409420955 125000 -595.065220043163 0 0 102 (C2) n - 1
REM
REM in /home/nfs/bkarasulu/CARBON/AIRSS/Generating-Clusters/REBO/Higher-Symm/SD-CG/HFTN-CG
REM
REM
REM
REM
REM
REM ./C.cell (12c818d87b63d06a65506943cc24bca4)
REM
REM compiler GCC version 9.2.1 20190827 (Red Hat 9.2.1-1)
REM options -cpp -mtune=generic -march=x86-64 -g -O0 -fpre-include=/usr/include/finclude/math-vector-fortran.h
REM seed -956991967 -1957095311 1407141685 1412641556 185833536 -1936136001 1034630680 1557103773 -545402493 -63516511 -1793668997 -386612884 918536784 234242591 1584610870 1757213101 -1960589336 -370543921 -1188082310 791875385 -942800162 803600066 1731061205 -465977734 -1554179162 -857925149 1192684844 -517034879 1086670110 1654220594 -934712024 1779608681 -565954946
REM
CELL 1.54180   50.00000   50.00000   50.00000   90.00000   90.00000   90.00000
LATT -1
SFAC C  
C      1  0.4762240000000  0.5664150000000  0.5532390000000 1.0
C      1  0.4772060000000  0.5121810000000  0.4146740000000 1.0
C      1  0.4769060000000  0.4196650000000  0.5309510000000 1.0
C      1  0.5237760000000  0.5664170000000  0.4467630000000 1.0
C      1  0.5227940000000  0.5121780000000  0.5853270000000 1.0
C      1  0.5230950000000  0.4196670000000  0.4690460000000 1.0
C      1  0.5226260000000  0.4307440000000  0.4472940000000 1.0
C      1  0.5210790000000  0.4879300000000  0.5866470000000 1.0
C      1  0.5228420000000  0.5797400000000  0.4672050000000 1.0
C      1  0.4773750000000  0.4307420000000  0.5527040000000 1.0
C      1  0.4789210000000  0.4879330000000  0.4133530000000 1.0
C      1  0.4771570000000  0.5797390000000  0.5327980000000 1.0
C      1  0.5490910000000  0.5386240000000  0.5709660000000 1.0
C      1  0.5485530000000  0.5401410000000  0.4289690000000 1.0
C      1  0.5489470000000  0.4212200000000  0.5022960000000 1.0
C      1  0.4509080000000  0.5386260000000  0.4290360000000 1.0
C      1  0.4514470000000  0.5401380000000  0.5710330000000 1.0
C      1  0.4510540000000  0.4212200000000  0.4977010000000 1.0
C      1  0.4497610000000  0.4647390000000  0.4279650000000 1.0
C      1  0.4500520000000  0.4579480000000  0.5708330000000 1.0
C      1  0.4500230000000  0.5813140000000  0.5016540000000 1.0
C      1  0.5502390000000  0.4647370000000  0.5720330000000 1.0
C      1  0.5499480000000  0.4579510000000  0.4291650000000 1.0
C      1  0.5499770000000  0.5813150000000  0.4983480000000 1.0
C      1  0.5625100000000  0.5573660000000  0.5180780000000 1.0
C      1  0.5613460000000  0.4860250000000  0.4415640000000 1.0
C      1  0.5618100000000  0.4641030000000  0.5444770000000 1.0
C      1  0.4374890000000  0.5573660000000  0.4819240000000 1.0
C      1  0.4386550000000  0.4860230000000  0.5584350000000 1.0
C      1  0.4381900000000  0.4641040000000  0.4555220000000 1.0
C      1  0.4414350000000  0.4467070000000  0.4780470000000 1.0
C      1  0.4387570000000  0.5136340000000  0.5584190000000 1.0
C      1  0.4370420000000  0.5431950000000  0.4581320000000 1.0
C      1  0.5585660000000  0.4467070000000  0.5219510000000 1.0
C      1  0.5612420000000  0.5136360000000  0.4415810000000 1.0
C      1  0.5629570000000  0.5431940000000  0.5418700000000 1.0
C      1  0.4377040000000  0.5741570000000  0.5296140000000 1.0
C      1  0.4391330000000  0.4853220000000  0.4109460000000 1.0
C      1  0.4355960000000  0.4354090000000  0.5548630000000 1.0
C      1  0.5622950000000  0.5741590000000  0.4703890000000 1.0
C      1  0.5608670000000  0.4853190000000  0.5890530000000 1.0
C      1  0.5644050000000  0.4354120000000  0.4451350000000 1.0
C      1  0.5619370000000  0.4272900000000  0.4746960000000 1.0
C      1  0.5630730000000  0.5119960000000  0.5799120000000 1.0
C      1  0.5636890000000  0.5642060000000  0.4413350000000 1.0
C      1  0.4380640000000  0.4272880000000  0.5253020000000 1.0
C      1  0.4369270000000  0.5119980000000  0.4200890000000 1.0
C      1  0.4363100000000  0.5642040000000  0.5586670000000 1.0
C      1  0.5242460000000  0.5528500000000  0.5436780000000 1.0
C      1  0.5227760000000  0.5102230000000  0.4313190000000 1.0
C      1  0.5203780000000  0.4354190000000  0.5255680000000 1.0
C      1  0.4757540000000  0.5528510000000  0.4563240000000 1.0
C      1  0.4772240000000  0.5102200000000  0.5686820000000 1.0
C      1  0.4796220000000  0.4354200000000  0.4744300000000 1.0
C      1  0.4769890000000  0.4546350000000  0.4548310000000 1.0
C      1  0.4784320000000  0.4830650000000  0.5600930000000 1.0
C      1  0.4773250000000  0.5590300000000  0.4841580000000 1.0
C      1  0.5230110000000  0.4546340000000  0.5451680000000 1.0
C      1  0.5215680000000  0.4830680000000  0.4399070000000 1.0
C      1  0.5226750000000  0.5590290000000  0.5158440000000 1.0
C      1  0.4829500000000  0.4574440000000  0.4236530000000 1.0
C      1  0.4838030000000  0.4545220000000  0.5741090000000 1.0
C      1  0.4838440000000  0.5854900000000  0.5014580000000 1.0
C      1  0.5170500000000  0.4574420000000  0.5763460000000 1.0
C      1  0.5161970000000  0.4545250000000  0.4258890000000 1.0
C      1  0.5161550000000  0.5854910000000  0.4985450000000 1.0
C      1  0.5156960000000  0.5417830000000  0.5745150000000 1.0
C      1  0.5153290000000  0.5429610000000  0.4260570000000 1.0
C      1  0.5162690000000  0.4133120000000  0.5003740000000 1.0
C      1  0.4843030000000  0.5417860000000  0.4254860000000 1.0
C      1  0.4846710000000  0.5429590000000  0.5739450000000 1.0
C      1  0.4837320000000  0.4133120000000  0.4996230000000 1.0
C      1  0.4293760000000  0.4640590000000  0.5375400000000 1.0
C      1  0.4318150000000  0.5473370000000  0.5106650000000 1.0
C      1  0.4245340000000  0.4888900000000  0.4617980000000 1.0
C      1  0.5706240000000  0.4640610000000  0.4624590000000 1.0
C      1  0.5681840000000  0.5473380000000  0.4893370000000 1.0
C      1  0.5754660000000  0.4888900000000  0.5382010000000 1.0
C      1  0.5727150000000  0.5371620000000  0.4602150000000 1.0
C      1  0.5652150000000  0.4557260000000  0.4922510000000 1.0
C      1  0.5727170000000  0.5143600000000  0.5502670000000 1.0
C      1  0.4272840000000  0.5371600000000  0.5397870000000 1.0
C      1  0.4347850000000  0.4557250000000  0.5077470000000 1.0
C      1  0.4272830000000  0.5143610000000  0.4497340000000 1.0
C      1  0.4859960000000  0.5366160000000  0.4989820000000 1.0
C      1  0.4845860000000  0.4793020000000  0.4672390000000 1.0
C      1  0.4872460000000  0.4812870000000  0.5333390000000 1.0
C      1  0.5140040000000  0.5366160000000  0.5010190000000 1.0
C      1  0.5154150000000  0.4793010000000  0.5327600000000 1.0
C      1  0.5127540000000  0.4812880000000  0.4666610000000 1.0
C      1  0.5138940000000  0.4531730000000  0.5025450000000 1.0
C      1  0.5148600000000  0.5238650000000  0.5388280000000 1.0
C      1  0.5134700000000  0.5204220000000  0.4589490000000 1.0
C      1  0.4861070000000  0.4531730000000  0.4974530000000 1.0
C      1  0.4851400000000  0.5238670000000  0.4611730000000 1.0
C      1  0.4865300000000  0.5204200000000  0.5410520000000 1.0
C      1  0.4710190000000  0.5041090000000  0.4812580000000 1.0
C      1  0.4721020000000  0.5129140000000  0.5142370000000 1.0
C      1  0.5289810000000  0.5041080000000  0.5187420000000 1.0
C      1  0.5273130000000  0.4799710000000  0.4946360000000 1.0
C      1  0.5278980000000  0.5129150000000  0.4857640000000 1.0
C      1  0.4726870000000  0.4799710000000  0.5053630000000 1.0
END
