TITL C-2782239-8622-1164 0.000261468406413654 125000 -325.585816442772 0 0 57 (C1) n - 1
REM
REM in /home/nfs/bkarasulu/CARBON/AIRSS/Generating-Clusters/REBO/Higher-Symm/SD-CG/HFTN-CG
REM
REM
REM
REM
REM
REM ./C.cell (12c818d87b63d06a65506943cc24bca4)
REM
REM compiler GCC version 9.2.1 20190827 (Red Hat 9.2.1-1)
REM options -cpp -mtune=generic -march=x86-64 -g -O0 -fpre-include=/usr/include/finclude/math-vector-fortran.h
REM seed -201799105 -274509448 1699406340 342781546 -877420106 -950107706 980122477 310729293 467640556 -2048335448 1027076198 1931453042 2131070511 -1545603532 1116474834 -1888166528 -447745254 1487789088 345462042 -1597411183 1116167875 1682707465 -894686376 -673204357 1447984589 1064004026 1850281198 -1372953230 -1892495337 -474219192 470305298 -1701666886 -973623868
REM
CELL 1.54180   50.00000   50.00000   50.00000   90.00000   90.00000   90.00000
LATT -1
SFAC C  
C      1  0.5171230000000  0.5246530000000  0.4614480000000 1.0
C      1  0.5139230000000  0.4702210000000  0.4621610000000 1.0
C      1  0.4691580000000  0.5008550000000  0.4625550000000 1.0
C      1  0.5185100000000  0.5254410000000  0.5182840000000 1.0
C      1  0.5156130000000  0.4715560000000  0.5190350000000 1.0
C      1  0.4714900000000  0.4992790000000  0.5194060000000 1.0
C      1  0.4840690000000  0.5255330000000  0.4622140000000 1.0
C      1  0.4848640000000  0.4715470000000  0.4616920000000 1.0
C      1  0.5309340000000  0.4990910000000  0.4612960000000 1.0
C      1  0.4859180000000  0.5238470000000  0.5191550000000 1.0
C      1  0.4869300000000  0.4707310000000  0.5187510000000 1.0
C      1  0.5326070000000  0.5003730000000  0.5180450000000 1.0
C      1  0.4303540000000  0.5732880000000  0.5151070000000 1.0
C      1  0.5966100000000  0.5239640000000  0.5158340000000 1.0
C      1  0.4721250000000  0.4036140000000  0.5161840000000 1.0
C      1  0.4293640000000  0.5776190000000  0.4879870000000 1.0
C      1  0.6021960000000  0.5225490000000  0.4890030000000 1.0
C      1  0.4667610000000  0.3999990000000  0.4894890000000 1.0
C      1  0.5667570000000  0.5735430000000  0.5158820000000 1.0
C      1  0.4006940000000  0.5218980000000  0.5160430000000 1.0
C      1  0.5332580000000  0.4095790000000  0.5115950000000 1.0
C      1  0.5725020000000  0.5748060000000  0.4890980000000 1.0
C      1  0.3980990000000  0.5253640000000  0.4889890000000 1.0
C      1  0.5348880000000  0.4111550000000  0.4840800000000 1.0
C      1  0.4849800000000  0.4310690000000  0.5229420000000 1.0
C      1  0.4459510000000  0.5480410000000  0.5234330000000 1.0
C      1  0.5664110000000  0.5216450000000  0.5228200000000 1.0
C      1  0.4789330000000  0.4299250000000  0.4868800000000 1.0
C      1  0.4475480000000  0.5507040000000  0.4869410000000 1.0
C      1  0.5698750000000  0.5192840000000  0.4864910000000 1.0
C      1  0.5165000000000  0.4320890000000  0.5253880000000 1.0
C      1  0.5505000000000  0.5486240000000  0.5242530000000 1.0
C      1  0.4300030000000  0.5205310000000  0.5251240000000 1.0
C      1  0.5104240000000  0.4337740000000  0.4894770000000 1.0
C      1  0.5534730000000  0.5483640000000  0.4877860000000 1.0
C      1  0.4305560000000  0.5222390000000  0.4885370000000 1.0
C      1  0.4751330000000  0.5535830000000  0.4748520000000 1.0
C      1  0.5601750000000  0.4939590000000  0.4733510000000 1.0
C      1  0.4626860000000  0.4510650000000  0.4731070000000 1.0
C      1  0.4743900000000  0.5479990000000  0.5324440000000 1.0
C      1  0.5573390000000  0.4949720000000  0.5362470000000 1.0
C      1  0.4661050000000  0.4535320000000  0.5353160000000 1.0
C      1  0.5269720000000  0.5527270000000  0.4737450000000 1.0
C      1  0.4404720000000  0.4964520000000  0.4758050000000 1.0
C      1  0.5366700000000  0.4490680000000  0.4740940000000 1.0
C      1  0.5214770000000  0.5524840000000  0.5349860000000 1.0
C      1  0.4451090000000  0.4962740000000  0.5333070000000 1.0
C      1  0.5338070000000  0.4545220000000  0.5383100000000 1.0
C      1  0.5013610000000  0.5661150000000  0.4779770000000 1.0
C      1  0.4445560000000  0.4696880000000  0.5425340000000 1.0
C      1  0.4964920000000  0.5624630000000  0.5417910000000 1.0
C      1  0.5552550000000  0.4695910000000  0.5468160000000 1.0
C      1  0.5601840000000  0.4653090000000  0.4772640000000 1.0
C      1  0.4397100000000  0.4676270000000  0.4782080000000 1.0
C      1  0.5010730000000  0.5283710000000  0.4911910000000 1.0
C      1  0.4748330000000  0.4840040000000  0.4914920000000 1.0
C      1  0.5262990000000  0.4834010000000  0.4910820000000 1.0
END
