TITL C-2782238-9940-494 -0.0031448202510236 125000 -332.252001760362 0 0 60 (C1) n - 1
REM
REM in /home/nfs/bkarasulu/CARBON/AIRSS/Generating-Clusters/REBO/Higher-Symm/SD-CG/HFTN-CG
REM
REM
REM
REM
REM
REM ./C.cell (12c818d87b63d06a65506943cc24bca4)
REM
REM compiler GCC version 9.2.1 20190827 (Red Hat 9.2.1-1)
REM options -cpp -mtune=generic -march=x86-64 -g -O0 -fpre-include=/usr/include/finclude/math-vector-fortran.h
REM seed -110558533 860356584 1240085461 -1944220541 1684653681 -227915329 1088351730 610331490 161486541 1177176688 -1090479616 1892463921 2109567545 281902227 1347699258 871898669 -232501889 152055837 -211487043 805206732 -396433803 -1364851179 604482893 515604190 -1154638821 -48415236 1092947514 -1584218097 580672504 -1628573725 -260078351 -559074591 -87503749
REM
CELL 1.54180   50.00000   50.00000   50.00000   90.00000   90.00000   90.00000
LATT -1
SFAC C  
C      1  0.4794060000000  0.4591350000000  0.4587430000000 1.0
C      1  0.4730200000000  0.4492260000000  0.4898950000000 1.0
C      1  0.4390740000000  0.4920210000000  0.4588290000000 1.0
C      1  0.5072510000000  0.4586710000000  0.5527980000000 1.0
C      1  0.5193630000000  0.5377010000000  0.4526410000000 1.0
C      1  0.4874540000000  0.5335730000000  0.5395160000000 1.0
C      1  0.5295460000000  0.4658960000000  0.5094240000000 1.0
C      1  0.5384650000000  0.5398940000000  0.4808500000000 1.0
C      1  0.4658980000000  0.5292210000000  0.5134910000000 1.0
C      1  0.5556270000000  0.4823680000000  0.5238420000000 1.0
C      1  0.5592310000000  0.5165930000000  0.4734410000000 1.0
C      1  0.4432490000000  0.5092850000000  0.5203290000000 1.0
C      1  0.4885150000000  0.5391920000000  0.4581720000000 1.0
C      1  0.4649170000000  0.5368910000000  0.4826730000000 1.0
C      1  0.4401160000000  0.5234460000000  0.4663630000000 1.0
C      1  0.5199600000000  0.5341160000000  0.5429470000000 1.0
C      1  0.5115410000000  0.4602480000000  0.4538520000000 1.0
C      1  0.4787920000000  0.4628750000000  0.5551820000000 1.0
C      1  0.5377960000000  0.5405100000000  0.5142300000000 1.0
C      1  0.5333840000000  0.4682400000000  0.4781420000000 1.0
C      1  0.4621830000000  0.4584890000000  0.5211290000000 1.0
C      1  0.5590850000000  0.5166100000000  0.5259410000000 1.0
C      1  0.5562700000000  0.4877110000000  0.4718420000000 1.0
C      1  0.4413790000000  0.4803830000000  0.5196440000000 1.0
C      1  0.4666340000000  0.4825550000000  0.4469710000000 1.0
C      1  0.4918190000000  0.4296820000000  0.4704120000000 1.0
C      1  0.4182570000000  0.4788270000000  0.4729340000000 1.0
C      1  0.5213110000000  0.4802020000000  0.5644690000000 1.0
C      1  0.5195850000000  0.5122480000000  0.4341690000000 1.0
C      1  0.4770470000000  0.5184730000000  0.5634240000000 1.0
C      1  0.5164330000000  0.4439150000000  0.5271340000000 1.0
C      1  0.5155170000000  0.5640800000000  0.4736510000000 1.0
C      1  0.4796190000000  0.5596520000000  0.5202770000000 1.0
C      1  0.5820840000000  0.4725120000000  0.5124300000000 1.0
C      1  0.5856470000000  0.5226050000000  0.4834410000000 1.0
C      1  0.4175820000000  0.5199840000000  0.5125740000000 1.0
C      1  0.4681430000000  0.5169380000000  0.4482430000000 1.0
C      1  0.4812510000000  0.5657620000000  0.4761450000000 1.0
C      1  0.4142840000000  0.5276610000000  0.4816480000000 1.0
C      1  0.5271590000000  0.5124380000000  0.5619920000000 1.0
C      1  0.5148740000000  0.4788230000000  0.4303350000000 1.0
C      1  0.4727210000000  0.4869920000000  0.5690590000000 1.0
C      1  0.5133200000000  0.5608180000000  0.5250460000000 1.0
C      1  0.5247280000000  0.4358200000000  0.4735770000000 1.0
C      1  0.4843030000000  0.4330550000000  0.5244970000000 1.0
C      1  0.5870680000000  0.5222760000000  0.5154380000000 1.0
C      1  0.5813790000000  0.4760570000000  0.4805710000000 1.0
C      1  0.4183000000000  0.4732390000000  0.5044250000000 1.0
C      1  0.3993530000000  0.4990920000000  0.4927290000000 1.0
C      1  0.4883940000000  0.4996040000000  0.4281440000000 1.0
C      1  0.5068370000000  0.4253530000000  0.5005360000000 1.0
C      1  0.6017590000000  0.4966140000000  0.4985990000000 1.0
C      1  0.5009630000000  0.5022350000000  0.5806450000000 1.0
C      1  0.5003770000000  0.5773800000000  0.5002460000000 1.0
C      1  0.4870170000000  0.4940380000000  0.4872560000000 1.0
C      1  0.5080880000000  0.5008960000000  0.4629210000000 1.0
C      1  0.4914320000000  0.4690580000000  0.5091020000000 1.0
C      1  0.5297360000000  0.5022730000000  0.5213150000000 1.0
C      1  0.4978900000000  0.4987940000000  0.5196790000000 1.0
C      1  0.5146530000000  0.5128500000000  0.4935990000000 1.0
END
