TITL C-2782238-9940-1037 -0.00439564414261567 125000 -653.324709424327 0 0 114 (C1) n - 1
REM
REM in /home/nfs/bkarasulu/CARBON/AIRSS/Generating-Clusters/REBO/Higher-Symm/SD-CG/HFTN-CG
REM
REM
REM
REM
REM
REM ./C.cell (12c818d87b63d06a65506943cc24bca4)
REM
REM compiler GCC version 9.2.1 20190827 (Red Hat 9.2.1-1)
REM options -cpp -mtune=generic -march=x86-64 -g -O0 -fpre-include=/usr/include/finclude/math-vector-fortran.h
REM seed 1745622158 622896253 44456492 -1274085441 -687078007 409059298 -362235580 -855428714 -133854019 -1321650822 -751937349 -825636349 881675501 -1529597386 -1752070258 1393820332 -185711682 585660130 -1549263325 1446522548 -1441392830 -891218701 -404103716 -1222921492 1538869272 1186950061 -85545372 1450563177 -1667545501 -1998039846 1630079217 783302781 -2083923232
REM
CELL 1.54180   50.00000   50.00000   50.00000   90.00000   90.00000   90.00000
LATT -1
SFAC C  
C      1  0.4590200000000  0.5755660000000  0.5235210000000 1.0
C      1  0.5898710000000  0.4958460000000  0.5262570000000 1.0
C      1  0.4528190000000  0.4271710000000  0.5171060000000 1.0
C      1  0.4754410000000  0.5850220000000  0.4990590000000 1.0
C      1  0.5891940000000  0.4780410000000  0.4995560000000 1.0
C      1  0.4310060000000  0.4353910000000  0.4946990000000 1.0
C      1  0.4562310000000  0.4427880000000  0.4416880000000 1.0
C      1  0.4811820000000  0.5671370000000  0.4420060000000 1.0
C      1  0.5700430000000  0.4926290000000  0.4453160000000 1.0
C      1  0.4624120000000  0.4975100000000  0.5287610000000 1.0
C      1  0.5154070000000  0.5322050000000  0.5336260000000 1.0
C      1  0.5306970000000  0.4832940000000  0.5335870000000 1.0
C      1  0.5271380000000  0.4245750000000  0.5066180000000 1.0
C      1  0.4207960000000  0.5083580000000  0.5033530000000 1.0
C      1  0.5471780000000  0.5608640000000  0.5037610000000 1.0
C      1  0.3859800000000  0.4949790000000  0.4434720000000 1.0
C      1  0.5559440000000  0.5518760000000  0.4548190000000 1.0
C      1  0.5200790000000  0.4328900000000  0.4513650000000 1.0
C      1  0.5392310000000  0.5288460000000  0.5093960000000 1.0
C      1  0.5019330000000  0.4474070000000  0.5079550000000 1.0
C      1  0.4540710000000  0.5157710000000  0.5022770000000 1.0
C      1  0.5559140000000  0.4652100000000  0.4597120000000 1.0
C      1  0.4309970000000  0.4761220000000  0.4629080000000 1.0
C      1  0.5068940000000  0.5698950000000  0.4642340000000 1.0
C      1  0.4220750000000  0.5397390000000  0.5030250000000 1.0
C      1  0.5750680000000  0.5449960000000  0.5023790000000 1.0
C      1  0.5026050000000  0.4075500000000  0.5052990000000 1.0
C      1  0.5397170000000  0.5699960000000  0.4656140000000 1.0
C      1  0.5425420000000  0.4392620000000  0.4651150000000 1.0
C      1  0.4033390000000  0.4865210000000  0.4618810000000 1.0
C      1  0.4547420000000  0.4909220000000  0.4174390000000 1.0
C      1  0.5167040000000  0.5414260000000  0.4142140000000 1.0
C      1  0.5289750000000  0.4633010000000  0.4131310000000 1.0
C      1  0.5844160000000  0.5223110000000  0.5471040000000 1.0
C      1  0.4775910000000  0.4139850000000  0.5363200000000 1.0
C      1  0.4391910000000  0.5607240000000  0.5470870000000 1.0
C      1  0.4688940000000  0.4865760000000  0.4693550000000 1.0
C      1  0.5034380000000  0.5304150000000  0.4658100000000 1.0
C      1  0.5229060000000  0.4841340000000  0.4717220000000 1.0
C      1  0.5028420000000  0.4660210000000  0.4716910000000 1.0
C      1  0.4674910000000  0.5134750000000  0.4649120000000 1.0
C      1  0.5293920000000  0.5219740000000  0.4616720000000 1.0
C      1  0.5125840000000  0.5639190000000  0.4311190000000 1.0
C      1  0.5560090000000  0.4676090000000  0.4270380000000 1.0
C      1  0.4452290000000  0.4693500000000  0.4388920000000 1.0
C      1  0.5160070000000  0.4646680000000  0.5540180000000 1.0
C      1  0.4693640000000  0.5103300000000  0.5527610000000 1.0
C      1  0.5229530000000  0.5231140000000  0.5601510000000 1.0
C      1  0.5588940000000  0.4817360000000  0.4873150000000 1.0
C      1  0.4439010000000  0.4651020000000  0.4913840000000 1.0
C      1  0.4954830000000  0.5606960000000  0.4918800000000 1.0
C      1  0.5125720000000  0.5695790000000  0.5470880000000 1.0
C      1  0.5545820000000  0.4554330000000  0.5491640000000 1.0
C      1  0.4340030000000  0.4771870000000  0.5479960000000 1.0
C      1  0.5303300000000  0.4970230000000  0.4439140000000 1.0
C      1  0.4841450000000  0.4706270000000  0.4479250000000 1.0
C      1  0.4854970000000  0.5230310000000  0.4427390000000 1.0
C      1  0.5011590000000  0.4318820000000  0.5369720000000 1.0
C      1  0.4377160000000  0.5340070000000  0.5587660000000 1.0
C      1  0.5599540000000  0.5369430000000  0.5538030000000 1.0
C      1  0.5124330000000  0.5090780000000  0.5120800000000 1.0
C      1  0.5079330000000  0.4768900000000  0.5098760000000 1.0
C      1  0.4833880000000  0.4981950000000  0.5047370000000 1.0
C      1  0.4543180000000  0.4509840000000  0.5393340000000 1.0
C      1  0.4785340000000  0.5673100000000  0.5474290000000 1.0
C      1  0.5725190000000  0.4844260000000  0.5513500000000 1.0
C      1  0.4695880000000  0.5411660000000  0.5640890000000 1.0
C      1  0.5498710000000  0.5055030000000  0.5580300000000 1.0
C      1  0.4847240000000  0.4592970000000  0.5466660000000 1.0
C      1  0.5036500000000  0.4514030000000  0.4190220000000 1.0
C      1  0.4589100000000  0.5196920000000  0.4134150000000 1.0
C      1  0.5391950000000  0.5235460000000  0.4155210000000 1.0
C      1  0.4567410000000  0.5469650000000  0.4290750000000 1.0
C      1  0.5612340000000  0.5246520000000  0.4376340000000 1.0
C      1  0.4885160000000  0.4314540000000  0.4422310000000 1.0
C      1  0.5198170000000  0.5253320000000  0.5939180000000 1.0
C      1  0.5166560000000  0.4732720000000  0.5855090000000 1.0
C      1  0.4775590000000  0.5082090000000  0.5852250000000 1.0
C      1  0.4761070000000  0.4613080000000  0.4913410000000 1.0
C      1  0.4785010000000  0.5343900000000  0.4887800000000 1.0
C      1  0.5430310000000  0.5084970000000  0.4865020000000 1.0
C      1  0.5154770000000  0.5601620000000  0.5155200000000 1.0
C      1  0.5554550000000  0.4692960000000  0.5188140000000 1.0
C      1  0.4364220000000  0.4824570000000  0.5153830000000 1.0
C      1  0.5356370000000  0.4452670000000  0.5826590000000 1.0
C      1  0.4489950000000  0.4924040000000  0.5817000000000 1.0
C      1  0.5241190000000  0.5557460000000  0.5826490000000 1.0
C      1  0.4430590000000  0.4278340000000  0.4658320000000 1.0
C      1  0.4639220000000  0.5763720000000  0.4700780000000 1.0
C      1  0.5920350000000  0.4965850000000  0.4711760000000 1.0
C      1  0.4343720000000  0.5602850000000  0.5077400000000 1.0
C      1  0.5868730000000  0.5240520000000  0.5074940000000 1.0
C      1  0.4769710000000  0.4147930000000  0.4964790000000 1.0
C      1  0.4442000000000  0.5599390000000  0.4544520000000 1.0
C      1  0.5860240000000  0.5250910000000  0.4611950000000 1.0
C      1  0.4718190000000  0.4191500000000  0.4692610000000 1.0
C      1  0.4541170000000  0.4622800000000  0.5715720000000 1.0
C      1  0.4952170000000  0.5687070000000  0.5768740000000 1.0
C      1  0.5559880000000  0.4722820000000  0.5789470000000 1.0
C      1  0.5358050000000  0.4982380000000  0.5882680000000 1.0
C      1  0.4850620000000  0.4761570000000  0.5764730000000 1.0
C      1  0.4893360000000  0.5382240000000  0.5911920000000 1.0
C      1  0.4042790000000  0.4836820000000  0.4916780000000 1.0
C      1  0.5308340000000  0.5875190000000  0.4908750000000 1.0
C      1  0.5501950000000  0.4310680000000  0.4912090000000 1.0
C      1  0.4307510000000  0.5074880000000  0.5627750000000 1.0
C      1  0.5424910000000  0.5579260000000  0.5585960000000 1.0
C      1  0.5295450000000  0.4332150000000  0.5520260000000 1.0
C      1  0.4907530000000  0.5274120000000  0.4134640000000 1.0
C      1  0.5301440000000  0.4945330000000  0.4136140000000 1.0
C      1  0.4793630000000  0.4716460000000  0.4183730000000 1.0
C      1  0.4059230000000  0.4574880000000  0.5007900000000 1.0
C      1  0.5066810000000  0.5985100000000  0.4976920000000 1.0
C      1  0.5731240000000  0.4476700000000  0.5016360000000 1.0
END
