TITL C-2782228-2999-674 -0.00229878546566106 125000 -374.678332675542 0 0 65 (T23) n - 1
REM
REM in /home/nfs/bkarasulu/CARBON/AIRSS/Generating-Clusters/REBO/Higher-Symm/SD-CG/HFTN-CG
REM
REM
REM
REM
REM
REM ./C.cell (12c818d87b63d06a65506943cc24bca4)
REM
REM compiler GCC version 9.2.1 20190827 (Red Hat 9.2.1-1)
REM options -cpp -mtune=generic -march=x86-64 -g -O0 -fpre-include=/usr/include/finclude/math-vector-fortran.h
REM seed 726477277 -926021366 316467694 1739648090 1148276064 1189197502 337909428 -1075188763 -1032568341 779898996 1751263407 -869298253 62769030 1961248886 1955160617 -1733278111 1480223768 -1230784600 647286205 -1668690966 1268539129 1249245391 -747064801 1119916846 1868169237 -1642320200 1668365741 -1211042473 -421208079 911676607 -1772098864 -1850064503 1459439416
REM
CELL 1.54180   50.00000   50.00000   50.00000   90.00000   90.00000   90.00000
LATT -1
SFAC C  
C      1  0.4546160000000  0.4800650000000  0.4562760000000 1.0
C      1  0.4576590000000  0.4539160000000  0.4786800000000 1.0
C      1  0.4806160000000  0.4575090000000  0.4530870000000 1.0
C      1  0.4534890000000  0.5200190000000  0.5430030000000 1.0
C      1  0.5472370000000  0.5212540000000  0.4578330000000 1.0
C      1  0.5463410000000  0.4793280000000  0.5436270000000 1.0
C      1  0.4569170000000  0.5461850000000  0.5206750000000 1.0
C      1  0.5436630000000  0.5468850000000  0.4807520000000 1.0
C      1  0.5434440000000  0.4536800000000  0.5206320000000 1.0
C      1  0.4792860000000  0.5427140000000  0.5468010000000 1.0
C      1  0.5213130000000  0.5438850000000  0.4545520000000 1.0
C      1  0.5204690000000  0.4565580000000  0.5462990000000 1.0
C      1  0.4531790000000  0.4479130000000  0.5122620000000 1.0
C      1  0.5143890000000  0.4535630000000  0.4478300000000 1.0
C      1  0.4489630000000  0.5137930000000  0.4524950000000 1.0
C      1  0.4531970000000  0.5521660000000  0.4869970000000 1.0
C      1  0.5473520000000  0.5521170000000  0.5145580000000 1.0
C      1  0.5479550000000  0.4484690000000  0.4869220000000 1.0
C      1  0.5129040000000  0.5468400000000  0.5528510000000 1.0
C      1  0.4876710000000  0.5479580000000  0.4485960000000 1.0
C      1  0.4867180000000  0.4523040000000  0.5514620000000 1.0
C      1  0.4479290000000  0.4862610000000  0.5466530000000 1.0
C      1  0.5529870000000  0.4876200000000  0.4534150000000 1.0
C      1  0.5518050000000  0.5129920000000  0.5481760000000 1.0
C      1  0.5290760000000  0.5243360000000  0.5628680000000 1.0
C      1  0.5621050000000  0.5295010000000  0.5260490000000 1.0
C      1  0.5247010000000  0.5619540000000  0.5306340000000 1.0
C      1  0.5306710000000  0.4761550000000  0.4381940000000 1.0
C      1  0.4703110000000  0.4745770000000  0.5616100000000 1.0
C      1  0.4716270000000  0.5255980000000  0.4380670000000 1.0
C      1  0.5628520000000  0.4711640000000  0.4757800000000 1.0
C      1  0.4381550000000  0.4702640000000  0.5239180000000 1.0
C      1  0.4385710000000  0.5297360000000  0.4749920000000 1.0
C      1  0.5257410000000  0.4385120000000  0.4703180000000 1.0
C      1  0.4754500000000  0.4377050000000  0.5286360000000 1.0
C      1  0.4757910000000  0.5624950000000  0.4711500000000 1.0
C      1  0.4994180000000  0.4298900000000  0.5146290000000 1.0
C      1  0.5165030000000  0.4999870000000  0.4302580000000 1.0
C      1  0.4302910000000  0.5152470000000  0.4985130000000 1.0
C      1  0.4993810000000  0.5704380000000  0.4857160000000 1.0
C      1  0.5010660000000  0.5700940000000  0.5162520000000 1.0
C      1  0.5018190000000  0.4302440000000  0.4841410000000 1.0
C      1  0.5148530000000  0.5004270000000  0.5704710000000 1.0
C      1  0.4859830000000  0.5019490000000  0.4299220000000 1.0
C      1  0.4843450000000  0.4983020000000  0.5700880000000 1.0
C      1  0.4303530000000  0.4847100000000  0.5002080000000 1.0
C      1  0.5705750000000  0.4851090000000  0.4998130000000 1.0
C      1  0.5704650000000  0.5156000000000  0.5022040000000 1.0
C      1  0.4851080000000  0.5404650000000  0.5074210000000 1.0
C      1  0.5069430000000  0.4846050000000  0.5405100000000 1.0
C      1  0.5409970000000  0.5074010000000  0.4856220000000 1.0
C      1  0.4854990000000  0.4597860000000  0.4925930000000 1.0
C      1  0.5155710000000  0.4597080000000  0.5068550000000 1.0
C      1  0.5155060000000  0.5407050000000  0.4938700000000 1.0
C      1  0.5078060000000  0.5157650000000  0.4600230000000 1.0
C      1  0.4929510000000  0.5148030000000  0.5406920000000 1.0
C      1  0.4939840000000  0.4854920000000  0.4595140000000 1.0
C      1  0.5406820000000  0.4931480000000  0.5156970000000 1.0
C      1  0.4601990000000  0.4932770000000  0.4845130000000 1.0
C      1  0.4598050000000  0.5068390000000  0.5149050000000 1.0
C      1  0.4821860000000  0.4818370000000  0.5178390000000 1.0
C      1  0.5187580000000  0.4823470000000  0.4821180000000 1.0
C      1  0.4825080000000  0.5183990000000  0.4821050000000 1.0
C      1  0.5182320000000  0.5180830000000  0.5186770000000 1.0
C      1  0.5004210000000  0.5001660000000  0.5001850000000 1.0
END
