TITL C-2782227-3064-533 -0.00103737300707416 125000 -593.908706578314 0 0 104 (C1) n - 1
REM
REM in /home/nfs/bkarasulu/CARBON/AIRSS/Generating-Clusters/REBO/Higher-Symm/SD-CG/HFTN-CG
REM
REM
REM
REM
REM
REM ./C.cell (12c818d87b63d06a65506943cc24bca4)
REM
REM compiler GCC version 9.2.1 20190827 (Red Hat 9.2.1-1)
REM options -cpp -mtune=generic -march=x86-64 -g -O0 -fpre-include=/usr/include/finclude/math-vector-fortran.h
REM seed 535132981 -186175229 -986795860 1406956791 1008451684 2107240688 1889052946 -442457076 -156495357 -2021873024 1934563130 -823433610 825560841 492297085 -1437788659 -501284359 -1042033957 644391518 -1219448081 -388806949 428344269 -2115197391 1757978735 -1583565294 1129300478 1905729331 -994014909 1275049481 232227300 -1162593952 -1622870779 -178810624 -1745934068
REM
CELL 1.54180   50.00000   50.00000   50.00000   90.00000   90.00000   90.00000
LATT -1
SFAC C  
C      1  0.5059200000000  0.4483090000000  0.5151080000000 1.0
C      1  0.4880310000000  0.5510780000000  0.5236480000000 1.0
C      1  0.5055930000000  0.4494840000000  0.4753330000000 1.0
C      1  0.4924490000000  0.5492140000000  0.4784800000000 1.0
C      1  0.5727140000000  0.4579680000000  0.5305440000000 1.0
C      1  0.4232010000000  0.5425760000000  0.5362600000000 1.0
C      1  0.5771620000000  0.4584070000000  0.4572200000000 1.0
C      1  0.4270190000000  0.5456390000000  0.4720930000000 1.0
C      1  0.5422230000000  0.4856010000000  0.4579620000000 1.0
C      1  0.4660790000000  0.5120240000000  0.4623870000000 1.0
C      1  0.5350050000000  0.4851910000000  0.5368380000000 1.0
C      1  0.4607030000000  0.5169280000000  0.5412120000000 1.0
C      1  0.5187640000000  0.5532610000000  0.5162320000000 1.0
C      1  0.4722320000000  0.4429970000000  0.5155250000000 1.0
C      1  0.5245020000000  0.5560810000000  0.4838550000000 1.0
C      1  0.4756180000000  0.4467440000000  0.4834650000000 1.0
C      1  0.4202170000000  0.4951600000000  0.5287530000000 1.0
C      1  0.5770680000000  0.5048090000000  0.5277450000000 1.0
C      1  0.4222070000000  0.4978400000000  0.4737960000000 1.0
C      1  0.5842100000000  0.5080410000000  0.4686140000000 1.0
C      1  0.4918930000000  0.5184690000000  0.5165220000000 1.0
C      1  0.5025990000000  0.4808430000000  0.5142230000000 1.0
C      1  0.4981390000000  0.5165960000000  0.4855190000000 1.0
C      1  0.5124000000000  0.4793370000000  0.4835420000000 1.0
C      1  0.4655050000000  0.5420740000000  0.5714200000000 1.0
C      1  0.5325150000000  0.4593800000000  0.5669520000000 1.0
C      1  0.4669990000000  0.5416700000000  0.4357210000000 1.0
C      1  0.5345550000000  0.4583370000000  0.4302580000000 1.0
C      1  0.5147330000000  0.5655860000000  0.4355230000000 1.0
C      1  0.4861760000000  0.4343130000000  0.4336780000000 1.0
C      1  0.5123340000000  0.5670680000000  0.5623280000000 1.0
C      1  0.4851660000000  0.4344150000000  0.5647850000000 1.0
C      1  0.4232840000000  0.4664740000000  0.5157780000000 1.0
C      1  0.5718680000000  0.5326800000000  0.5138670000000 1.0
C      1  0.4253350000000  0.4686800000000  0.4856450000000 1.0
C      1  0.5754920000000  0.5345610000000  0.4830250000000 1.0
C      1  0.4580230000000  0.5673450000000  0.4870820000000 1.0
C      1  0.5442240000000  0.4357500000000  0.4837490000000 1.0
C      1  0.4529020000000  0.5697680000000  0.5211420000000 1.0
C      1  0.5412230000000  0.4302460000000  0.5179740000000 1.0
C      1  0.5006270000000  0.4592690000000  0.4273890000000 1.0
C      1  0.5004980000000  0.5407980000000  0.4291740000000 1.0
C      1  0.4986350000000  0.4597460000000  0.5704100000000 1.0
C      1  0.4995070000000  0.5427550000000  0.5720800000000 1.0
C      1  0.5509570000000  0.4690320000000  0.4852870000000 1.0
C      1  0.4625820000000  0.5338850000000  0.4858470000000 1.0
C      1  0.5374040000000  0.4625650000000  0.5123840000000 1.0
C      1  0.4571570000000  0.5374790000000  0.5161320000000 1.0
C      1  0.5436460000000  0.5322830000000  0.4747880000000 1.0
C      1  0.4584030000000  0.4720680000000  0.4770740000000 1.0
C      1  0.5388890000000  0.5292570000000  0.5223810000000 1.0
C      1  0.4556470000000  0.4690440000000  0.5252000000000 1.0
C      1  0.5376720000000  0.5804290000000  0.5458780000000 1.0
C      1  0.4591720000000  0.4202380000000  0.5496340000000 1.0
C      1  0.5409290000000  0.5810890000000  0.4486010000000 1.0
C      1  0.4626480000000  0.4224240000000  0.4545610000000 1.0
C      1  0.5108590000000  0.4160150000000  0.5214550000000 1.0
C      1  0.4827730000000  0.5831620000000  0.5147050000000 1.0
C      1  0.5161370000000  0.4200670000000  0.4887000000000 1.0
C      1  0.4879780000000  0.5825090000000  0.4825150000000 1.0
C      1  0.5030300000000  0.4823300000000  0.5466540000000 1.0
C      1  0.4921820000000  0.5205990000000  0.5492000000000 1.0
C      1  0.5091960000000  0.4809480000000  0.4511060000000 1.0
C      1  0.4973990000000  0.5187900000000  0.4530140000000 1.0
C      1  0.5050950000000  0.5847730000000  0.5366650000000 1.0
C      1  0.4913050000000  0.4109980000000  0.5432980000000 1.0
C      1  0.5090620000000  0.5847100000000  0.4603620000000 1.0
C      1  0.4956550000000  0.4195590000000  0.4621700000000 1.0
C      1  0.5491580000000  0.4469910000000  0.5469150000000 1.0
C      1  0.4481560000000  0.5538200000000  0.5511880000000 1.0
C      1  0.5510580000000  0.4470670000000  0.4521530000000 1.0
C      1  0.4508260000000  0.5557660000000  0.4551350000000 1.0
C      1  0.4730220000000  0.4956080000000  0.4898110000000 1.0
C      1  0.5350530000000  0.5053360000000  0.4812010000000 1.0
C      1  0.4662350000000  0.4948610000000  0.5192790000000 1.0
C      1  0.5282600000000  0.5032490000000  0.5111610000000 1.0
C      1  0.4380080000000  0.4432540000000  0.5362280000000 1.0
C      1  0.5561440000000  0.5578840000000  0.5293020000000 1.0
C      1  0.4399980000000  0.4452450000000  0.4656850000000 1.0
C      1  0.5603890000000  0.5603730000000  0.4667710000000 1.0
C      1  0.5283560000000  0.4890360000000  0.5766980000000 1.0
C      1  0.4685010000000  0.5118840000000  0.5800690000000 1.0
C      1  0.5319800000000  0.4890340000000  0.4195060000000 1.0
C      1  0.4719350000000  0.5127390000000  0.4229300000000 1.0
C      1  0.5151360000000  0.5122770000000  0.5723670000000 1.0
C      1  0.4822110000000  0.4896780000000  0.5725210000000 1.0
C      1  0.5183760000000  0.5116360000000  0.4271490000000 1.0
C      1  0.4851420000000  0.4896620000000  0.4285480000000 1.0
C      1  0.4192370000000  0.5226690000000  0.4878720000000 1.0
C      1  0.5822370000000  0.4797380000000  0.4832680000000 1.0
C      1  0.4173850000000  0.5212680000000  0.5170450000000 1.0
C      1  0.5823690000000  0.4801620000000  0.5148510000000 1.0
C      1  0.4391460000000  0.4954790000000  0.5502530000000 1.0
C      1  0.5587400000000  0.4995360000000  0.5494200000000 1.0
C      1  0.4412070000000  0.4981230000000  0.4521420000000 1.0
C      1  0.5667430000000  0.4992170000000  0.4453450000000 1.0
C      1  0.5425460000000  0.5849740000000  0.4821460000000 1.0
C      1  0.4530800000000  0.4215570000000  0.4872210000000 1.0
C      1  0.5380580000000  0.5810450000000  0.5118940000000 1.0
C      1  0.4497890000000  0.4172140000000  0.5174300000000 1.0
C      1  0.4421940000000  0.4704830000000  0.5626610000000 1.0
C      1  0.5629570000000  0.5089180000000  0.5749100000000 1.0
C      1  0.4438740000000  0.4729300000000  0.4398470000000 1.0
C      1  0.5711710000000  0.5035220000000  0.4186100000000 1.0
END
