TITL C-2782239-8622-1092 0.00194091879308529 125000 -560.560076539871 0 0 95 (C1) n - 1
REM
REM in /home/nfs/bkarasulu/CARBON/AIRSS/Generating-Clusters/REBO/Higher-Symm/SD-CG/HFTN-CG
REM
REM
REM
REM
REM
REM ./C.cell (12c818d87b63d06a65506943cc24bca4)
REM
REM compiler GCC version 9.2.1 20190827 (Red Hat 9.2.1-1)
REM options -cpp -mtune=generic -march=x86-64 -g -O0 -fpre-include=/usr/include/finclude/math-vector-fortran.h
REM seed -290340758 -1937250536 -1828485224 -841029082 -658588781 1217717480 -1004328233 1379604025 1308008999 1241581874 -120835607 -178576266 87678137 -717640035 -1424370272 -1250889838 -1899330666 186603189 1206519685 -1866421806 377206793 489185718 1440421647 557740966 -948038853 -378180631 -1705179866 1919178018 -1515387775 -84090954 2064970578 -1401410053 -868722841
REM
CELL 1.54180   50.00000   50.00000   50.00000   90.00000   90.00000   90.00000
LATT -1
SFAC C  
C      1  0.4711650000000  0.5252790000000  0.5625680000000 1.0
C      1  0.4818020000000  0.5336540000000  0.4602510000000 1.0
C      1  0.4744110000000  0.4383690000000  0.4863280000000 1.0
C      1  0.5212070000000  0.5212660000000  0.5534420000000 1.0
C      1  0.5148420000000  0.5375380000000  0.4553330000000 1.0
C      1  0.5233590000000  0.4407790000000  0.4839800000000 1.0
C      1  0.5796310000000  0.4651860000000  0.4772010000000 1.0
C      1  0.5755420000000  0.4975270000000  0.5408730000000 1.0
C      1  0.5796890000000  0.5377710000000  0.4809010000000 1.0
C      1  0.4185570000000  0.4652210000000  0.4796430000000 1.0
C      1  0.4239520000000  0.4987120000000  0.5405460000000 1.0
C      1  0.4228080000000  0.5392620000000  0.4811580000000 1.0
C      1  0.4821400000000  0.5520620000000  0.5630520000000 1.0
C      1  0.4861210000000  0.5222990000000  0.4321940000000 1.0
C      1  0.4858640000000  0.4220960000000  0.5073060000000 1.0
C      1  0.5148130000000  0.5496310000000  0.5596180000000 1.0
C      1  0.5186910000000  0.5261300000000  0.4251250000000 1.0
C      1  0.5145410000000  0.4248490000000  0.5067890000000 1.0
C      1  0.4718710000000  0.5140450000000  0.5325670000000 1.0
C      1  0.4710450000000  0.5170980000000  0.4819750000000 1.0
C      1  0.4774090000000  0.4672540000000  0.4948620000000 1.0
C      1  0.5220740000000  0.5154910000000  0.5263170000000 1.0
C      1  0.5284010000000  0.5201700000000  0.4757390000000 1.0
C      1  0.5295170000000  0.4690940000000  0.4907730000000 1.0
C      1  0.5573710000000  0.5400170000000  0.4410060000000 1.0
C      1  0.5596720000000  0.4278550000000  0.4945820000000 1.0
C      1  0.5576860000000  0.5309730000000  0.5665130000000 1.0
C      1  0.4450200000000  0.5411560000000  0.4407920000000 1.0
C      1  0.4374160000000  0.4246940000000  0.4928880000000 1.0
C      1  0.4325780000000  0.5351690000000  0.5607090000000 1.0
C      1  0.5547490000000  0.4805040000000  0.4332810000000 1.0
C      1  0.5544100000000  0.4502150000000  0.5502970000000 1.0
C      1  0.5537830000000  0.5670280000000  0.5190040000000 1.0
C      1  0.4463360000000  0.4821710000000  0.4369210000000 1.0
C      1  0.4462230000000  0.4525980000000  0.5423670000000 1.0
C      1  0.4471650000000  0.5710000000000  0.5156090000000 1.0
C      1  0.4233390000000  0.4723560000000  0.5312970000000 1.0
C      1  0.4321280000000  0.5410600000000  0.5096040000000 1.0
C      1  0.4310740000000  0.4887620000000  0.4663110000000 1.0
C      1  0.5672900000000  0.4720390000000  0.5276160000000 1.0
C      1  0.5676570000000  0.5382510000000  0.5082720000000 1.0
C      1  0.5707270000000  0.4896190000000  0.4619360000000 1.0
C      1  0.4448810000000  0.5036070000000  0.5633000000000 1.0
C      1  0.4394130000000  0.5549160000000  0.4649250000000 1.0
C      1  0.4335620000000  0.4429430000000  0.4717760000000 1.0
C      1  0.5617920000000  0.5027980000000  0.5646050000000 1.0
C      1  0.5633410000000  0.5540750000000  0.4649010000000 1.0
C      1  0.5628140000000  0.4435930000000  0.4711330000000 1.0
C      1  0.5855860000000  0.4669440000000  0.5035990000000 1.0
C      1  0.5821850000000  0.5190970000000  0.5264110000000 1.0
C      1  0.5871250000000  0.5142750000000  0.4694970000000 1.0
C      1  0.4111240000000  0.4668770000000  0.5066120000000 1.0
C      1  0.4169400000000  0.5209410000000  0.5268090000000 1.0
C      1  0.4162410000000  0.5148800000000  0.4714140000000 1.0
C      1  0.4848630000000  0.4682500000000  0.4556020000000 1.0
C      1  0.4898750000000  0.4778490000000  0.5483520000000 1.0
C      1  0.4839350000000  0.5604480000000  0.5041720000000 1.0
C      1  0.5166040000000  0.4733150000000  0.4531530000000 1.0
C      1  0.5209390000000  0.4712380000000  0.5507140000000 1.0
C      1  0.5158730000000  0.5615790000000  0.4992520000000 1.0
C      1  0.4998740000000  0.4681060000000  0.5174020000000 1.0
C      1  0.4644060000000  0.5356360000000  0.5093670000000 1.0
C      1  0.4631440000000  0.4882500000000  0.4724930000000 1.0
C      1  0.5343240000000  0.4701240000000  0.5221740000000 1.0
C      1  0.5348770000000  0.5352450000000  0.5043720000000 1.0
C      1  0.5391090000000  0.4918550000000  0.4679980000000 1.0
C      1  0.5304590000000  0.5739410000000  0.5415210000000 1.0
C      1  0.5336530000000  0.4974170000000  0.4144230000000 1.0
C      1  0.5290160000000  0.4315050000000  0.5369840000000 1.0
C      1  0.4669420000000  0.5744950000000  0.5423860000000 1.0
C      1  0.4698820000000  0.4958100000000  0.4184220000000 1.0
C      1  0.4706110000000  0.4292410000000  0.5366730000000 1.0
C      1  0.5563270000000  0.5148340000000  0.4321130000000 1.0
C      1  0.5577840000000  0.4324370000000  0.5210630000000 1.0
C      1  0.5542050000000  0.5515780000000  0.5497360000000 1.0
C      1  0.4466620000000  0.5160900000000  0.4319250000000 1.0
C      1  0.4429850000000  0.4281550000000  0.5187390000000 1.0
C      1  0.4385070000000  0.5569230000000  0.5457340000000 1.0
C      1  0.4828620000000  0.4972880000000  0.5737620000000 1.0
C      1  0.4882110000000  0.5631700000000  0.4705850000000 1.0
C      1  0.4816240000000  0.4340230000000  0.4547570000000 1.0
C      1  0.5167710000000  0.4963690000000  0.5713790000000 1.0
C      1  0.5195700000000  0.5686140000000  0.4656710000000 1.0
C      1  0.5123710000000  0.4393060000000  0.4535730000000 1.0
C      1  0.4584520000000  0.5714430000000  0.4835360000000 1.0
C      1  0.4541930000000  0.4525420000000  0.4511410000000 1.0
C      1  0.4601240000000  0.4746510000000  0.5607310000000 1.0
C      1  0.5461060000000  0.5710370000000  0.4860230000000 1.0
C      1  0.5435300000000  0.4523260000000  0.4487610000000 1.0
C      1  0.5452740000000  0.4761480000000  0.5711470000000 1.0
C      1  0.5013260000000  0.5000940000000  0.4107160000000 1.0
C      1  0.4990750000000  0.4419140000000  0.5391460000000 1.0
C      1  0.4988820000000  0.5781810000000  0.5483550000000 1.0
C      1  0.4736950000000  0.4970920000000  0.5096180000000 1.0
C      1  0.5182990000000  0.4994350000000  0.5007350000000 1.0
END
