TITL C-2782233-7966-497 0.00514349919294142 125000 -853.096470890907 0 0 146 (C1) n - 1
REM
REM in /home/nfs/bkarasulu/CARBON/AIRSS/Generating-Clusters/REBO/Higher-Symm/SD-CG/HFTN-CG
REM
REM
REM
REM
REM
REM ./C.cell (12c818d87b63d06a65506943cc24bca4)
REM
REM compiler GCC version 9.2.1 20190827 (Red Hat 9.2.1-1)
REM options -cpp -mtune=generic -march=x86-64 -g -O0 -fpre-include=/usr/include/finclude/math-vector-fortran.h
REM seed 904155727 368011204 2132203426 -901757865 1570248341 2145296284 1292035093 -383055248 -393660780 -1976328244 -1107929136 147232067 1199746286 1838618069 1922117144 -698547851 -934333609 -774043198 -1692035485 1675079838 -270565339 -1508361002 1468058486 -1647370308 1807414316 -404189743 -609078268 -111759116 -481797549 -1459382041 -1053366080 1243903826 -1921682684
REM
CELL 1.54180   50.00000   50.00000   50.00000   90.00000   90.00000   90.00000
LATT -1
SFAC C  
C      1  0.4120810000000  0.4246990000000  0.4702440000000 1.0
C      1  0.4036500000000  0.5036940000000  0.5796530000000 1.0
C      1  0.4156700000000  0.5591900000000  0.4400600000000 1.0
C      1  0.4561650000000  0.6010840000000  0.5269720000000 1.0
C      1  0.4569700000000  0.4763360000000  0.4050740000000 1.0
C      1  0.4683550000000  0.4489680000000  0.5672150000000 1.0
C      1  0.5338160000000  0.5226500000000  0.5074520000000 1.0
C      1  0.5402280000000  0.5007400000000  0.4747300000000 1.0
C      1  0.5384350000000  0.4832800000000  0.5106180000000 1.0
C      1  0.5027660000000  0.5683410000000  0.5322590000000 1.0
C      1  0.5065610000000  0.4957840000000  0.4147390000000 1.0
C      1  0.5106320000000  0.4204600000000  0.5570040000000 1.0
C      1  0.5904700000000  0.4815070000000  0.4678210000000 1.0
C      1  0.5878330000000  0.4840320000000  0.5335960000000 1.0
C      1  0.5906710000000  0.5397780000000  0.4985250000000 1.0
C      1  0.5464060000000  0.5540300000000  0.4692460000000 1.0
C      1  0.5461320000000  0.4490260000000  0.4716040000000 1.0
C      1  0.5488540000000  0.5037320000000  0.5553950000000 1.0
C      1  0.5546790000000  0.4533080000000  0.5334420000000 1.0
C      1  0.5565820000000  0.5515680000000  0.5222580000000 1.0
C      1  0.5543140000000  0.4983650000000  0.4462690000000 1.0
C      1  0.4330170000000  0.5452140000000  0.4644370000000 1.0
C      1  0.4332590000000  0.4477940000000  0.4835180000000 1.0
C      1  0.4266600000000  0.4999540000000  0.5540890000000 1.0
C      1  0.5541410000000  0.4685050000000  0.4328890000000 1.0
C      1  0.5569570000000  0.4558990000000  0.5673040000000 1.0
C      1  0.5558090000000  0.5796770000000  0.5036710000000 1.0
C      1  0.4592480000000  0.5149170000000  0.5952790000000 1.0
C      1  0.4565750000000  0.5794640000000  0.4161400000000 1.0
C      1  0.4520500000000  0.3996060000000  0.4734680000000 1.0
C      1  0.5160900000000  0.5243730000000  0.4791740000000 1.0
C      1  0.5161820000000  0.4711460000000  0.4902360000000 1.0
C      1  0.5113170000000  0.4900490000000  0.5250420000000 1.0
C      1  0.5168320000000  0.5074970000000  0.5495270000000 1.0
C      1  0.5167780000000  0.5455040000000  0.4549540000000 1.0
C      1  0.5172150000000  0.4400980000000  0.4860790000000 1.0
C      1  0.4712720000000  0.5498450000000  0.4915780000000 1.0
C      1  0.4695420000000  0.4720300000000  0.4695050000000 1.0
C      1  0.4725320000000  0.4929700000000  0.5328890000000 1.0
C      1  0.4889470000000  0.5728320000000  0.5604210000000 1.0
C      1  0.4901550000000  0.5167890000000  0.4072360000000 1.0
C      1  0.4916600000000  0.4122240000000  0.5365480000000 1.0
C      1  0.5362520000000  0.5121520000000  0.5841440000000 1.0
C      1  0.5438080000000  0.5709710000000  0.4404440000000 1.0
C      1  0.5425850000000  0.4153300000000  0.4680630000000 1.0
C      1  0.4738670000000  0.4468990000000  0.4594200000000 1.0
C      1  0.4826120000000  0.4773470000000  0.5575850000000 1.0
C      1  0.4755880000000  0.5708830000000  0.4744980000000 1.0
C      1  0.4628420000000  0.5086150000000  0.4057370000000 1.0
C      1  0.4673780000000  0.4249650000000  0.5430370000000 1.0
C      1  0.4611320000000  0.5870110000000  0.5555290000000 1.0
C      1  0.4780490000000  0.4529040000000  0.5165270000000 1.0
C      1  0.4814310000000  0.5427780000000  0.5353860000000 1.0
C      1  0.4801860000000  0.5146060000000  0.4573600000000 1.0
C      1  0.5276290000000  0.5441260000000  0.5821010000000 1.0
C      1  0.5320330000000  0.5494620000000  0.4176650000000 1.0
C      1  0.5320510000000  0.4053450000000  0.4988590000000 1.0
C      1  0.5611680000000  0.5351330000000  0.5792120000000 1.0
C      1  0.5657370000000  0.5493740000000  0.4266540000000 1.0
C      1  0.5652900000000  0.4139740000000  0.4928910000000 1.0
C      1  0.5398250000000  0.5604600000000  0.5572000000000 1.0
C      1  0.5438420000000  0.5190470000000  0.4131510000000 1.0
C      1  0.5446220000000  0.4155860000000  0.5268910000000 1.0
C      1  0.4387980000000  0.5506660000000  0.5654420000000 1.0
C      1  0.4553510000000  0.5489300000000  0.4417670000000 1.0
C      1  0.4553350000000  0.4257260000000  0.4880260000000 1.0
C      1  0.5310780000000  0.5348850000000  0.5379090000000 1.0
C      1  0.5266790000000  0.5176890000000  0.4411910000000 1.0
C      1  0.5272030000000  0.4431740000000  0.5168950000000 1.0
C      1  0.4046700000000  0.4665380000000  0.5161470000000 1.0
C      1  0.4026970000000  0.5303860000000  0.5236680000000 1.0
C      1  0.4048280000000  0.5038550000000  0.4646560000000 1.0
C      1  0.5229350000000  0.5846950000000  0.4597320000000 1.0
C      1  0.5212480000000  0.4287360000000  0.4481340000000 1.0
C      1  0.5223560000000  0.4846410000000  0.5929310000000 1.0
C      1  0.4398600000000  0.4405280000000  0.5504970000000 1.0
C      1  0.4339280000000  0.5803910000000  0.5390760000000 1.0
C      1  0.4380630000000  0.4949730000000  0.4237790000000 1.0
C      1  0.4011180000000  0.5374580000000  0.4620700000000 1.0
C      1  0.4003520000000  0.4519500000000  0.4859670000000 1.0
C      1  0.3947620000000  0.5087430000000  0.5481270000000 1.0
C      1  0.5555440000000  0.5282250000000  0.4838520000000 1.0
C      1  0.5556660000000  0.4747860000000  0.4859310000000 1.0
C      1  0.5550940000000  0.5054380000000  0.5254430000000 1.0
C      1  0.4449420000000  0.5049790000000  0.5314800000000 1.0
C      1  0.4470440000000  0.5326440000000  0.4881540000000 1.0
C      1  0.4452220000000  0.4778830000000  0.4875610000000 1.0
C      1  0.5881590000000  0.5436440000000  0.5322230000000 1.0
C      1  0.5864720000000  0.5075720000000  0.4473870000000 1.0
C      1  0.5853780000000  0.4537100000000  0.5200960000000 1.0
C      1  0.4318850000000  0.4998560000000  0.4506310000000 1.0
C      1  0.4300680000000  0.4571500000000  0.5299910000000 1.0
C      1  0.4234000000000  0.5506010000000  0.5350300000000 1.0
C      1  0.4975590000000  0.5480980000000  0.5821200000000 1.0
C      1  0.5015640000000  0.5461730000000  0.4168720000000 1.0
C      1  0.5015230000000  0.4055370000000  0.5046140000000 1.0
C      1  0.4527820000000  0.5104770000000  0.4657670000000 1.0
C      1  0.4521630000000  0.4643400000000  0.5146030000000 1.0
C      1  0.4511310000000  0.5350950000000  0.5310060000000 1.0
C      1  0.4958520000000  0.5709920000000  0.4515940000000 1.0
C      1  0.4954890000000  0.4264900000000  0.4669070000000 1.0
C      1  0.5000300000000  0.4983730000000  0.5743100000000 1.0
C      1  0.5736370000000  0.5578320000000  0.5577170000000 1.0
C      1  0.5764010000000  0.5190450000000  0.4201490000000 1.0
C      1  0.5773810000000  0.4228680000000  0.5211920000000 1.0
C      1  0.5069100000000  0.4539400000000  0.5579020000000 1.0
C      1  0.5219680000000  0.5590140000000  0.5078200000000 1.0
C      1  0.5149710000000  0.4868380000000  0.4467430000000 1.0
C      1  0.5038940000000  0.4661310000000  0.4145310000000 1.0
C      1  0.5104130000000  0.4296790000000  0.5887280000000 1.0
C      1  0.5018410000000  0.5926360000000  0.5101750000000 1.0
C      1  0.4348970000000  0.5077730000000  0.5856580000000 1.0
C      1  0.4303560000000  0.5734970000000  0.4225020000000 1.0
C      1  0.4246430000000  0.4010590000000  0.4642750000000 1.0
C      1  0.4782110000000  0.4290590000000  0.5028880000000 1.0
C      1  0.4669590000000  0.5480050000000  0.5658010000000 1.0
C      1  0.4797200000000  0.5363100000000  0.4403210000000 1.0
C      1  0.4084550000000  0.5233620000000  0.4923860000000 1.0
C      1  0.3951360000000  0.4847350000000  0.4877570000000 1.0
C      1  0.3922580000000  0.4977820000000  0.5181600000000 1.0
C      1  0.4783310000000  0.6062800000000  0.5104860000000 1.0
C      1  0.4783620000000  0.4578660000000  0.4056500000000 1.0
C      1  0.4831480000000  0.4373200000000  0.5928130000000 1.0
C      1  0.5764290000000  0.5622810000000  0.4829800000000 1.0
C      1  0.5753140000000  0.4570340000000  0.4559870000000 1.0
C      1  0.5735830000000  0.4841210000000  0.5616780000000 1.0
C      1  0.5788230000000  0.5091620000000  0.5808570000000 1.0
C      1  0.5810910000000  0.5618160000000  0.4514350000000 1.0
C      1  0.5802350000000  0.4287480000000  0.4694390000000 1.0
C      1  0.5043260000000  0.4607560000000  0.5283900000000 1.0
C      1  0.4963670000000  0.5363360000000  0.5054100000000 1.0
C      1  0.4952560000000  0.4906420000000  0.4742640000000 1.0
C      1  0.5855030000000  0.5134300000000  0.4797190000000 1.0
C      1  0.5855630000000  0.4787570000000  0.4996470000000 1.0
C      1  0.5850070000000  0.5133800000000  0.5196340000000 1.0
C      1  0.5253030000000  0.4560090000000  0.4356520000000 1.0
C      1  0.5298750000000  0.4569090000000  0.5814880000000 1.0
C      1  0.5275920000000  0.5862720000000  0.4896900000000 1.0
C      1  0.4845180000000  0.5199630000000  0.5880200000000 1.0
C      1  0.4817600000000  0.5722700000000  0.4229320000000 1.0
C      1  0.4827680000000  0.3990360000000  0.4769560000000 1.0
C      1  0.5612820000000  0.4907100000000  0.4081060000000 1.0
C      1  0.5643020000000  0.4260300000000  0.5527260000000 1.0
C      1  0.5583630000000  0.5816380000000  0.5377830000000 1.0
C      1  0.4905500000000  0.5031870000000  0.5058630000000 1.0
C      1  0.4354850000000  0.5045890000000  0.5012500000000 1.0
END
