TITL C-2782231-7322-651 0.00251493814046136 125000 -742.787447857673 0 0 130 (C1) n - 1
REM
REM in /home/nfs/bkarasulu/CARBON/AIRSS/Generating-Clusters/REBO/Higher-Symm/SD-CG/HFTN-CG
REM
REM
REM
REM
REM
REM ./C.cell (12c818d87b63d06a65506943cc24bca4)
REM
REM compiler GCC version 9.2.1 20190827 (Red Hat 9.2.1-1)
REM options -cpp -mtune=generic -march=x86-64 -g -O0 -fpre-include=/usr/include/finclude/math-vector-fortran.h
REM seed -2061943487 1098417871 482833493 153310940 -1840787974 -1718885606 -1900012166 -1021723879 -479138122 1693961400 -1543322144 -1038289339 172449604 -997665561 -548277926 2059095981 -901172144 1951677477 1607558380 1357616352 759400157 -733398451 1449832246 1417151241 222540130 1893283418 388722651 -1663452454 -661433116 -743117475 49604899 -1866408556 -242841564
REM
CELL 1.54180   50.00000   50.00000   50.00000   90.00000   90.00000   90.00000
LATT -1
SFAC C  
C      1  0.4891880000000  0.4226630000000  0.4725170000000 1.0
C      1  0.5738270000000  0.4878050000000  0.4756260000000 1.0
C      1  0.5135230000000  0.5756420000000  0.4754750000000 1.0
C      1  0.4190080000000  0.5107790000000  0.4702460000000 1.0
C      1  0.5109640000000  0.4240560000000  0.5222610000000 1.0
C      1  0.4248710000000  0.4877740000000  0.5369260000000 1.0
C      1  0.4911240000000  0.5738740000000  0.5251560000000 1.0
C      1  0.5734150000000  0.5098890000000  0.5235800000000 1.0
C      1  0.4169080000000  0.4708920000000  0.4720680000000 1.0
C      1  0.5262770000000  0.4084270000000  0.4687180000000 1.0
C      1  0.5935850000000  0.5223260000000  0.4718530000000 1.0
C      1  0.4779280000000  0.5935070000000  0.4721030000000 1.0
C      1  0.5887380000000  0.4734720000000  0.5295580000000 1.0
C      1  0.4763110000000  0.4048420000000  0.5268240000000 1.0
C      1  0.4063160000000  0.5217680000000  0.5269900000000 1.0
C      1  0.5265430000000  0.5917790000000  0.5299880000000 1.0
C      1  0.5057560000000  0.5271250000000  0.5437440000000 1.0
C      1  0.4720260000000  0.5033470000000  0.5394550000000 1.0
C      1  0.4975970000000  0.4696510000000  0.5407080000000 1.0
C      1  0.5277600000000  0.5008280000000  0.5455680000000 1.0
C      1  0.4915610000000  0.5285180000000  0.4574820000000 1.0
C      1  0.5331970000000  0.5049350000000  0.4534780000000 1.0
C      1  0.5030160000000  0.4667630000000  0.4519010000000 1.0
C      1  0.4723580000000  0.5003300000000  0.4587030000000 1.0
C      1  0.5418960000000  0.4465040000000  0.4833720000000 1.0
C      1  0.5516860000000  0.5456360000000  0.4847410000000 1.0
C      1  0.4563150000000  0.5610570000000  0.4808450000000 1.0
C      1  0.4509260000000  0.4565330000000  0.4873900000000 1.0
C      1  0.4627910000000  0.4403290000000  0.5146890000000 1.0
C      1  0.4397470000000  0.5394360000000  0.5100680000000 1.0
C      1  0.5443590000000  0.5585530000000  0.5157040000000 1.0
C      1  0.5512670000000  0.4566600000000  0.5143700000000 1.0
C      1  0.5503220000000  0.4947290000000  0.4072580000000 1.0
C      1  0.5156530000000  0.5501850000000  0.4130430000000 1.0
C      1  0.4471360000000  0.5139310000000  0.4100420000000 1.0
C      1  0.4864290000000  0.4442090000000  0.4035860000000 1.0
C      1  0.4468900000000  0.4916330000000  0.5936850000000 1.0
C      1  0.4841680000000  0.5557680000000  0.5925350000000 1.0
C      1  0.5532070000000  0.5154050000000  0.5929430000000 1.0
C      1  0.5068120000000  0.4497650000000  0.5913490000000 1.0
C      1  0.5560570000000  0.4199850000000  0.4992380000000 1.0
C      1  0.5804990000000  0.5563010000000  0.4989550000000 1.0
C      1  0.4429860000000  0.5797290000000  0.4999720000000 1.0
C      1  0.4244630000000  0.4433680000000  0.5045070000000 1.0
C      1  0.4444790000000  0.4184080000000  0.4975890000000 1.0
C      1  0.4196180000000  0.5574390000000  0.4962500000000 1.0
C      1  0.5602780000000  0.5820920000000  0.4983650000000 1.0
C      1  0.5784090000000  0.4428710000000  0.4991240000000 1.0
C      1  0.4872690000000  0.4244110000000  0.5467510000000 1.0
C      1  0.5739970000000  0.4889440000000  0.5495530000000 1.0
C      1  0.5115820000000  0.5777600000000  0.5506350000000 1.0
C      1  0.4213110000000  0.5137630000000  0.5518160000000 1.0
C      1  0.5120530000000  0.4230790000000  0.4473480000000 1.0
C      1  0.4219540000000  0.4864770000000  0.4480280000000 1.0
C      1  0.4902400000000  0.5778690000000  0.4507620000000 1.0
C      1  0.5766980000000  0.5093700000000  0.4505290000000 1.0
C      1  0.5586670000000  0.4555390000000  0.4579140000000 1.0
C      1  0.5450540000000  0.5595260000000  0.4568500000000 1.0
C      1  0.4388050000000  0.5447540000000  0.4635450000000 1.0
C      1  0.4554280000000  0.4409490000000  0.4620240000000 1.0
C      1  0.4464940000000  0.4542220000000  0.5365660000000 1.0
C      1  0.4578760000000  0.5519240000000  0.5274250000000 1.0
C      1  0.5604390000000  0.5442110000000  0.5394020000000 1.0
C      1  0.5429540000000  0.4398850000000  0.5399030000000 1.0
C      1  0.5177430000000  0.5945020000000  0.5035010000000 1.0
C      1  0.4050720000000  0.5093520000000  0.5016710000000 1.0
C      1  0.4855590000000  0.4026860000000  0.5000220000000 1.0
C      1  0.5933870000000  0.4820000000000  0.5031320000000 1.0
C      1  0.4869280000000  0.5948620000000  0.4986230000000 1.0
C      1  0.5958780000000  0.5124940000000  0.4980120000000 1.0
C      1  0.5165890000000  0.4042500000000  0.4949690000000 1.0
C      1  0.4184430000000  0.4822310000000  0.4979840000000 1.0
C      1  0.4913890000000  0.4504540000000  0.4861820000000 1.0
C      1  0.5447070000000  0.4889500000000  0.4881880000000 1.0
C      1  0.5112290000000  0.5465280000000  0.4873760000000 1.0
C      1  0.4440250000000  0.5125390000000  0.4932860000000 1.0
C      1  0.5100510000000  0.4517630000000  0.5075230000000 1.0
C      1  0.4474680000000  0.4874710000000  0.5123830000000 1.0
C      1  0.4942740000000  0.5464530000000  0.5110670000000 1.0
C      1  0.5454200000000  0.5081210000000  0.5097730000000 1.0
C      1  0.4773930000000  0.5191440000000  0.5154110000000 1.0
C      1  0.4751890000000  0.4720000000000  0.5151530000000 1.0
C      1  0.5259470000000  0.4767370000000  0.5245500000000 1.0
C      1  0.5290380000000  0.5301790000000  0.5191110000000 1.0
C      1  0.5291520000000  0.5232050000000  0.4751810000000 1.0
C      1  0.5222410000000  0.4715940000000  0.4725300000000 1.0
C      1  0.4746910000000  0.4798330000000  0.4812800000000 1.0
C      1  0.4702750000000  0.5309420000000  0.4838300000000 1.0
C      1  0.5853920000000  0.5415420000000  0.5228550000000 1.0
C      1  0.4589890000000  0.5830070000000  0.5246480000000 1.0
C      1  0.4166840000000  0.4581260000000  0.5297650000000 1.0
C      1  0.5425180000000  0.4142600000000  0.5234900000000 1.0
C      1  0.4090420000000  0.5430350000000  0.4715520000000 1.0
C      1  0.5452520000000  0.5865720000000  0.4742250000000 1.0
C      1  0.5840180000000  0.4560880000000  0.4746560000000 1.0
C      1  0.4574400000000  0.4122030000000  0.4719610000000 1.0
C      1  0.5232960000000  0.4516330000000  0.5552760000000 1.0
C      1  0.5454610000000  0.5281400000000  0.5559170000000 1.0
C      1  0.4754140000000  0.5423560000000  0.5475510000000 1.0
C      1  0.4594160000000  0.4741280000000  0.5515430000000 1.0
C      1  0.4740610000000  0.4530170000000  0.4447490000000 1.0
C      1  0.4530810000000  0.5263530000000  0.4471490000000 1.0
C      1  0.5165980000000  0.5482360000000  0.4470500000000 1.0
C      1  0.5479900000000  0.4763480000000  0.4424880000000 1.0
C      1  0.5150370000000  0.4406180000000  0.4220020000000 1.0
C      1  0.5625260000000  0.5165580000000  0.4272840000000 1.0
C      1  0.4853040000000  0.5605040000000  0.4256040000000 1.0
C      1  0.4389060000000  0.4833610000000  0.4226850000000 1.0
C      1  0.4807670000000  0.4421950000000  0.5708390000000 1.0
C      1  0.4398010000000  0.5197260000000  0.5756520000000 1.0
C      1  0.5136590000000  0.5626270000000  0.5769380000000 1.0
C      1  0.5575920000000  0.4866570000000  0.5750410000000 1.0
C      1  0.5347710000000  0.4622270000000  0.5811630000000 1.0
C      1  0.5386300000000  0.5419440000000  0.5819800000000 1.0
C      1  0.4632120000000  0.5441950000000  0.5737460000000 1.0
C      1  0.4588820000000  0.4668200000000  0.5805750000000 1.0
C      1  0.4612870000000  0.4582040000000  0.4177160000000 1.0
C      1  0.4571720000000  0.5420380000000  0.4202710000000 1.0
C      1  0.5451340000000  0.5419830000000  0.4282340000000 1.0
C      1  0.5382320000000  0.4648310000000  0.4157980000000 1.0
C      1  0.5009140000000  0.5311630000000  0.5759510000000 1.0
C      1  0.4705390000000  0.5052690000000  0.5733930000000 1.0
C      1  0.4969080000000  0.4753380000000  0.5730870000000 1.0
C      1  0.5270220000000  0.5009650000000  0.5784480000000 1.0
C      1  0.4933900000000  0.5272200000000  0.4232240000000 1.0
C      1  0.5252180000000  0.5031910000000  0.4238720000000 1.0
C      1  0.4992610000000  0.4705690000000  0.4194580000000 1.0
C      1  0.4692070000000  0.4957680000000  0.4272230000000 1.0
C      1  0.4965730000000  0.4992270000000  0.4114050000000 1.0
C      1  0.4980090000000  0.5028380000000  0.5884030000000 1.0
END
