TITL C-2782225-7408-1125 0.00215877414067307 125000 -1097.50998426968 0 0 185 (C1) n - 1
REM
REM in /home/nfs/bkarasulu/CARBON/AIRSS/Generating-Clusters/REBO/Higher-Symm/SD-CG/HFTN-CG
REM
REM
REM
REM
REM
REM ./C.cell (12c818d87b63d06a65506943cc24bca4)
REM
REM compiler GCC version 9.2.1 20190827 (Red Hat 9.2.1-1)
REM options -cpp -mtune=generic -march=x86-64 -g -O0 -fpre-include=/usr/include/finclude/math-vector-fortran.h
REM seed -1900982311 -1519407311 1593370377 -1887968873 797575686 1926698621 512582783 -448156778 641360514 239045638 2027339831 -1116194054 979543358 1445384794 616728466 303852416 -1109277499 1268576467 1913662337 -779318367 1496706782 -1352806353 1707140412 1558801412 645479612 -1147090362 544449965 1726002596 1018500123 1945672390 189212331 -276608768 -1260175343
REM
CELL 1.54180   50.00000   50.00000   50.00000   90.00000   90.00000   90.00000
LATT -1
SFAC C  
C      1  0.4589710000000  0.4392910000000  0.5300120000000 1.0
C      1  0.4208950000000  0.5173080000000  0.5308680000000 1.0
C      1  0.4949880000000  0.5730570000000  0.5428190000000 1.0
C      1  0.5664770000000  0.5293830000000  0.5394520000000 1.0
C      1  0.5456990000000  0.4446710000000  0.5414740000000 1.0
C      1  0.4456280000000  0.5196180000000  0.5532040000000 1.0
C      1  0.5016590000000  0.5482400000000  0.5513130000000 1.0
C      1  0.5479450000000  0.5154440000000  0.5544440000000 1.0
C      1  0.5266850000000  0.4579310000000  0.5568420000000 1.0
C      1  0.4619730000000  0.4582390000000  0.5484490000000 1.0
C      1  0.4858750000000  0.5242790000000  0.4552840000000 1.0
C      1  0.5167630000000  0.5218700000000  0.4605450000000 1.0
C      1  0.5205070000000  0.4926720000000  0.4516940000000 1.0
C      1  0.4944330000000  0.4759740000000  0.4534950000000 1.0
C      1  0.4704720000000  0.4962790000000  0.4547480000000 1.0
C      1  0.4345090000000  0.4200730000000  0.5200290000000 1.0
C      1  0.3997040000000  0.5431250000000  0.5093030000000 1.0
C      1  0.5078800000000  0.6051360000000  0.5127400000000 1.0
C      1  0.6051980000000  0.5252250000000  0.5088050000000 1.0
C      1  0.5571380000000  0.4140310000000  0.5083060000000 1.0
C      1  0.4971870000000  0.4394390000000  0.4177860000000 1.0
C      1  0.4439270000000  0.4824440000000  0.4110080000000 1.0
C      1  0.4702590000000  0.5450890000000  0.4251160000000 1.0
C      1  0.5348130000000  0.5424030000000  0.4213040000000 1.0
C      1  0.5562190000000  0.4767970000000  0.4175450000000 1.0
C      1  0.5919490000000  0.4466890000000  0.5224710000000 1.0
C      1  0.4781420000000  0.3967330000000  0.5261800000000 1.0
C      1  0.3963310000000  0.4881210000000  0.5197210000000 1.0
C      1  0.4557940000000  0.6010660000000  0.5247320000000 1.0
C      1  0.5770200000000  0.5631590000000  0.5208030000000 1.0
C      1  0.4942510000000  0.5957740000000  0.5713600000000 1.0
C      1  0.5881890000000  0.5314570000000  0.5728080000000 1.0
C      1  0.5614220000000  0.4286160000000  0.5741420000000 1.0
C      1  0.4560140000000  0.4224230000000  0.5660990000000 1.0
C      1  0.4147290000000  0.5233530000000  0.5692050000000 1.0
C      1  0.4941610000000  0.5243690000000  0.6035610000000 1.0
C      1  0.5211950000000  0.5124900000000  0.5969940000000 1.0
C      1  0.5216630000000  0.4832740000000  0.6049350000000 1.0
C      1  0.4947380000000  0.4748580000000  0.6040680000000 1.0
C      1  0.4773990000000  0.4990060000000  0.5982740000000 1.0
C      1  0.5578590000000  0.4457400000000  0.4126440000000 1.0
C      1  0.4685900000000  0.4278110000000  0.4182390000000 1.0
C      1  0.4246000000000  0.5087580000000  0.4125520000000 1.0
C      1  0.4845020000000  0.5706190000000  0.4171830000000 1.0
C      1  0.5638610000000  0.5362320000000  0.4124910000000 1.0
C      1  0.5494420000000  0.4474780000000  0.4885120000000 1.0
C      1  0.4558390000000  0.4364700000000  0.4904350000000 1.0
C      1  0.4218390000000  0.5216420000000  0.4842800000000 1.0
C      1  0.4896570000000  0.5753840000000  0.4942840000000 1.0
C      1  0.5724460000000  0.5213660000000  0.4865080000000 1.0
C      1  0.5683230000000  0.5180190000000  0.5886550000000 1.0
C      1  0.5404810000000  0.4411920000000  0.5902430000000 1.0
C      1  0.4604300000000  0.4451550000000  0.5857190000000 1.0
C      1  0.4372450000000  0.5237140000000  0.5916530000000 1.0
C      1  0.5049400000000  0.5679260000000  0.5859150000000 1.0
C      1  0.4719080000000  0.5082890000000  0.5658940000000 1.0
C      1  0.4984810000000  0.5195810000000  0.5516070000000 1.0
C      1  0.5238100000000  0.5065030000000  0.5652030000000 1.0
C      1  0.5102760000000  0.4815120000000  0.5500900000000 1.0
C      1  0.4803680000000  0.4841280000000  0.5483770000000 1.0
C      1  0.5589860000000  0.5205460000000  0.4508040000000 1.0
C      1  0.5423720000000  0.4453360000000  0.4493470000000 1.0
C      1  0.4611400000000  0.4550510000000  0.4465570000000 1.0
C      1  0.4387530000000  0.5196940000000  0.4481960000000 1.0
C      1  0.5017560000000  0.5607000000000  0.4518650000000 1.0
C      1  0.4403560000000  0.4444550000000  0.4220790000000 1.0
C      1  0.4308560000000  0.5403730000000  0.4239680000000 1.0
C      1  0.5155030000000  0.5768660000000  0.4263140000000 1.0
C      1  0.5768030000000  0.5093950000000  0.4273440000000 1.0
C      1  0.5335940000000  0.4260410000000  0.4260530000000 1.0
C      1  0.5805230000000  0.4345290000000  0.4941130000000 1.0
C      1  0.4597180000000  0.4053010000000  0.5023230000000 1.0
C      1  0.3911400000000  0.5126320000000  0.4967210000000 1.0
C      1  0.4766760000000  0.6053320000000  0.4983760000000 1.0
C      1  0.5897920000000  0.5506100000000  0.4921270000000 1.0
C      1  0.5569100000000  0.5053110000000  0.3994770000000 1.0
C      1  0.5255430000000  0.4478640000000  0.4006970000000 1.0
C      1  0.4636940000000  0.4570070000000  0.4001070000000 1.0
C      1  0.4539790000000  0.5240570000000  0.4037520000000 1.0
C      1  0.5101570000000  0.5545590000000  0.4009570000000 1.0
C      1  0.4401100000000  0.5702480000000  0.4664670000000 1.0
C      1  0.5423710000000  0.5737150000000  0.4678940000000 1.0
C      1  0.5981460000000  0.4798370000000  0.4644400000000 1.0
C      1  0.5069270000000  0.4153930000000  0.4681570000000 1.0
C      1  0.4176540000000  0.4747650000000  0.4596510000000 1.0
C      1  0.4821740000000  0.4366030000000  0.5121110000000 1.0
C      1  0.4269520000000  0.4991680000000  0.5067180000000 1.0
C      1  0.4740920000000  0.5728540000000  0.5211970000000 1.0
C      1  0.5576640000000  0.5362480000000  0.5101880000000 1.0
C      1  0.5596450000000  0.4589450000000  0.5173100000000 1.0
C      1  0.4510960000000  0.5514390000000  0.5296480000000 1.0
C      1  0.5343900000000  0.5523690000000  0.5287250000000 1.0
C      1  0.5676000000000  0.4888650000000  0.5285630000000 1.0
C      1  0.5090230000000  0.4380750000000  0.5270490000000 1.0
C      1  0.4330210000000  0.4714640000000  0.5243390000000 1.0
C      1  0.5648520000000  0.4883030000000  0.5848110000000 1.0
C      1  0.5111570000000  0.4343820000000  0.5847110000000 1.0
C      1  0.4425990000000  0.4702910000000  0.5822010000000 1.0
C      1  0.4565300000000  0.5465390000000  0.5856830000000 1.0
C      1  0.5324960000000  0.5570500000000  0.5816370000000 1.0
C      1  0.4883210000000  0.4492700000000  0.5944590000000 1.0
C      1  0.4472380000000  0.4960850000000  0.5947480000000 1.0
C      1  0.4842370000000  0.5486010000000  0.5938460000000 1.0
C      1  0.5433610000000  0.5326490000000  0.5922530000000 1.0
C      1  0.5449030000000  0.4699660000000  0.5960890000000 1.0
C      1  0.4773700000000  0.4817120000000  0.4911730000000 1.0
C      1  0.4723920000000  0.5151090000000  0.4949120000000 1.0
C      1  0.5000870000000  0.5278100000000  0.4961600000000 1.0
C      1  0.5244900000000  0.5040840000000  0.4899630000000 1.0
C      1  0.5076460000000  0.4763300000000  0.4910930000000 1.0
C      1  0.5738770000000  0.4454240000000  0.4431090000000 1.0
C      1  0.4640520000000  0.4104960000000  0.4464930000000 1.0
C      1  0.4069290000000  0.5108630000000  0.4416580000000 1.0
C      1  0.4785400000000  0.5919940000000  0.4430460000000 1.0
C      1  0.5790510000000  0.5525600000000  0.4381630000000 1.0
C      1  0.4262550000000  0.4469840000000  0.4773320000000 1.0
C      1  0.4221710000000  0.5551970000000  0.4859010000000 1.0
C      1  0.5221520000000  0.5845840000000  0.4885080000000 1.0
C      1  0.5979470000000  0.5007000000000  0.4856980000000 1.0
C      1  0.5309640000000  0.4189210000000  0.4862030000000 1.0
C      1  0.4193110000000  0.4450900000000  0.4446660000000 1.0
C      1  0.4297230000000  0.5663170000000  0.4352100000000 1.0
C      1  0.5390700000000  0.5900260000000  0.4403610000000 1.0
C      1  0.5974710000000  0.4904450000000  0.4388710000000 1.0
C      1  0.5161070000000  0.4073840000000  0.4377850000000 1.0
C      1  0.4622370000000  0.4866230000000  0.5205180000000 1.0
C      1  0.4597660000000  0.5205340000000  0.5234100000000 1.0
C      1  0.5177490000000  0.5242410000000  0.5238290000000 1.0
C      1  0.5374190000000  0.4970000000000  0.5207300000000 1.0
C      1  0.5177860000000  0.4690900000000  0.5197810000000 1.0
C      1  0.5993590000000  0.5244260000000  0.5411780000000 1.0
C      1  0.5541740000000  0.4129720000000  0.5422370000000 1.0
C      1  0.4308190000000  0.4214170000000  0.5520010000000 1.0
C      1  0.4045920000000  0.5435760000000  0.5431080000000 1.0
C      1  0.5145750000000  0.6037600000000  0.5461100000000 1.0
C      1  0.5887330000000  0.4529120000000  0.4666480000000 1.0
C      1  0.4760840000000  0.4072700000000  0.4723940000000 1.0
C      1  0.3952550000000  0.4971190000000  0.4673630000000 1.0
C      1  0.4649370000000  0.5930100000000  0.4686040000000 1.0
C      1  0.5728170000000  0.5595850000000  0.4649120000000 1.0
C      1  0.5379740000000  0.5442530000000  0.4526710000000 1.0
C      1  0.5493130000000  0.4774950000000  0.4502020000000 1.0
C      1  0.5024700000000  0.4430430000000  0.4500580000000 1.0
C      1  0.4399760000000  0.4886330000000  0.4434620000000 1.0
C      1  0.4636240000000  0.5497570000000  0.4563960000000 1.0
C      1  0.5065610000000  0.4214450000000  0.5569270000000 1.0
C      1  0.4235040000000  0.4697680000000  0.5570100000000 1.0
C      1  0.4493670000000  0.5639960000000  0.5613400000000 1.0
C      1  0.5471970000000  0.5669840000000  0.5563500000000 1.0
C      1  0.5788800000000  0.4791150000000  0.5593630000000 1.0
C      1  0.5622600000000  0.5878900000000  0.5181620000000 1.0
C      1  0.6110330000000  0.4680070000000  0.5205940000000 1.0
C      1  0.5037700000000  0.3890520000000  0.5190900000000 1.0
C      1  0.3952550000000  0.4596740000000  0.5154110000000 1.0
C      1  0.4282190000000  0.5931050000000  0.5194550000000 1.0
C      1  0.4058840000000  0.4955050000000  0.5515440000000 1.0
C      1  0.4656840000000  0.5908870000000  0.5556290000000 1.0
C      1  0.5790320000000  0.5571820000000  0.5534440000000 1.0
C      1  0.5773760000000  0.4482920000000  0.5514400000000 1.0
C      1  0.4776470000000  0.4108760000000  0.5512750000000 1.0
C      1  0.5055870000000  0.5249120000000  0.3846190000000 1.0
C      1  0.5292770000000  0.5005320000000  0.3815610000000 1.0
C      1  0.5145800000000  0.4741440000000  0.3844660000000 1.0
C      1  0.4849570000000  0.4781400000000  0.3853890000000 1.0
C      1  0.4772120000000  0.5077900000000  0.3869680000000 1.0
C      1  0.5219670000000  0.4559110000000  0.4740370000000 1.0
C      1  0.4633950000000  0.4609570000000  0.4733650000000 1.0
C      1  0.4521230000000  0.5264970000000  0.4760560000000 1.0
C      1  0.4998870000000  0.5530900000000  0.4785670000000 1.0
C      1  0.5528730000000  0.4990360000000  0.4740910000000 1.0
C      1  0.5239180000000  0.4120970000000  0.5162500000000 1.0
C      1  0.4211160000000  0.4457420000000  0.5078710000000 1.0
C      1  0.4255260000000  0.5644870000000  0.5162770000000 1.0
C      1  0.5336460000000  0.5829960000000  0.5178150000000 1.0
C      1  0.5973660000000  0.4929200000000  0.5167270000000 1.0
C      1  0.4872980000000  0.5171370000000  0.4244450000000 1.0
C      1  0.5162480000000  0.5177710000000  0.4148600000000 1.0
C      1  0.5265200000000  0.4890420000000  0.4196140000000 1.0
C      1  0.5002680000000  0.4707290000000  0.4215030000000 1.0
C      1  0.4736300000000  0.4888490000000  0.4220130000000 1.0
C      1  0.5418530000000  0.5978920000000  0.5538430000000 1.0
C      1  0.6054790000000  0.4962260000000  0.5556450000000 1.0
C      1  0.5294810000000  0.3995840000000  0.5537040000000 1.0
C      1  0.4124140000000  0.4405240000000  0.5594320000000 1.0
C      1  0.4179430000000  0.5667740000000  0.5554370000000 1.0
END
