TITL C-2782237-5345-1390 4.86997893521017e-05 125000 -254.062695187554 0 0 44 (Ci) n - 1
REM
REM in /home/nfs/bkarasulu/CARBON/AIRSS/Generating-Clusters/REBO/Higher-Symm/SD-CG/HFTN-CG
REM
REM
REM
REM
REM
REM ./C.cell (12c818d87b63d06a65506943cc24bca4)
REM
REM compiler GCC version 9.2.1 20190827 (Red Hat 9.2.1-1)
REM options -cpp -mtune=generic -march=x86-64 -g -O0 -fpre-include=/usr/include/finclude/math-vector-fortran.h
REM seed -986916041 254466762 -2092054476 -851866069 -2104711648 244456250 425183527 395620687 -992091163 1151845073 -1131124159 2107338651 -528773233 234795656 -1194643775 -440935466 1421168612 2086142559 820429646 1223223358 -1537788779 436003150 -2114998314 -2074328265 -1220542325 -886726778 -879445424 -432099430 -1751792449 -768030184 -1960265367 672102898 497429832
REM
CELL 1.54180   50.00000   50.00000   50.00000   90.00000   90.00000   90.00000
LATT -1
SFAC C  
C      1  0.4830720000000  0.5299750000000  0.4736350000000 1.0
C      1  0.5158500000000  0.5298170000000  0.5273860000000 1.0
C      1  0.4841500000000  0.4701830000000  0.4726140000000 1.0
C      1  0.5169280000000  0.4700250000000  0.5263650000000 1.0
C      1  0.5423550000000  0.4838300000000  0.5134570000000 1.0
C      1  0.4577980000000  0.4823940000000  0.4858220000000 1.0
C      1  0.5422020000000  0.5176060000000  0.5141780000000 1.0
C      1  0.4576450000000  0.5161700000000  0.4865430000000 1.0
C      1  0.4287040000000  0.5082280000000  0.4775680000000 1.0
C      1  0.5721390000000  0.5244230000000  0.5234360000000 1.0
C      1  0.4278610000000  0.4755770000000  0.4765640000000 1.0
C      1  0.5712960000000  0.4917720000000  0.5224320000000 1.0
C      1  0.6253970000000  0.5280170000000  0.5397080000000 1.0
C      1  0.3763600000000  0.5279880000000  0.4621110000000 1.0
C      1  0.6236400000000  0.4720120000000  0.5378890000000 1.0
C      1  0.3746030000000  0.4719830000000  0.4602920000000 1.0
C      1  0.5998380000000  0.4852070000000  0.5309570000000 1.0
C      1  0.3994930000000  0.4829670000000  0.4681100000000 1.0
C      1  0.6005070000000  0.5170330000000  0.5318900000000 1.0
C      1  0.4001620000000  0.5147930000000  0.4690430000000 1.0
C      1  0.5359920000000  0.4209580000000  0.4922150000000 1.0
C      1  0.4672290000000  0.4192840000000  0.5051500000000 1.0
C      1  0.5327710000000  0.5807160000000  0.4948500000000 1.0
C      1  0.4640080000000  0.5790420000000  0.5077850000000 1.0
C      1  0.4724760000000  0.4690890000000  0.5107910000000 1.0
C      1  0.5286140000000  0.4706500000000  0.4881750000000 1.0
C      1  0.4713860000000  0.5293500000000  0.5118250000000 1.0
C      1  0.5275240000000  0.5309110000000  0.4892090000000 1.0
C      1  0.6468500000000  0.4851970000000  0.5452470000000 1.0
C      1  0.3523340000000  0.4871200000000  0.4538700000000 1.0
C      1  0.6476660000000  0.5128800000000  0.5461300000000 1.0
C      1  0.3531500000000  0.5148030000000  0.4547530000000 1.0
C      1  0.4923620000000  0.5133400000000  0.5234330000000 1.0
C      1  0.5072590000000  0.5143990000000  0.4770800000000 1.0
C      1  0.4927410000000  0.4856010000000  0.5229200000000 1.0
C      1  0.5076380000000  0.4866600000000  0.4765670000000 1.0
C      1  0.4785560000000  0.5573950000000  0.5147610000000 1.0
C      1  0.5191600000000  0.5587010000000  0.4871680000000 1.0
C      1  0.4808400000000  0.4412990000000  0.5128320000000 1.0
C      1  0.5214440000000  0.4426050000000  0.4852390000000 1.0
C      1  0.5084220000000  0.4423970000000  0.5230740000000 1.0
C      1  0.4938270000000  0.4428500000000  0.4750310000000 1.0
C      1  0.5061730000000  0.5571500000000  0.5249690000000 1.0
C      1  0.4915780000000  0.5576030000000  0.4769260000000 1.0
END
