TITL C-2782234-8014-209 -0.00392452872778822 125000 -1030.10722948727 0 0 181 (C1) n - 1
REM
REM in /home/nfs/bkarasulu/CARBON/AIRSS/Generating-Clusters/REBO/Higher-Symm/SD-CG/HFTN-CG
REM
REM
REM
REM
REM
REM ./C.cell (12c818d87b63d06a65506943cc24bca4)
REM
REM compiler GCC version 9.2.1 20190827 (Red Hat 9.2.1-1)
REM options -cpp -mtune=generic -march=x86-64 -g -O0 -fpre-include=/usr/include/finclude/math-vector-fortran.h
REM seed 1096124266 -1001315056 -830853457 -1545382652 1077600058 1447246104 316671455 -1223980759 -1088141427 -840847997 -1281625668 -1789064690 -119793808 1337528294 559556936 872404099 276512577 -264088608 -332840512 901706621 277411438 1370520995 1963566990 -216366052 1675915959 548846893 -418857812 563018605 695655944 -633327913 1165964234 -915236440 683606800
REM
CELL 1.54180   50.00000   50.00000   50.00000   90.00000   90.00000   90.00000
LATT -1
SFAC C  
C      1  0.5007950000000  0.5588370000000  0.5093870000000 1.0
C      1  0.5183370000000  0.5644310000000  0.4495210000000 1.0
C      1  0.4813970000000  0.5155930000000  0.4984490000000 1.0
C      1  0.5269460000000  0.5040130000000  0.3993730000000 1.0
C      1  0.5456660000000  0.4603530000000  0.3849370000000 1.0
C      1  0.5925780000000  0.4653950000000  0.5292390000000 1.0
C      1  0.5312550000000  0.4331660000000  0.4582830000000 1.0
C      1  0.4499420000000  0.5512320000000  0.4893040000000 1.0
C      1  0.4825830000000  0.5068290000000  0.4525810000000 1.0
C      1  0.4200930000000  0.5585850000000  0.5451790000000 1.0
C      1  0.4676140000000  0.5693180000000  0.4170230000000 1.0
C      1  0.5607660000000  0.4668070000000  0.5679870000000 1.0
C      1  0.4374070000000  0.4750650000000  0.4567320000000 1.0
C      1  0.5330340000000  0.5789480000000  0.4749400000000 1.0
C      1  0.5159620000000  0.4042040000000  0.4489100000000 1.0
C      1  0.4532350000000  0.4892490000000  0.4139750000000 1.0
C      1  0.4040720000000  0.5255100000000  0.4514690000000 1.0
C      1  0.4760980000000  0.4799500000000  0.4379150000000 1.0
C      1  0.5705250000000  0.4483620000000  0.4240070000000 1.0
C      1  0.4659790000000  0.5249340000000  0.5239980000000 1.0
C      1  0.4265230000000  0.5394120000000  0.4328210000000 1.0
C      1  0.5670700000000  0.5446360000000  0.4240730000000 1.0
C      1  0.4320530000000  0.5148260000000  0.5887310000000 1.0
C      1  0.5258660000000  0.6114170000000  0.4793280000000 1.0
C      1  0.5700330000000  0.5674440000000  0.5349950000000 1.0
C      1  0.4429350000000  0.5692660000000  0.4340140000000 1.0
C      1  0.4079930000000  0.4587020000000  0.5175200000000 1.0
C      1  0.5069750000000  0.4413030000000  0.4991010000000 1.0
C      1  0.4741910000000  0.5493560000000  0.6003590000000 1.0
C      1  0.4675520000000  0.4224060000000  0.5445160000000 1.0
C      1  0.4997590000000  0.5244700000000  0.3971000000000 1.0
C      1  0.5310920000000  0.4683580000000  0.4395540000000 1.0
C      1  0.4603360000000  0.5339130000000  0.4335270000000 1.0
C      1  0.5189030000000  0.4424230000000  0.3958940000000 1.0
C      1  0.5340350000000  0.6006690000000  0.5338130000000 1.0
C      1  0.5860720000000  0.4851010000000  0.5551650000000 1.0
C      1  0.5281430000000  0.4048500000000  0.5235220000000 1.0
C      1  0.4783130000000  0.5916970000000  0.5397990000000 1.0
C      1  0.6144760000000  0.4326750000000  0.5225530000000 1.0
C      1  0.5007150000000  0.5298500000000  0.6053980000000 1.0
C      1  0.3951540000000  0.4726260000000  0.5359130000000 1.0
C      1  0.3812950000000  0.4894460000000  0.5570920000000 1.0
C      1  0.4826320000000  0.6068680000000  0.5110840000000 1.0
C      1  0.5007750000000  0.5557050000000  0.4780900000000 1.0
C      1  0.5140650000000  0.4782620000000  0.5401670000000 1.0
C      1  0.4360260000000  0.4582780000000  0.4979900000000 1.0
C      1  0.6251970000000  0.4519850000000  0.5104570000000 1.0
C      1  0.4988080000000  0.5148370000000  0.5442180000000 1.0
C      1  0.5722560000000  0.5123110000000  0.5021000000000 1.0
C      1  0.5387170000000  0.4441130000000  0.4207890000000 1.0
C      1  0.4512150000000  0.5512630000000  0.4616720000000 1.0
C      1  0.4920070000000  0.5818140000000  0.5660500000000 1.0
C      1  0.4502300000000  0.4139130000000  0.5164820000000 1.0
C      1  0.4797830000000  0.4473270000000  0.4154500000000 1.0
C      1  0.4839210000000  0.4783100000000  0.5560100000000 1.0
C      1  0.5216900000000  0.5181960000000  0.4294130000000 1.0
C      1  0.5917650000000  0.5050740000000  0.5284090000000 1.0
C      1  0.3927630000000  0.5199390000000  0.5609920000000 1.0
C      1  0.5420060000000  0.4314850000000  0.5684760000000 1.0
C      1  0.4058280000000  0.5313920000000  0.4793760000000 1.0
C      1  0.4370940000000  0.4950770000000  0.5408710000000 1.0
C      1  0.4985350000000  0.4419460000000  0.5888670000000 1.0
C      1  0.5564910000000  0.4939440000000  0.5885400000000 1.0
C      1  0.5404970000000  0.5178100000000  0.6067470000000 1.0
C      1  0.4392890000000  0.4666220000000  0.4298070000000 1.0
C      1  0.4096360000000  0.4692130000000  0.4700120000000 1.0
C      1  0.5776670000000  0.5525500000000  0.4633050000000 1.0
C      1  0.5940430000000  0.5050410000000  0.4527920000000 1.0
C      1  0.5542740000000  0.5018240000000  0.4508490000000 1.0
C      1  0.4980090000000  0.4077580000000  0.5398550000000 1.0
C      1  0.5716410000000  0.5760990000000  0.4847320000000 1.0
C      1  0.5619030000000  0.4688450000000  0.5164910000000 1.0
C      1  0.4323880000000  0.5058980000000  0.4321550000000 1.0
C      1  0.5193600000000  0.5713820000000  0.5734520000000 1.0
C      1  0.6018280000000  0.5078170000000  0.4859290000000 1.0
C      1  0.4516010000000  0.5300100000000  0.5739680000000 1.0
C      1  0.5212420000000  0.5338220000000  0.5044350000000 1.0
C      1  0.4725390000000  0.4570930000000  0.4590280000000 1.0
C      1  0.4325690000000  0.4910870000000  0.5069900000000 1.0
C      1  0.5132440000000  0.4809720000000  0.4919520000000 1.0
C      1  0.4090660000000  0.5021380000000  0.5820490000000 1.0
C      1  0.5310340000000  0.4849910000000  0.6092030000000 1.0
C      1  0.4627160000000  0.5955800000000  0.4852590000000 1.0
C      1  0.4749520000000  0.4834380000000  0.5983500000000 1.0
C      1  0.5636040000000  0.4702690000000  0.4039560000000 1.0
C      1  0.5018960000000  0.4574390000000  0.4696620000000 1.0
C      1  0.4062100000000  0.5550120000000  0.5199030000000 1.0
C      1  0.5140200000000  0.5453230000000  0.5442830000000 1.0
C      1  0.4416880000000  0.5739940000000  0.5111760000000 1.0
C      1  0.4846140000000  0.5795570000000  0.4645070000000 1.0
C      1  0.4734000000000  0.5720430000000  0.5860260000000 1.0
C      1  0.4026480000000  0.5499700000000  0.5651610000000 1.0
C      1  0.4514920000000  0.5116580000000  0.4886310000000 1.0
C      1  0.5105970000000  0.4741940000000  0.3981750000000 1.0
C      1  0.5573220000000  0.5071330000000  0.5317490000000 1.0
C      1  0.5223620000000  0.4142600000000  0.4852200000000 1.0
C      1  0.5034440000000  0.4410570000000  0.4398070000000 1.0
C      1  0.5352590000000  0.4578080000000  0.5890140000000 1.0
C      1  0.3801550000000  0.5121330000000  0.5030910000000 1.0
C      1  0.5471950000000  0.5056700000000  0.5603840000000 1.0
C      1  0.4274580000000  0.4198970000000  0.4908770000000 1.0
C      1  0.5999540000000  0.4143020000000  0.4781120000000 1.0
C      1  0.5576180000000  0.4543900000000  0.4541410000000 1.0
C      1  0.4641360000000  0.4831920000000  0.5136560000000 1.0
C      1  0.5533080000000  0.4229510000000  0.5385080000000 1.0
C      1  0.5361540000000  0.5435660000000  0.4358690000000 1.0
C      1  0.5245730000000  0.5320780000000  0.4723530000000 1.0
C      1  0.4917570000000  0.4457980000000  0.5497500000000 1.0
C      1  0.5085240000000  0.4866180000000  0.4299410000000 1.0
C      1  0.4108640000000  0.5583290000000  0.4911840000000 1.0
C      1  0.5552540000000  0.4973190000000  0.4170030000000 1.0
C      1  0.5860570000000  0.4330260000000  0.5377880000000 1.0
C      1  0.4936540000000  0.6080170000000  0.4784630000000 1.0
C      1  0.4451780000000  0.4262130000000  0.4488890000000 1.0
C      1  0.4669480000000  0.4101700000000  0.4588460000000 1.0
C      1  0.5847560000000  0.5191610000000  0.5579450000000 1.0
C      1  0.5089730000000  0.5082130000000  0.5143110000000 1.0
C      1  0.4336130000000  0.4665660000000  0.5545730000000 1.0
C      1  0.4518010000000  0.5033940000000  0.4602700000000 1.0
C      1  0.5080640000000  0.4723350000000  0.5792070000000 1.0
C      1  0.6011770000000  0.5370010000000  0.4586880000000 1.0
C      1  0.6105170000000  0.4799630000000  0.5036580000000 1.0
C      1  0.4557090000000  0.4457730000000  0.5665830000000 1.0
C      1  0.5258550000000  0.5447020000000  0.5938290000000 1.0
C      1  0.5140370000000  0.5832680000000  0.5169940000000 1.0
C      1  0.4303200000000  0.5851360000000  0.4831500000000 1.0
C      1  0.4455960000000  0.4513290000000  0.5288560000000 1.0
C      1  0.4818160000000  0.5494800000000  0.5340680000000 1.0
C      1  0.4041050000000  0.4942370000000  0.4472670000000 1.0
C      1  0.4987310000000  0.4207640000000  0.4127130000000 1.0
C      1  0.5117240000000  0.4233040000000  0.5668910000000 1.0
C      1  0.5809360000000  0.4746000000000  0.4925600000000 1.0
C      1  0.5419510000000  0.4630040000000  0.5400820000000 1.0
C      1  0.4524100000000  0.5500330000000  0.5520000000000 1.0
C      1  0.4711780000000  0.4111420000000  0.4916400000000 1.0
C      1  0.5756470000000  0.4366630000000  0.5681020000000 1.0
C      1  0.5484390000000  0.3990610000000  0.4965890000000 1.0
C      1  0.4208500000000  0.4292610000000  0.5207880000000 1.0
C      1  0.5020830000000  0.4966860000000  0.6101110000000 1.0
C      1  0.4230220000000  0.4375620000000  0.4669820000000 1.0
C      1  0.5355130000000  0.5357960000000  0.5653990000000 1.0
C      1  0.4369190000000  0.5303240000000  0.5133600000000 1.0
C      1  0.4911330000000  0.5255610000000  0.4303600000000 1.0
C      1  0.5850470000000  0.5630310000000  0.5104360000000 1.0
C      1  0.5155210000000  0.6162280000000  0.5104250000000 1.0
C      1  0.4788250000000  0.4764110000000  0.3976940000000 1.0
C      1  0.4905750000000  0.5756140000000  0.4332840000000 1.0
C      1  0.4913110000000  0.4730010000000  0.5171910000000 1.0
C      1  0.5460750000000  0.5644380000000  0.5021950000000 1.0
C      1  0.5479170000000  0.5377370000000  0.5209060000000 1.0
C      1  0.4162300000000  0.5198960000000  0.5360580000000 1.0
C      1  0.5378440000000  0.5704540000000  0.5460090000000 1.0
C      1  0.5012840000000  0.5090560000000  0.4752050000000 1.0
C      1  0.4594450000000  0.4422840000000  0.4825790000000 1.0
C      1  0.4726620000000  0.5082500000000  0.3872170000000 1.0
C      1  0.5949420000000  0.5368270000000  0.5028140000000 1.0
C      1  0.5164220000000  0.4998550000000  0.5646120000000 1.0
C      1  0.5792800000000  0.5180720000000  0.4249990000000 1.0
C      1  0.4715100000000  0.5158300000000  0.5947270000000 1.0
C      1  0.5768820000000  0.4145660000000  0.4891940000000 1.0
C      1  0.5533480000000  0.4310680000000  0.5069240000000 1.0
C      1  0.3879210000000  0.5297350000000  0.5225870000000 1.0
C      1  0.5369920000000  0.4578410000000  0.5008400000000 1.0
C      1  0.4750700000000  0.4449770000000  0.5123850000000 1.0
C      1  0.5773620000000  0.5862440000000  0.4483760000000 1.0
C      1  0.4076930000000  0.4728070000000  0.5708330000000 1.0
C      1  0.5796210000000  0.5695230000000  0.4261640000000 1.0
C      1  0.4691320000000  0.5395120000000  0.4006790000000 1.0
C      1  0.5567420000000  0.6020480000000  0.4684270000000 1.0
C      1  0.4537610000000  0.5775560000000  0.5358570000000 1.0
C      1  0.4051190000000  0.4979160000000  0.4882680000000 1.0
C      1  0.5542890000000  0.5332780000000  0.4600980000000 1.0
C      1  0.4722970000000  0.4566850000000  0.5875470000000 1.0
C      1  0.5750190000000  0.4791830000000  0.4643700000000 1.0
C      1  0.5374000000000  0.4901120000000  0.4722220000000 1.0
C      1  0.5181200000000  0.4406030000000  0.5315170000000 1.0
C      1  0.4518060000000  0.4423480000000  0.4269030000000 1.0
C      1  0.4668970000000  0.5034340000000  0.5478260000000 1.0
C      1  0.4980950000000  0.4031380000000  0.5060310000000 1.0
C      1  0.4882330000000  0.4042500000000  0.4407190000000 1.0
C      1  0.5640170000000  0.5408370000000  0.5519300000000 1.0
END
