TITL C-2782234-8014-491 0.000868377999696149 125000 -267.182637114217 0 0 44 (C1) n - 1
REM
REM in /home/nfs/bkarasulu/CARBON/AIRSS/Generating-Clusters/REBO/Higher-Symm/SD-CG/HFTN-CG
REM
REM
REM
REM
REM
REM ./C.cell (12c818d87b63d06a65506943cc24bca4)
REM
REM compiler GCC version 9.2.1 20190827 (Red Hat 9.2.1-1)
REM options -cpp -mtune=generic -march=x86-64 -g -O0 -fpre-include=/usr/include/finclude/math-vector-fortran.h
REM seed 2011325410 969676736 -1625144045 -188772675 -726893484 2048891263 -1703213038 -1703689217 -1182490866 1658042700 255727619 1434151034 1078007551 2135139110 -406962471 1345116816 834435957 -1988962548 1518659383 -1192323091 1366576294 1254988086 -390623081 -81213902 -2085608811 106705137 -389891905 -1956503405 -1352611116 -1141890018 1712736253 -369349798 -824183142
REM
CELL 1.54180   50.00000   50.00000   50.00000   90.00000   90.00000   90.00000
LATT -1
SFAC C  
C      1  0.4484150000000  0.5658140000000  0.5005590000000 1.0
C      1  0.4530660000000  0.5622700000000  0.5319020000000 1.0
C      1  0.4784730000000  0.5518040000000  0.5462770000000 1.0
C      1  0.5081710000000  0.5582120000000  0.5447970000000 1.0
C      1  0.5276850000000  0.5726250000000  0.5306520000000 1.0
C      1  0.5404820000000  0.5611280000000  0.5079900000000 1.0
C      1  0.5397040000000  0.5724960000000  0.4816610000000 1.0
C      1  0.5299650000000  0.5584210000000  0.4589760000000 1.0
C      1  0.5023430000000  0.5501180000000  0.4481470000000 1.0
C      1  0.4751530000000  0.5587470000000  0.4598800000000 1.0
C      1  0.4591140000000  0.5750530000000  0.4762040000000 1.0
C      1  0.4587130000000  0.4881330000000  0.4877080000000 1.0
C      1  0.4633310000000  0.4767610000000  0.5184240000000 1.0
C      1  0.4769760000000  0.4876390000000  0.5403050000000 1.0
C      1  0.4961430000000  0.4711390000000  0.5528250000000 1.0
C      1  0.5254140000000  0.4677290000000  0.5425750000000 1.0
C      1  0.5371650000000  0.4880890000000  0.5266120000000 1.0
C      1  0.5487320000000  0.4805700000000  0.5018560000000 1.0
C      1  0.5437610000000  0.4759980000000  0.4756230000000 1.0
C      1  0.5230300000000  0.4680460000000  0.4580290000000 1.0
C      1  0.5008130000000  0.4859260000000  0.4548550000000 1.0
C      1  0.4760820000000  0.4757270000000  0.4631170000000 1.0
C      1  0.5320200000000  0.5277050000000  0.4615140000000 1.0
C      1  0.5024520000000  0.5157830000000  0.4537900000000 1.0
C      1  0.4742610000000  0.5285990000000  0.4656430000000 1.0
C      1  0.4573110000000  0.5174840000000  0.4846410000000 1.0
C      1  0.4463240000000  0.5347830000000  0.5039350000000 1.0
C      1  0.4491220000000  0.5288630000000  0.5338590000000 1.0
C      1  0.4778080000000  0.5171940000000  0.5444140000000 1.0
C      1  0.5094880000000  0.5274730000000  0.5430780000000 1.0
C      1  0.5312670000000  0.5159320000000  0.5291850000000 1.0
C      1  0.5435780000000  0.5323300000000  0.5088530000000 1.0
C      1  0.5476010000000  0.5195350000000  0.4835700000000 1.0
C      1  0.4594260000000  0.4460580000000  0.5166260000000 1.0
C      1  0.4739760000000  0.4298910000000  0.5345030000000 1.0
C      1  0.4971970000000  0.4400750000000  0.5473870000000 1.0
C      1  0.5273880000000  0.4365780000000  0.5388390000000 1.0
C      1  0.5411350000000  0.4210720000000  0.5205050000000 1.0
C      1  0.5447090000000  0.4159600000000  0.4942280000000 1.0
C      1  0.5368660000000  0.4224900000000  0.4691780000000 1.0
C      1  0.5188210000000  0.4394440000000  0.4555630000000 1.0
C      1  0.4918510000000  0.4306910000000  0.4518370000000 1.0
C      1  0.4706210000000  0.4458180000000  0.4623630000000 1.0
C      1  0.4540470000000  0.4537990000000  0.4875150000000 1.0
END
