TITL C-2782227-3064-1282 0.00690996611009482 125000 -505.049529590321 0 0 89 (C1) n - 1
REM
REM in /home/nfs/bkarasulu/CARBON/AIRSS/Generating-Clusters/REBO/Higher-Symm/SD-CG/HFTN-CG
REM
REM
REM
REM
REM
REM ./C.cell (12c818d87b63d06a65506943cc24bca4)
REM
REM compiler GCC version 9.2.1 20190827 (Red Hat 9.2.1-1)
REM options -cpp -mtune=generic -march=x86-64 -g -O0 -fpre-include=/usr/include/finclude/math-vector-fortran.h
REM seed -1739140687 -745348985 917179649 -67093448 -1409575601 649074346 -842883983 -177313855 -2077210895 -1455120427 1622190625 175360120 2106461982 -651799063 2108113108 -1067077002 2078304560 1570873890 2072758030 -1828214659 -1574481756 237776249 -193550056 996601404 -1681023855 706023672 -1553942689 -1849566317 1410670545 56281284 733146606 -1690831405 -1397807051
REM
CELL 1.54180   50.00000   50.00000   50.00000   90.00000   90.00000   90.00000
LATT -1
SFAC C  
C      1  0.4512550000000  0.5043020000000  0.5690710000000 1.0
C      1  0.5445780000000  0.5070310000000  0.5740060000000 1.0
C      1  0.5733740000000  0.5129650000000  0.4668440000000 1.0
C      1  0.4995640000000  0.5048910000000  0.4108680000000 1.0
C      1  0.4187330000000  0.5102420000000  0.4756220000000 1.0
C      1  0.4740450000000  0.5219920000000  0.4111160000000 1.0
C      1  0.4114870000000  0.5259940000000  0.5005100000000 1.0
C      1  0.4804320000000  0.5174090000000  0.5769190000000 1.0
C      1  0.5661870000000  0.5156130000000  0.5516310000000 1.0
C      1  0.5632040000000  0.5299060000000  0.4434720000000 1.0
C      1  0.5250390000000  0.4374250000000  0.5448290000000 1.0
C      1  0.5487560000000  0.4421680000000  0.4891470000000 1.0
C      1  0.5005530000000  0.4345820000000  0.4524130000000 1.0
C      1  0.4526540000000  0.4349700000000  0.4856710000000 1.0
C      1  0.4675050000000  0.4343190000000  0.5398560000000 1.0
C      1  0.5825990000000  0.4950480000000  0.4948970000000 1.0
C      1  0.5311780000000  0.4916670000000  0.4128830000000 1.0
C      1  0.4298790000000  0.4972750000000  0.4459870000000 1.0
C      1  0.4316290000000  0.4765710000000  0.5651770000000 1.0
C      1  0.5272010000000  0.4794600000000  0.5845140000000 1.0
C      1  0.4425180000000  0.4708950000000  0.4483250000000 1.0
C      1  0.4402980000000  0.4815150000000  0.5344130000000 1.0
C      1  0.4975130000000  0.4536710000000  0.5784240000000 1.0
C      1  0.5724810000000  0.4612050000000  0.5278500000000 1.0
C      1  0.5314240000000  0.4690520000000  0.4301090000000 1.0
C      1  0.5481190000000  0.5178840000000  0.4220380000000 1.0
C      1  0.4463200000000  0.5218380000000  0.4294470000000 1.0
C      1  0.4233600000000  0.5295820000000  0.5306540000000 1.0
C      1  0.5065990000000  0.5038330000000  0.5861380000000 1.0
C      1  0.5802800000000  0.5162760000000  0.5213500000000 1.0
C      1  0.5165850000000  0.4932030000000  0.5486460000000 1.0
C      1  0.5430040000000  0.4960910000000  0.5000040000000 1.0
C      1  0.5042860000000  0.4992420000000  0.4616050000000 1.0
C      1  0.4592390000000  0.4973500000000  0.4729970000000 1.0
C      1  0.4772860000000  0.5027910000000  0.5082230000000 1.0
C      1  0.4939880000000  0.4821940000000  0.4337930000000 1.0
C      1  0.4335230000000  0.4821310000000  0.4854430000000 1.0
C      1  0.4685570000000  0.4770580000000  0.5642160000000 1.0
C      1  0.5472950000000  0.4824320000000  0.5504150000000 1.0
C      1  0.5525180000000  0.4879440000000  0.4708800000000 1.0
C      1  0.4462640000000  0.5217620000000  0.5441890000000 1.0
C      1  0.5231030000000  0.5321320000000  0.5788440000000 1.0
C      1  0.5712460000000  0.5328800000000  0.4931600000000 1.0
C      1  0.5190530000000  0.5274350000000  0.4243880000000 1.0
C      1  0.4306590000000  0.5352090000000  0.4558450000000 1.0
C      1  0.5622890000000  0.5431360000000  0.5329030000000 1.0
C      1  0.5509870000000  0.5537420000000  0.4532610000000 1.0
C      1  0.4700840000000  0.5458070000000  0.4349620000000 1.0
C      1  0.4288350000000  0.5535420000000  0.5078160000000 1.0
C      1  0.4844090000000  0.5423630000000  0.5636730000000 1.0
C      1  0.5067700000000  0.4508750000000  0.4303480000000 1.0
C      1  0.4339360000000  0.4519670000000  0.4718810000000 1.0
C      1  0.4516840000000  0.4503820000000  0.5565850000000 1.0
C      1  0.5346690000000  0.4552990000000  0.5644310000000 1.0
C      1  0.5679120000000  0.4648750000000  0.4888060000000 1.0
C      1  0.4841130000000  0.4159820000000  0.5217270000000 1.0
C      1  0.5140060000000  0.4172270000000  0.5243210000000 1.0
C      1  0.5259690000000  0.4196840000000  0.4965420000000 1.0
C      1  0.5024410000000  0.4177730000000  0.4775530000000 1.0
C      1  0.4771100000000  0.4173510000000  0.4932000000000 1.0
C      1  0.4965790000000  0.4712450000000  0.5536700000000 1.0
C      1  0.5443920000000  0.4744490000000  0.5196710000000 1.0
C      1  0.5271910000000  0.4772810000000  0.4600190000000 1.0
C      1  0.4736600000000  0.4742920000000  0.4565020000000 1.0
C      1  0.4546340000000  0.4812280000000  0.5092780000000 1.0
C      1  0.4537170000000  0.5630860000000  0.4872880000000 1.0
C      1  0.4758830000000  0.5620120000000  0.5388780000000 1.0
C      1  0.5322180000000  0.5585600000000  0.5366470000000 1.0
C      1  0.5424730000000  0.5650720000000  0.4824740000000 1.0
C      1  0.4946570000000  0.5641950000000  0.4498610000000 1.0
C      1  0.5117440000000  0.5282020000000  0.4512120000000 1.0
C      1  0.4558980000000  0.5236340000000  0.4682330000000 1.0
C      1  0.4691670000000  0.5238100000000  0.5291530000000 1.0
C      1  0.5149180000000  0.5201960000000  0.5506970000000 1.0
C      1  0.5451790000000  0.5227260000000  0.5033700000000 1.0
C      1  0.5180870000000  0.4556440000000  0.4813930000000 1.0
C      1  0.4862950000000  0.4542220000000  0.4763650000000 1.0
C      1  0.4715140000000  0.4551890000000  0.5048880000000 1.0
C      1  0.4931160000000  0.4542970000000  0.5279630000000 1.0
C      1  0.5214420000000  0.4550520000000  0.5146900000000 1.0
C      1  0.4582420000000  0.5651310000000  0.5187420000000 1.0
C      1  0.5071500000000  0.5591230000000  0.5466640000000 1.0
C      1  0.5472500000000  0.5621700000000  0.5089830000000 1.0
C      1  0.5209930000000  0.5666100000000  0.4570380000000 1.0
C      1  0.4666330000000  0.5619150000000  0.4643560000000 1.0
C      1  0.4976610000000  0.5694180000000  0.4893980000000 1.0
C      1  0.5040180000000  0.4905290000000  0.5114100000000 1.0
C      1  0.4952730000000  0.5436060000000  0.4854330000000 1.0
C      1  0.4919910000000  0.5170650000000  0.4841440000000 1.0
END
