TITL C-2782228-2999-71 0.00104930017048374 125000 -788.451561624981 0 0 132 (C1) n - 1
REM
REM in /home/nfs/bkarasulu/CARBON/AIRSS/Generating-Clusters/REBO/Higher-Symm/SD-CG/HFTN-CG
REM
REM
REM
REM
REM
REM ./C.cell (12c818d87b63d06a65506943cc24bca4)
REM
REM compiler GCC version 9.2.1 20190827 (Red Hat 9.2.1-1)
REM options -cpp -mtune=generic -march=x86-64 -g -O0 -fpre-include=/usr/include/finclude/math-vector-fortran.h
REM seed 989901868 631558293 302393033 -412240569 2039944120 -936552659 332660139 -1570929829 -1587977599 -693196235 -139199338 -1931432268 -999012811 -2110228397 983060049 -897240632 1277044229 2030764028 -1289939863 1685220900 -646877306 -823062348 -1483537434 -289296630 -818258087 -884211192 -1431066917 -2029910340 1434761791 -1383902517 268460435 1613162121 -903104893
REM
CELL 1.54180   50.00000   50.00000   50.00000   90.00000   90.00000   90.00000
LATT -1
SFAC C  
C      1  0.5453360000000  0.4788230000000  0.4167080000000 1.0
C      1  0.5470090000000  0.4196360000000  0.5206640000000 1.0
C      1  0.5475720000000  0.5223360000000  0.5858230000000 1.0
C      1  0.5458700000000  0.5808780000000  0.4809830000000 1.0
C      1  0.4065640000000  0.4765610000000  0.5032860000000 1.0
C      1  0.4151220000000  0.5057800000000  0.5153130000000 1.0
C      1  0.4024620000000  0.5235030000000  0.4906690000000 1.0
C      1  0.4033240000000  0.4949550000000  0.4788460000000 1.0
C      1  0.5410100000000  0.5295520000000  0.5186200000000 1.0
C      1  0.5363840000000  0.5183480000000  0.4647510000000 1.0
C      1  0.5369350000000  0.4693260000000  0.4821750000000 1.0
C      1  0.5372470000000  0.4844690000000  0.5369660000000 1.0
C      1  0.4194060000000  0.4892150000000  0.4560380000000 1.0
C      1  0.4192880000000  0.4536620000000  0.5115110000000 1.0
C      1  0.4251990000000  0.5125960000000  0.5447640000000 1.0
C      1  0.4169110000000  0.5462060000000  0.4841240000000 1.0
C      1  0.5633940000000  0.5049690000000  0.4746050000000 1.0
C      1  0.5630550000000  0.4807810000000  0.4957740000000 1.0
C      1  0.5633820000000  0.4964270000000  0.5236410000000 1.0
C      1  0.5654770000000  0.5200940000000  0.5016210000000 1.0
C      1  0.4601980000000  0.4814530000000  0.5182350000000 1.0
C      1  0.4485550000000  0.5115040000000  0.5125840000000 1.0
C      1  0.4600960000000  0.5179560000000  0.4830280000000 1.0
C      1  0.4609540000000  0.4848520000000  0.4856640000000 1.0
C      1  0.4878410000000  0.4706640000000  0.4787990000000 1.0
C      1  0.4874710000000  0.4787420000000  0.5319750000000 1.0
C      1  0.4928630000000  0.5309380000000  0.5248530000000 1.0
C      1  0.4871400000000  0.5234120000000  0.4690000000000 1.0
C      1  0.4373180000000  0.4407100000000  0.4667770000000 1.0
C      1  0.4348500000000  0.4632570000000  0.5608220000000 1.0
C      1  0.4394400000000  0.5653070000000  0.5262470000000 1.0
C      1  0.4355700000000  0.5335180000000  0.4389850000000 1.0
C      1  0.5063790000000  0.4177620000000  0.4466260000000 1.0
C      1  0.5051420000000  0.4472600000000  0.5824840000000 1.0
C      1  0.5084000000000  0.5822700000000  0.5546300000000 1.0
C      1  0.5052630000000  0.5535290000000  0.4163250000000 1.0
C      1  0.4786680000000  0.5928610000000  0.5475610000000 1.0
C      1  0.4761350000000  0.5458410000000  0.4042110000000 1.0
C      1  0.4777540000000  0.4060110000000  0.4541320000000 1.0
C      1  0.4761260000000  0.4527490000000  0.5950240000000 1.0
C      1  0.4851540000000  0.4406350000000  0.4929350000000 1.0
C      1  0.4806720000000  0.4938650000000  0.5608240000000 1.0
C      1  0.4830600000000  0.5578150000000  0.5080110000000 1.0
C      1  0.4837830000000  0.5079690000000  0.4394760000000 1.0
C      1  0.4728340000000  0.4628520000000  0.5649370000000 1.0
C      1  0.4768850000000  0.5629310000000  0.5397220000000 1.0
C      1  0.4736410000000  0.5375790000000  0.4347230000000 1.0
C      1  0.4753180000000  0.4365630000000  0.4632690000000 1.0
C      1  0.5639780000000  0.4422100000000  0.4504770000000 1.0
C      1  0.5620940000000  0.4538860000000  0.5581980000000 1.0
C      1  0.5633590000000  0.5567770000000  0.5502690000000 1.0
C      1  0.5638880000000  0.5479950000000  0.4406730000000 1.0
C      1  0.4469120000000  0.4688080000000  0.5922550000000 1.0
C      1  0.4545740000000  0.5931890000000  0.5275370000000 1.0
C      1  0.4486100000000  0.5263030000000  0.4084400000000 1.0
C      1  0.4501240000000  0.4095630000000  0.4722590000000 1.0
C      1  0.5664720000000  0.5733450000000  0.5029070000000 1.0
C      1  0.5655060000000  0.5021570000000  0.4222310000000 1.0
C      1  0.5669140000000  0.4261600000000  0.4972260000000 1.0
C      1  0.5663070000000  0.4990180000000  0.5772240000000 1.0
C      1  0.4421320000000  0.4586370000000  0.5308760000000 1.0
C      1  0.4470190000000  0.5368580000000  0.5354000000000 1.0
C      1  0.4418180000000  0.5401290000000  0.4681360000000 1.0
C      1  0.4434240000000  0.4710000000000  0.4622360000000 1.0
C      1  0.4665420000000  0.4385110000000  0.5180550000000 1.0
C      1  0.4566220000000  0.5148350000000  0.5596750000000 1.0
C      1  0.4656200000000  0.5599970000000  0.4822730000000 1.0
C      1  0.4653120000000  0.4827610000000  0.4389540000000 1.0
C      1  0.4587570000000  0.4636980000000  0.4044620000000 1.0
C      1  0.4609500000000  0.4026550000000  0.5347270000000 1.0
C      1  0.4649310000000  0.5291120000000  0.5960650000000 1.0
C      1  0.4613130000000  0.5963010000000  0.4661040000000 1.0
C      1  0.5101420000000  0.5584740000000  0.5786610000000 1.0
C      1  0.5048910000000  0.5758880000000  0.4410880000000 1.0
C      1  0.5046410000000  0.4422090000000  0.4251040000000 1.0
C      1  0.5054160000000  0.4248190000000  0.5581680000000 1.0
C      1  0.5570010000000  0.5442650000000  0.4711230000000 1.0
C      1  0.5553420000000  0.4715550000000  0.4544510000000 1.0
C      1  0.5559080000000  0.4575420000000  0.5274640000000 1.0
C      1  0.5541490000000  0.5271160000000  0.5472470000000 1.0
C      1  0.5814110000000  0.4551770000000  0.5047780000000 1.0
C      1  0.5813610000000  0.5063980000000  0.5487330000000 1.0
C      1  0.5827020000000  0.5462670000000  0.4936990000000 1.0
C      1  0.5805820000000  0.4943220000000  0.4499540000000 1.0
C      1  0.4774150000000  0.4084380000000  0.5521640000000 1.0
C      1  0.4816540000000  0.5465400000000  0.5921760000000 1.0
C      1  0.4772780000000  0.5931400000000  0.4475650000000 1.0
C      1  0.4756940000000  0.4467600000000  0.4102130000000 1.0
C      1  0.5256970000000  0.4102080000000  0.5400580000000 1.0
C      1  0.5247660000000  0.5366870000000  0.5971260000000 1.0
C      1  0.5251200000000  0.5893340000000  0.4603940000000 1.0
C      1  0.5237180000000  0.4596490000000  0.4082120000000 1.0
C      1  0.5528440000000  0.5290560000000  0.4221770000000 1.0
C      1  0.5541080000000  0.4241400000000  0.4703450000000 1.0
C      1  0.5513430000000  0.4732010000000  0.5763510000000 1.0
C      1  0.5540640000000  0.5744580000000  0.5298460000000 1.0
C      1  0.6047390000000  0.5204950000000  0.4962830000000 1.0
C      1  0.6024810000000  0.4971170000000  0.4744590000000 1.0
C      1  0.6023340000000  0.4812210000000  0.5018230000000 1.0
C      1  0.6025390000000  0.5039130000000  0.5237240000000 1.0
C      1  0.4255590000000  0.4917960000000  0.5681670000000 1.0
C      1  0.4222090000000  0.5674590000000  0.5012650000000 1.0
C      1  0.4260650000000  0.5052980000000  0.4337520000000 1.0
C      1  0.4267680000000  0.4328350000000  0.4943330000000 1.0
C      1  0.5090730000000  0.4840620000000  0.4008460000000 1.0
C      1  0.5113290000000  0.4025500000000  0.5155690000000 1.0
C      1  0.5057230000000  0.5162340000000  0.6021800000000 1.0
C      1  0.5093100000000  0.5961830000000  0.4846090000000 1.0
C      1  0.5340290000000  0.4472180000000  0.5041740000000 1.0
C      1  0.5312350000000  0.5053810000000  0.5599760000000 1.0
C      1  0.5341890000000  0.5514450000000  0.4954770000000 1.0
C      1  0.5332350000000  0.4953980000000  0.4443410000000 1.0
C      1  0.5057020000000  0.4973340000000  0.5775020000000 1.0
C      1  0.5106400000000  0.5727400000000  0.5048670000000 1.0
C      1  0.5097580000000  0.5043970000000  0.4241750000000 1.0
C      1  0.5115470000000  0.4260580000000  0.4955330000000 1.0
C      1  0.5255790000000  0.5799420000000  0.5316850000000 1.0
C      1  0.5240650000000  0.5315490000000  0.4175150000000 1.0
C      1  0.5253190000000  0.4190730000000  0.4683910000000 1.0
C      1  0.5226420000000  0.4703290000000  0.5814210000000 1.0
C      1  0.5124680000000  0.4864570000000  0.5199290000000 1.0
C      1  0.5143320000000  0.5164060000000  0.5121430000000 1.0
C      1  0.5120530000000  0.5151110000000  0.4812180000000 1.0
C      1  0.5118960000000  0.4844710000000  0.4883410000000 1.0
C      1  0.4490270000000  0.4117250000000  0.5062270000000 1.0
C      1  0.4473900000000  0.5028020000000  0.5906830000000 1.0
C      1  0.4491100000000  0.5871900000000  0.4944630000000 1.0
C      1  0.4470020000000  0.4925130000000  0.4120100000000 1.0
C      1  0.4941580000000  0.5432740000000  0.5544850000000 1.0
C      1  0.4853290000000  0.5552680000000  0.4572210000000 1.0
C      1  0.4863410000000  0.4600760000000  0.4463390000000 1.0
C      1  0.4859380000000  0.4462140000000  0.5423780000000 1.0
END
