TITL C-2782237-5345-382 0.000363324608056323 125000 -516.521313524353 0 0 92 (C1) n - 1
REM
REM in /home/nfs/bkarasulu/CARBON/AIRSS/Generating-Clusters/REBO/Higher-Symm/SD-CG/HFTN-CG
REM
REM
REM
REM
REM
REM ./C.cell (12c818d87b63d06a65506943cc24bca4)
REM
REM compiler GCC version 9.2.1 20190827 (Red Hat 9.2.1-1)
REM options -cpp -mtune=generic -march=x86-64 -g -O0 -fpre-include=/usr/include/finclude/math-vector-fortran.h
REM seed 482596188 2103681771 -121546272 -1710285068 733461129 1673373648 -1982318202 1076456367 995639719 2021734510 -37717497 -565441381 805958990 179281736 -151288208 41595528 -1135197805 250068168 1097205030 -548953919 467909404 -1484983299 873855755 1248401876 -688602866 -215324024 1286436611 -1406094028 -1474184556 1585590256 -756727451 -1163763142 -1793597542
REM
CELL 1.54180   50.00000   50.00000   50.00000   90.00000   90.00000   90.00000
LATT -1
SFAC C  
C      1  0.4826510000000  0.5140960000000  0.5215500000000 1.0
C      1  0.5224730000000  0.5106320000000  0.5190310000000 1.0
C      1  0.5206680000000  0.5121550000000  0.4791930000000 1.0
C      1  0.4808160000000  0.5143710000000  0.4816790000000 1.0
C      1  0.4793520000000  0.4880170000000  0.5207970000000 1.0
C      1  0.5190480000000  0.4844720000000  0.5179090000000 1.0
C      1  0.5182150000000  0.4859020000000  0.4774490000000 1.0
C      1  0.4784160000000  0.4882080000000  0.4798010000000 1.0
C      1  0.4446420000000  0.5266560000000  0.5455670000000 1.0
C      1  0.5436540000000  0.5260810000000  0.5530720000000 1.0
C      1  0.5546630000000  0.5285640000000  0.4525020000000 1.0
C      1  0.4540410000000  0.5272300000000  0.4449950000000 1.0
C      1  0.4476520000000  0.4725670000000  0.5457180000000 1.0
C      1  0.5445700000000  0.4720760000000  0.5558060000000 1.0
C      1  0.5530720000000  0.4744680000000  0.4554360000000 1.0
C      1  0.4546980000000  0.4732410000000  0.4482680000000 1.0
C      1  0.5425520000000  0.5231040000000  0.4973160000000 1.0
C      1  0.4991180000000  0.5294670000000  0.4639860000000 1.0
C      1  0.4647330000000  0.5297930000000  0.5036900000000 1.0
C      1  0.5064070000000  0.5263590000000  0.5385330000000 1.0
C      1  0.5354750000000  0.4695350000000  0.4956240000000 1.0
C      1  0.4957110000000  0.4759130000000  0.4574440000000 1.0
C      1  0.4586470000000  0.4757150000000  0.5018950000000 1.0
C      1  0.4997430000000  0.4717510000000  0.5377110000000 1.0
C      1  0.4806450000000  0.4559020000000  0.4372520000000 1.0
C      1  0.4374000000000  0.4578450000000  0.5186390000000 1.0
C      1  0.5154890000000  0.4600620000000  0.5636240000000 1.0
C      1  0.5643420000000  0.4591050000000  0.4827240000000 1.0
C      1  0.4827210000000  0.5400740000000  0.4368930000000 1.0
C      1  0.4366540000000  0.5413020000000  0.5170430000000 1.0
C      1  0.5173920000000  0.5419380000000  0.5657820000000 1.0
C      1  0.5622650000000  0.5425720000000  0.4807960000000 1.0
C      1  0.5188740000000  0.5125100000000  0.5826200000000 1.0
C      1  0.5796100000000  0.5134560000000  0.4817490000000 1.0
C      1  0.4827970000000  0.5106090000000  0.4211670000000 1.0
C      1  0.4208430000000  0.5117870000000  0.5170770000000 1.0
C      1  0.5173680000000  0.4878320000000  0.5818150000000 1.0
C      1  0.5795230000000  0.4888120000000  0.4817800000000 1.0
C      1  0.4815590000000  0.4859960000000  0.4214160000000 1.0
C      1  0.4205240000000  0.4871430000000  0.5173460000000 1.0
C      1  0.4800790000000  0.5748730000000  0.4555060000000 1.0
C      1  0.4556500000000  0.5761000000000  0.5170470000000 1.0
C      1  0.5172270000000  0.5733360000000  0.5418220000000 1.0
C      1  0.5417840000000  0.5763630000000  0.4814070000000 1.0
C      1  0.4838100000000  0.4222800000000  0.4577160000000 1.0
C      1  0.4582040000000  0.4241990000000  0.5192160000000 1.0
C      1  0.5206210000000  0.4256680000000  0.5442320000000 1.0
C      1  0.5447700000000  0.4246980000000  0.4820980000000 1.0
C      1  0.4582570000000  0.4820280000000  0.5838320000000 1.0
C      1  0.5804720000000  0.4843930000000  0.5432100000000 1.0
C      1  0.5421360000000  0.4839820000000  0.4159310000000 1.0
C      1  0.4160300000000  0.4843670000000  0.4586200000000 1.0
C      1  0.4588980000000  0.5125790000000  0.5817850000000 1.0
C      1  0.5823030000000  0.5154570000000  0.5428240000000 1.0
C      1  0.5417580000000  0.5147810000000  0.4172990000000 1.0
C      1  0.4182160000000  0.5153910000000  0.4582260000000 1.0
C      1  0.5142760000000  0.4325380000000  0.4806700000000 1.0
C      1  0.4804480000000  0.4308910000000  0.4873630000000 1.0
C      1  0.4891680000000  0.4301860000000  0.5206970000000 1.0
C      1  0.5230090000000  0.4323200000000  0.5140460000000 1.0
C      1  0.5121390000000  0.5675360000000  0.4769970000000 1.0
C      1  0.4789060000000  0.5666780000000  0.4865350000000 1.0
C      1  0.4847420000000  0.5661690000000  0.5207010000000 1.0
C      1  0.5177510000000  0.5662120000000  0.5110090000000 1.0
C      1  0.4923690000000  0.4364930000000  0.5542770000000 1.0
C      1  0.5563730000000  0.4388470000000  0.5092540000000 1.0
C      1  0.5090770000000  0.4397760000000  0.4475230000000 1.0
C      1  0.4475040000000  0.4388190000000  0.4921390000000 1.0
C      1  0.4902900000000  0.5592480000000  0.5538530000000 1.0
C      1  0.5514460000000  0.5602730000000  0.5080080000000 1.0
C      1  0.5083440000000  0.5618720000000  0.4433760000000 1.0
C      1  0.4450010000000  0.5613380000000  0.4903830000000 1.0
C      1  0.4357820000000  0.4588840000000  0.4708740000000 1.0
C      1  0.4700550000000  0.4562930000000  0.5643620000000 1.0
C      1  0.5665020000000  0.4535700000000  0.5375080000000 1.0
C      1  0.5305990000000  0.4591300000000  0.4368000000000 1.0
C      1  0.4326890000000  0.5461680000000  0.4633400000000 1.0
C      1  0.4645110000000  0.5428790000000  0.5664730000000 1.0
C      1  0.5620670000000  0.5401810000000  0.5298020000000 1.0
C      1  0.5356240000000  0.5461140000000  0.4304410000000 1.0
C      1  0.5584220000000  0.4781350000000  0.5170820000000 1.0
C      1  0.5176970000000  0.4905930000000  0.4378410000000 1.0
C      1  0.4387010000000  0.4910690000000  0.4819700000000 1.0
C      1  0.4819430000000  0.4878850000000  0.5606980000000 1.0
C      1  0.5622370000000  0.5082790000000  0.5173610000000 1.0
C      1  0.5173570000000  0.5208100000000  0.4403930000000 1.0
C      1  0.4415690000000  0.5212750000000  0.4830580000000 1.0
C      1  0.4857440000000  0.5182190000000  0.5610530000000 1.0
C      1  0.4442060000000  0.4994440000000  0.5470970000000 1.0
C      1  0.5557100000000  0.5012450000000  0.4521450000000 1.0
C      1  0.4526190000000  0.5000250000000  0.4451520000000 1.0
C      1  0.5458820000000  0.4993150000000  0.5562550000000 1.0
END
