TITL C-2782232-2968-1000 -0.000420832901273397 125000 -914.993458727318 0 0 159 (C1) n - 1
REM
REM in /home/nfs/bkarasulu/CARBON/AIRSS/Generating-Clusters/REBO/Higher-Symm/SD-CG/HFTN-CG
REM
REM
REM
REM
REM
REM ./C.cell (12c818d87b63d06a65506943cc24bca4)
REM
REM compiler GCC version 9.2.1 20190827 (Red Hat 9.2.1-1)
REM options -cpp -mtune=generic -march=x86-64 -g -O0 -fpre-include=/usr/include/finclude/math-vector-fortran.h
REM seed 490881787 -863278475 -1015622532 907706018 2051251847 -563832713 481290662 1553761132 19069822 1158414550 -609941908 435567325 -71790657 -575000568 -1297305347 1951559860 -28649147 -976273730 -1685999915 822393907 97042422 798652891 527940954 -447246582 1761485160 -2069828053 -1177989786 -668828729 2138860417 -1748493793 934235639 1910594851 1229750410
REM
CELL 1.54180   50.00000   50.00000   50.00000   90.00000   90.00000   90.00000
LATT -1
SFAC C  
C      1  0.5470100000000  0.4008480000000  0.5085190000000 1.0
C      1  0.4810750000000  0.4022450000000  0.4533770000000 1.0
C      1  0.4729980000000  0.4022760000000  0.5344510000000 1.0
C      1  0.4491510000000  0.4225160000000  0.5211740000000 1.0
C      1  0.5527590000000  0.4202360000000  0.5358980000000 1.0
C      1  0.5063380000000  0.4216320000000  0.4408780000000 1.0
C      1  0.4543660000000  0.5255100000000  0.5410250000000 1.0
C      1  0.5682370000000  0.5173570000000  0.5203100000000 1.0
C      1  0.4773480000000  0.5262240000000  0.4523750000000 1.0
C      1  0.4169860000000  0.5309450000000  0.4360380000000 1.0
C      1  0.4786760000000  0.5276180000000  0.6100170000000 1.0
C      1  0.5905260000000  0.5281460000000  0.4629520000000 1.0
C      1  0.5408660000000  0.5923820000000  0.4457460000000 1.0
C      1  0.4469370000000  0.5881840000000  0.4986060000000 1.0
C      1  0.5290550000000  0.5900710000000  0.5401990000000 1.0
C      1  0.4479550000000  0.4876280000000  0.4010440000000 1.0
C      1  0.4419540000000  0.4781380000000  0.5933090000000 1.0
C      1  0.6101360000000  0.4862140000000  0.5060700000000 1.0
C      1  0.4029520000000  0.4983470000000  0.4733640000000 1.0
C      1  0.5052700000000  0.5113930000000  0.5999480000000 1.0
C      1  0.5647350000000  0.4950110000000  0.4360870000000 1.0
C      1  0.4760890000000  0.4618790000000  0.5491090000000 1.0
C      1  0.5603640000000  0.4591920000000  0.5053300000000 1.0
C      1  0.4640880000000  0.4574260000000  0.4495270000000 1.0
C      1  0.5310820000000  0.4169850000000  0.5579220000000 1.0
C      1  0.5338910000000  0.4146770000000  0.4532600000000 1.0
C      1  0.4427310000000  0.4175280000000  0.4924130000000 1.0
C      1  0.5088050000000  0.4607630000000  0.5037720000000 1.0
C      1  0.4889840000000  0.4692530000000  0.4780820000000 1.0
C      1  0.4796100000000  0.4746860000000  0.5114890000000 1.0
C      1  0.4059490000000  0.4805380000000  0.5389950000000 1.0
C      1  0.5863940000000  0.4839030000000  0.5721540000000 1.0
C      1  0.5125150000000  0.4848240000000  0.3989290000000 1.0
C      1  0.4831930000000  0.5508270000000  0.4697830000000 1.0
C      1  0.4944380000000  0.5414200000000  0.5240520000000 1.0
C      1  0.5060720000000  0.5437140000000  0.4924600000000 1.0
C      1  0.5143840000000  0.5583080000000  0.4198480000000 1.0
C      1  0.4357160000000  0.5544720000000  0.5376520000000 1.0
C      1  0.5609280000000  0.5480580000000  0.5342340000000 1.0
C      1  0.4688920000000  0.5602810000000  0.5166490000000 1.0
C      1  0.5180210000000  0.5693500000000  0.5080680000000 1.0
C      1  0.4968030000000  0.5783400000000  0.4591010000000 1.0
C      1  0.4311870000000  0.4829720000000  0.5553890000000 1.0
C      1  0.5915870000000  0.4835210000000  0.5411470000000 1.0
C      1  0.4854180000000  0.4879800000000  0.4133700000000 1.0
C      1  0.5907300000000  0.5560540000000  0.5060840000000 1.0
C      1  0.4573440000000  0.5608060000000  0.4227640000000 1.0
C      1  0.4582790000000  0.5550680000000  0.5706030000000 1.0
C      1  0.4281140000000  0.5390140000000  0.5672940000000 1.0
C      1  0.5947340000000  0.5414330000000  0.5369050000000 1.0
C      1  0.4845350000000  0.5456480000000  0.4088000000000 1.0
C      1  0.5484540000000  0.5701190000000  0.5204730000000 1.0
C      1  0.5158100000000  0.5822450000000  0.4351820000000 1.0
C      1  0.4456020000000  0.5827990000000  0.5285920000000 1.0
C      1  0.4522630000000  0.5767120000000  0.4510490000000 1.0
C      1  0.4777910000000  0.5704190000000  0.5477480000000 1.0
C      1  0.5636630000000  0.5717210000000  0.4926310000000 1.0
C      1  0.4322690000000  0.5048140000000  0.4251950000000 1.0
C      1  0.4677030000000  0.4987100000000  0.5960910000000 1.0
C      1  0.6014350000000  0.5018610000000  0.4771260000000 1.0
C      1  0.5789550000000  0.5741600000000  0.4562010000000 1.0
C      1  0.4130950000000  0.5772310000000  0.4480060000000 1.0
C      1  0.4981770000000  0.5708720000000  0.5971530000000 1.0
C      1  0.5494740000000  0.5163940000000  0.4169770000000 1.0
C      1  0.3941670000000  0.5238410000000  0.4944600000000 1.0
C      1  0.5367310000000  0.5213100000000  0.5909630000000 1.0
C      1  0.4828360000000  0.4093450000000  0.5041890000000 1.0
C      1  0.5160380000000  0.4045320000000  0.5086320000000 1.0
C      1  0.5035810000000  0.4080340000000  0.4782070000000 1.0
C      1  0.4208780000000  0.5266370000000  0.4673170000000 1.0
C      1  0.5099840000000  0.5270590000000  0.5713960000000 1.0
C      1  0.5611360000000  0.5233580000000  0.4547150000000 1.0
C      1  0.5724510000000  0.4558240000000  0.5643360000000 1.0
C      1  0.5215410000000  0.4620780000000  0.4139800000000 1.0
C      1  0.4103880000000  0.4543130000000  0.5254190000000 1.0
C      1  0.5760810000000  0.5178400000000  0.5540020000000 1.0
C      1  0.4988690000000  0.5225890000000  0.4275410000000 1.0
C      1  0.4207100000000  0.5183170000000  0.5407140000000 1.0
C      1  0.5038750000000  0.5029300000000  0.5194480000000 1.0
C      1  0.5243460000000  0.5105000000000  0.4969960000000 1.0
C      1  0.4915720000000  0.5066670000000  0.4908800000000 1.0
C      1  0.5339800000000  0.5405220000000  0.4319000000000 1.0
C      1  0.4190090000000  0.5382090000000  0.5129360000000 1.0
C      1  0.5477090000000  0.5356230000000  0.5617710000000 1.0
C      1  0.4780260000000  0.4384030000000  0.4903160000000 1.0
C      1  0.5081410000000  0.4291160000000  0.5279300000000 1.0
C      1  0.5200260000000  0.4372050000000  0.4832360000000 1.0
C      1  0.4960620000000  0.4807190000000  0.5933820000000 1.0
C      1  0.5875930000000  0.4808400000000  0.4573350000000 1.0
C      1  0.4189040000000  0.4835610000000  0.4466980000000 1.0
C      1  0.4590070000000  0.5958770000000  0.4719680000000 1.0
C      1  0.4979160000000  0.5951020000000  0.5358230000000 1.0
C      1  0.5446170000000  0.5921500000000  0.4732100000000 1.0
C      1  0.4715840000000  0.5047560000000  0.4721130000000 1.0
C      1  0.4862380000000  0.5138260000000  0.5423250000000 1.0
C      1  0.5510990000000  0.4996980000000  0.5009010000000 1.0
C      1  0.5973090000000  0.4575510000000  0.5196540000000 1.0
C      1  0.4674190000000  0.4604930000000  0.4103740000000 1.0
C      1  0.4420190000000  0.4542810000000  0.5685210000000 1.0
C      1  0.5619350000000  0.5044930000000  0.5819510000000 1.0
C      1  0.5199180000000  0.5097380000000  0.4111570000000 1.0
C      1  0.4005320000000  0.5033050000000  0.5181890000000 1.0
C      1  0.5004790000000  0.5553420000000  0.5682190000000 1.0
C      1  0.5527720000000  0.5539230000000  0.4654040000000 1.0
C      1  0.4312420000000  0.5558790000000  0.4678820000000 1.0
C      1  0.4560980000000  0.5285460000000  0.4303720000000 1.0
C      1  0.4635250000000  0.5221640000000  0.5735850000000 1.0
C      1  0.5950550000000  0.5227650000000  0.5019730000000 1.0
C      1  0.4246040000000  0.5576430000000  0.4285510000000 1.0
C      1  0.4743790000000  0.5533900000000  0.5984490000000 1.0
C      1  0.5939040000000  0.5546540000000  0.4728870000000 1.0
C      1  0.4946090000000  0.6049240000000  0.5093300000000 1.0
C      1  0.5186500000000  0.5944140000000  0.4884980000000 1.0
C      1  0.4882110000000  0.6034210000000  0.4762560000000 1.0
C      1  0.4224200000000  0.4640570000000  0.4736280000000 1.0
C      1  0.5212610000000  0.4701530000000  0.5752680000000 1.0
C      1  0.5630390000000  0.4588280000000  0.4520300000000 1.0
C      1  0.4337700000000  0.5066340000000  0.5765600000000 1.0
C      1  0.6068680000000  0.5100100000000  0.5302580000000 1.0
C      1  0.4685560000000  0.5149080000000  0.4035490000000 1.0
C      1  0.4973740000000  0.4108370000000  0.5550860000000 1.0
C      1  0.5555050000000  0.4094830000000  0.4794540000000 1.0
C      1  0.4500530000000  0.4108450000000  0.4597280000000 1.0
C      1  0.4438640000000  0.4918440000000  0.5063240000000 1.0
C      1  0.5364840000000  0.4851800000000  0.5413020000000 1.0
C      1  0.5156150000000  0.4883170000000  0.4552560000000 1.0
C      1  0.4585530000000  0.5584840000000  0.4859780000000 1.0
C      1  0.5155480000000  0.5597090000000  0.5406870000000 1.0
C      1  0.5224180000000  0.5574880000000  0.4669220000000 1.0
C      1  0.5631980000000  0.4786320000000  0.5281030000000 1.0
C      1  0.4873160000000  0.4799250000000  0.4453670000000 1.0
C      1  0.4548360000000  0.4802290000000  0.5350160000000 1.0
C      1  0.4970630000000  0.4461400000000  0.4200700000000 1.0
C      1  0.4309650000000  0.4397580000000  0.5397410000000 1.0
C      1  0.5763120000000  0.4412470000000  0.5408560000000 1.0
C      1  0.4852140000000  0.4371890000000  0.5713950000000 1.0
C      1  0.5754610000000  0.4366620000000  0.4847100000000 1.0
C      1  0.4410190000000  0.4361410000000  0.4386350000000 1.0
C      1  0.4324950000000  0.5125490000000  0.4960080000000 1.0
C      1  0.5311360000000  0.5071790000000  0.5539660000000 1.0
C      1  0.5293830000000  0.5121150000000  0.4507860000000 1.0
C      1  0.5450980000000  0.4682070000000  0.4280080000000 1.0
C      1  0.4065930000000  0.4756100000000  0.4991130000000 1.0
C      1  0.5503300000000  0.4748010000000  0.5773520000000 1.0
C      1  0.5948400000000  0.4634480000000  0.4858150000000 1.0
C      1  0.4355470000000  0.4651290000000  0.4231920000000 1.0
C      1  0.4697340000000  0.4596750000000  0.5882850000000 1.0
C      1  0.4772490000000  0.4367810000000  0.5323610000000 1.0
C      1  0.5419280000000  0.4347710000000  0.5071600000000 1.0
C      1  0.4815960000000  0.4351560000000  0.4592930000000 1.0
C      1  0.4270840000000  0.4350460000000  0.4688100000000 1.0
C      1  0.5173440000000  0.4403980000000  0.5719850000000 1.0
C      1  0.5640550000000  0.4289470000000  0.4539110000000 1.0
C      1  0.5277410000000  0.4667690000000  0.4689330000000 1.0
C      1  0.4546540000000  0.4610110000000  0.4964410000000 1.0
C      1  0.5160670000000  0.4615560000000  0.5348060000000 1.0
C      1  0.4985370000000  0.4841530000000  0.5537770000000 1.0
C      1  0.5552770000000  0.4756620000000  0.4798840000000 1.0
C      1  0.4519550000000  0.4807290000000  0.4689060000000 1.0
END
