TITL C-2782238-9940-618 0.000260413758596572 125000 -461.617396032374 0 0 81 (C1) n - 1
REM
REM in /home/nfs/bkarasulu/CARBON/AIRSS/Generating-Clusters/REBO/Higher-Symm/SD-CG/HFTN-CG
REM
REM
REM
REM
REM
REM ./C.cell (12c818d87b63d06a65506943cc24bca4)
REM
REM compiler GCC version 9.2.1 20190827 (Red Hat 9.2.1-1)
REM options -cpp -mtune=generic -march=x86-64 -g -O0 -fpre-include=/usr/include/finclude/math-vector-fortran.h
REM seed -1858959513 -1438490554 1018827338 909666284 -1089945886 -1305574207 -1779511682 1857263455 556671290 2105217739 1060872245 -1131574163 -1510023324 -151522758 966066450 559055744 1082875384 2068502403 -859636455 -1569155056 613908459 -1135873563 -945186805 -1830589481 1127814508 1279142025 -21166062 -1969825276 -1915576973 -1428232730 779583179 446795838 -899530708
REM
CELL 1.54180   50.00000   50.00000   50.00000   90.00000   90.00000   90.00000
LATT -1
SFAC C  
C      1  0.4608500000000  0.4248120000000  0.5452810000000 1.0
C      1  0.5405620000000  0.4240630000000  0.5447600000000 1.0
C      1  0.5647670000000  0.5358220000000  0.4829750000000 1.0
C      1  0.4340670000000  0.5374490000000  0.4815160000000 1.0
C      1  0.4821660000000  0.5636190000000  0.4493390000000 1.0
C      1  0.5157840000000  0.5611380000000  0.4517270000000 1.0
C      1  0.5612690000000  0.4830930000000  0.4758170000000 1.0
C      1  0.4416500000000  0.4848450000000  0.4764800000000 1.0
C      1  0.5263990000000  0.4982540000000  0.5246560000000 1.0
C      1  0.4749410000000  0.4960770000000  0.5244950000000 1.0
C      1  0.4364420000000  0.5290480000000  0.4484270000000 1.0
C      1  0.5630970000000  0.5289870000000  0.4494430000000 1.0
C      1  0.4857290000000  0.4558320000000  0.4514840000000 1.0
C      1  0.5159890000000  0.4551590000000  0.4511600000000 1.0
C      1  0.5415970000000  0.4568860000000  0.5479780000000 1.0
C      1  0.4599220000000  0.4574940000000  0.5494000000000 1.0
C      1  0.4823050000000  0.5603270000000  0.5438720000000 1.0
C      1  0.5130890000000  0.5562840000000  0.5451760000000 1.0
C      1  0.5138610000000  0.5872140000000  0.5106950000000 1.0
C      1  0.4885120000000  0.5892810000000  0.5098950000000 1.0
C      1  0.4292050000000  0.5375470000000  0.5314280000000 1.0
C      1  0.5719030000000  0.5361480000000  0.5346180000000 1.0
C      1  0.5154810000000  0.5496000000000  0.4832170000000 1.0
C      1  0.4833630000000  0.5535090000000  0.4813090000000 1.0
C      1  0.4846170000000  0.5345650000000  0.5625190000000 1.0
C      1  0.5181530000000  0.5328020000000  0.5644990000000 1.0
C      1  0.4096910000000  0.4954640000000  0.5174120000000 1.0
C      1  0.5923050000000  0.4952760000000  0.5177310000000 1.0
C      1  0.5389140000000  0.5454960000000  0.4319780000000 1.0
C      1  0.4604640000000  0.5452960000000  0.4304610000000 1.0
C      1  0.4724480000000  0.5258120000000  0.4646940000000 1.0
C      1  0.5266270000000  0.5236390000000  0.4640490000000 1.0
C      1  0.5331190000000  0.4665070000000  0.4777090000000 1.0
C      1  0.4702150000000  0.4686500000000  0.4783340000000 1.0
C      1  0.5472030000000  0.4992350000000  0.4519750000000 1.0
C      1  0.4543110000000  0.5002610000000  0.4514860000000 1.0
C      1  0.4471930000000  0.4867430000000  0.5514840000000 1.0
C      1  0.5543450000000  0.4855810000000  0.5502380000000 1.0
C      1  0.4867130000000  0.4829500000000  0.4975960000000 1.0
C      1  0.5182430000000  0.4798600000000  0.4986650000000 1.0
C      1  0.4457310000000  0.5095710000000  0.5260980000000 1.0
C      1  0.5558090000000  0.5087600000000  0.5254820000000 1.0
C      1  0.5290420000000  0.4142890000000  0.5245700000000 1.0
C      1  0.4723780000000  0.4152420000000  0.5250330000000 1.0
C      1  0.4836480000000  0.5147810000000  0.4905820000000 1.0
C      1  0.5146140000000  0.5100620000000  0.4885660000000 1.0
C      1  0.5951770000000  0.5167080000000  0.5354710000000 1.0
C      1  0.4065130000000  0.5177270000000  0.5343720000000 1.0
C      1  0.4319940000000  0.5074400000000  0.4949380000000 1.0
C      1  0.5697190000000  0.5055170000000  0.4948240000000 1.0
C      1  0.4388650000000  0.5536450000000  0.5089170000000 1.0
C      1  0.5582910000000  0.5495190000000  0.5113600000000 1.0
C      1  0.5599560000000  0.4323820000000  0.4758490000000 1.0
C      1  0.4416340000000  0.4344820000000  0.4764460000000 1.0
C      1  0.5115980000000  0.5264780000000  0.5166200000000 1.0
C      1  0.4796720000000  0.5293090000000  0.5188590000000 1.0
C      1  0.5424770000000  0.4506870000000  0.5150150000000 1.0
C      1  0.4597050000000  0.4520480000000  0.5160450000000 1.0
C      1  0.4856060000000  0.4343180000000  0.5025420000000 1.0
C      1  0.5160310000000  0.4334610000000  0.5020320000000 1.0
C      1  0.5131380000000  0.4478940000000  0.5614330000000 1.0
C      1  0.4886140000000  0.4481800000000  0.5620730000000 1.0
C      1  0.4325520000000  0.4719960000000  0.5242520000000 1.0
C      1  0.5692070000000  0.4712740000000  0.5229250000000 1.0
C      1  0.5276800000000  0.5563620000000  0.5142560000000 1.0
C      1  0.4699220000000  0.5608340000000  0.5118390000000 1.0
C      1  0.4698370000000  0.5102270000000  0.5615320000000 1.0
C      1  0.5325760000000  0.5086180000000  0.5627880000000 1.0
C      1  0.5680170000000  0.4551150000000  0.4930000000000 1.0
C      1  0.4350940000000  0.4575680000000  0.4935700000000 1.0
C      1  0.5300070000000  0.4332420000000  0.4724860000000 1.0
C      1  0.4714330000000  0.4349690000000  0.4732170000000 1.0
C      1  0.4748970000000  0.4822370000000  0.4366520000000 1.0
C      1  0.5268110000000  0.4811140000000  0.4362540000000 1.0
C      1  0.4499660000000  0.5584340000000  0.4599270000000 1.0
C      1  0.5483440000000  0.5571740000000  0.4621160000000 1.0
C      1  0.5145850000000  0.4863930000000  0.5510140000000 1.0
C      1  0.4871190000000  0.4865650000000  0.5512250000000 1.0
C      1  0.4828450000000  0.5229000000000  0.4334020000000 1.0
C      1  0.5146720000000  0.5251880000000  0.4333520000000 1.0
C      1  0.5014080000000  0.4962030000000  0.4247780000000 1.0
END
