TITL C-2782236-320-211 -0.00114910115554842 125000 -1136.18433045371 0 0 195 (C1) n - 1
REM
REM in /home/nfs/bkarasulu/CARBON/AIRSS/Generating-Clusters/REBO/Higher-Symm/SD-CG/HFTN-CG
REM
REM
REM
REM
REM
REM ./C.cell (12c818d87b63d06a65506943cc24bca4)
REM
REM compiler GCC version 9.2.1 20190827 (Red Hat 9.2.1-1)
REM options -cpp -mtune=generic -march=x86-64 -g -O0 -fpre-include=/usr/include/finclude/math-vector-fortran.h
REM seed 7145593 -426922527 -1861277752 1395122430 1879976455 1622880940 -1582828143 739843511 -1720743773 432335574 -1021118887 770147752 -1335649321 1744445709 -1082574138 688400735 1610559411 935986404 -1548065309 -2075632234 -2056635125 464197556 169369749 -487596078 -2073409570 1535548391 2033145208 1833145821 -728142947 750240417 -478590383 1185722264 -983428606
REM
CELL 1.54180   50.00000   50.00000   50.00000   90.00000   90.00000   90.00000
LATT -1
SFAC C  
C      1  0.4436940000000  0.4866340000000  0.5190050000000 1.0
C      1  0.5541790000000  0.5171390000000  0.5185070000000 1.0
C      1  0.4443900000000  0.5166190000000  0.5265810000000 1.0
C      1  0.5511010000000  0.4864510000000  0.5226870000000 1.0
C      1  0.5560600000000  0.4162620000000  0.5578760000000 1.0
C      1  0.4455710000000  0.5809380000000  0.5614760000000 1.0
C      1  0.5540930000000  0.5769060000000  0.5586560000000 1.0
C      1  0.4454730000000  0.4182460000000  0.5606160000000 1.0
C      1  0.4184120000000  0.4236100000000  0.4969950000000 1.0
C      1  0.5796750000000  0.5914790000000  0.5014760000000 1.0
C      1  0.4191380000000  0.5893960000000  0.5102750000000 1.0
C      1  0.5764710000000  0.4117780000000  0.4943910000000 1.0
C      1  0.4617580000000  0.6060550000000  0.4853980000000 1.0
C      1  0.5465570000000  0.3988690000000  0.4830700000000 1.0
C      1  0.4496760000000  0.3972620000000  0.4868740000000 1.0
C      1  0.5511500000000  0.6045200000000  0.4869350000000 1.0
C      1  0.5212670000000  0.5426620000000  0.4730220000000 1.0
C      1  0.4793810000000  0.4582770000000  0.4863340000000 1.0
C      1  0.5084690000000  0.4550120000000  0.4798150000000 1.0
C      1  0.4907590000000  0.5432950000000  0.4690040000000 1.0
C      1  0.4860750000000  0.4070700000000  0.4459930000000 1.0
C      1  0.5170700000000  0.5860910000000  0.4462570000000 1.0
C      1  0.4862710000000  0.5847850000000  0.4429680000000 1.0
C      1  0.5177170000000  0.4061550000000  0.4373270000000 1.0
C      1  0.5814620000000  0.4728820000000  0.5137230000000 1.0
C      1  0.4139130000000  0.5258140000000  0.5142160000000 1.0
C      1  0.5862990000000  0.5277910000000  0.5143280000000 1.0
C      1  0.4127420000000  0.4722660000000  0.5157250000000 1.0
C      1  0.4686230000000  0.5249760000000  0.5681050000000 1.0
C      1  0.5277920000000  0.4783020000000  0.5728130000000 1.0
C      1  0.4773780000000  0.4778120000000  0.5748330000000 1.0
C      1  0.5219970000000  0.5178370000000  0.5745830000000 1.0
C      1  0.3933680000000  0.5147580000000  0.5355580000000 1.0
C      1  0.6003020000000  0.4831900000000  0.5358570000000 1.0
C      1  0.3945360000000  0.4840670000000  0.5375350000000 1.0
C      1  0.6018500000000  0.5137530000000  0.5363170000000 1.0
C      1  0.4111640000000  0.4414030000000  0.5224400000000 1.0
C      1  0.5851370000000  0.5619620000000  0.5144990000000 1.0
C      1  0.4087380000000  0.5581940000000  0.5137920000000 1.0
C      1  0.5847480000000  0.4389110000000  0.5113100000000 1.0
C      1  0.4761300000000  0.4254440000000  0.4954470000000 1.0
C      1  0.5228680000000  0.5749900000000  0.4842200000000 1.0
C      1  0.4828540000000  0.5724580000000  0.4836170000000 1.0
C      1  0.5175450000000  0.4248140000000  0.4914290000000 1.0
C      1  0.5548020000000  0.4606710000000  0.4866180000000 1.0
C      1  0.4370760000000  0.5434850000000  0.4868360000000 1.0
C      1  0.5614190000000  0.5417580000000  0.4866740000000 1.0
C      1  0.4398060000000  0.4615670000000  0.4883110000000 1.0
C      1  0.5488430000000  0.4291540000000  0.5833730000000 1.0
C      1  0.4528210000000  0.5624090000000  0.5819320000000 1.0
C      1  0.5458480000000  0.5649620000000  0.5832910000000 1.0
C      1  0.4568570000000  0.4296440000000  0.5845890000000 1.0
C      1  0.4348860000000  0.5459210000000  0.5413590000000 1.0
C      1  0.5576770000000  0.4624630000000  0.5438090000000 1.0
C      1  0.4401030000000  0.4657890000000  0.5440470000000 1.0
C      1  0.5652300000000  0.5300840000000  0.5479710000000 1.0
C      1  0.4865010000000  0.5008000000000  0.4146850000000 1.0
C      1  0.5200740000000  0.4631360000000  0.3952980000000 1.0
C      1  0.4910850000000  0.4670480000000  0.4090270000000 1.0
C      1  0.5188470000000  0.4954170000000  0.4066210000000 1.0
C      1  0.5697600000000  0.5595440000000  0.5421530000000 1.0
C      1  0.4277720000000  0.4356750000000  0.5469410000000 1.0
C      1  0.5722420000000  0.4342380000000  0.5413000000000 1.0
C      1  0.4206170000000  0.5752130000000  0.5409450000000 1.0
C      1  0.4061540000000  0.5138220000000  0.4842660000000 1.0
C      1  0.5932450000000  0.4850140000000  0.4854340000000 1.0
C      1  0.4045120000000  0.4798940000000  0.4860870000000 1.0
C      1  0.5962500000000  0.5180960000000  0.4857650000000 1.0
C      1  0.4447580000000  0.4136260000000  0.5160940000000 1.0
C      1  0.5497190000000  0.5862010000000  0.5152200000000 1.0
C      1  0.4521690000000  0.5909600000000  0.5129920000000 1.0
C      1  0.5489270000000  0.4139620000000  0.5135880000000 1.0
C      1  0.4117690000000  0.4874780000000  0.4549640000000 1.0
C      1  0.5927170000000  0.5109240000000  0.4552150000000 1.0
C      1  0.4124420000000  0.5169330000000  0.4513610000000 1.0
C      1  0.5926250000000  0.4824450000000  0.4519610000000 1.0
C      1  0.5813560000000  0.4682710000000  0.4271880000000 1.0
C      1  0.4233790000000  0.5335560000000  0.4324490000000 1.0
C      1  0.5842160000000  0.5328240000000  0.4374190000000 1.0
C      1  0.4245680000000  0.4703620000000  0.4333770000000 1.0
C      1  0.5845860000000  0.4422560000000  0.4495420000000 1.0
C      1  0.4140300000000  0.5707700000000  0.4621750000000 1.0
C      1  0.5870970000000  0.5631810000000  0.4528860000000 1.0
C      1  0.4189620000000  0.4385960000000  0.4452640000000 1.0
C      1  0.4635890000000  0.5305290000000  0.3923440000000 1.0
C      1  0.5512870000000  0.4855850000000  0.3852070000000 1.0
C      1  0.4593790000000  0.4795400000000  0.3891110000000 1.0
C      1  0.5485500000000  0.5316700000000  0.3914480000000 1.0
C      1  0.5208590000000  0.4844370000000  0.5400940000000 1.0
C      1  0.4774940000000  0.5154640000000  0.5371710000000 1.0
C      1  0.5115850000000  0.5173190000000  0.5427680000000 1.0
C      1  0.4861980000000  0.4830150000000  0.5435940000000 1.0
C      1  0.4504090000000  0.4347350000000  0.4742760000000 1.0
C      1  0.5524250000000  0.5675360000000  0.4722040000000 1.0
C      1  0.4517180000000  0.5687360000000  0.4751150000000 1.0
C      1  0.5423910000000  0.4364900000000  0.4709590000000 1.0
C      1  0.4761570000000  0.4568860000000  0.5292560000000 1.0
C      1  0.5227130000000  0.5422160000000  0.5271230000000 1.0
C      1  0.4785580000000  0.5452210000000  0.5202820000000 1.0
C      1  0.5208570000000  0.4532180000000  0.5314040000000 1.0
C      1  0.5921690000000  0.4883200000000  0.5654280000000 1.0
C      1  0.4186510000000  0.5233730000000  0.5566560000000 1.0
C      1  0.5924750000000  0.5196030000000  0.5654980000000 1.0
C      1  0.4081120000000  0.4915760000000  0.5637090000000 1.0
C      1  0.5412010000000  0.4660320000000  0.6153680000000 1.0
C      1  0.4604510000000  0.5304850000000  0.6189770000000 1.0
C      1  0.5382120000000  0.5308570000000  0.6171200000000 1.0
C      1  0.4638990000000  0.4667650000000  0.6153260000000 1.0
C      1  0.5135340000000  0.4347000000000  0.4531830000000 1.0
C      1  0.4693180000000  0.5601660000000  0.4482580000000 1.0
C      1  0.5342760000000  0.5597750000000  0.4463390000000 1.0
C      1  0.4797460000000  0.4377890000000  0.4580510000000 1.0
C      1  0.4497250000000  0.4474280000000  0.5157870000000 1.0
C      1  0.5454750000000  0.5553740000000  0.5107170000000 1.0
C      1  0.4502070000000  0.5570850000000  0.5132690000000 1.0
C      1  0.5460640000000  0.4475040000000  0.5145580000000 1.0
C      1  0.5670560000000  0.5604080000000  0.4268290000000 1.0
C      1  0.4108400000000  0.4451120000000  0.4150530000000 1.0
C      1  0.5552550000000  0.4466260000000  0.4330160000000 1.0
C      1  0.4199040000000  0.5612370000000  0.4371850000000 1.0
C      1  0.5760820000000  0.5900630000000  0.4684240000000 1.0
C      1  0.4279040000000  0.4130560000000  0.4658790000000 1.0
C      1  0.5673540000000  0.4173610000000  0.4629230000000 1.0
C      1  0.4307380000000  0.5931640000000  0.4795070000000 1.0
C      1  0.5489950000000  0.4868280000000  0.4689780000000 1.0
C      1  0.4474580000000  0.5193390000000  0.4728270000000 1.0
C      1  0.5520270000000  0.5174670000000  0.4693710000000 1.0
C      1  0.4512680000000  0.4876110000000  0.4733330000000 1.0
C      1  0.5929980000000  0.5513170000000  0.4830280000000 1.0
C      1  0.4125310000000  0.4486690000000  0.4750250000000 1.0
C      1  0.5860730000000  0.4524350000000  0.4799150000000 1.0
C      1  0.4046860000000  0.5479420000000  0.4825840000000 1.0
C      1  0.5124700000000  0.5831670000000  0.5515940000000 1.0
C      1  0.4857600000000  0.4114130000000  0.5500540000000 1.0
C      1  0.5133530000000  0.4098810000000  0.5520880000000 1.0
C      1  0.4845290000000  0.5827560000000  0.5522130000000 1.0
C      1  0.4866420000000  0.4859490000000  0.6059450000000 1.0
C      1  0.5133040000000  0.5152850000000  0.6076830000000 1.0
C      1  0.4828350000000  0.5162220000000  0.6171430000000 1.0
C      1  0.5182160000000  0.4834690000000  0.6033240000000 1.0
C      1  0.4453540000000  0.4794150000000  0.5710970000000 1.0
C      1  0.5538320000000  0.5133050000000  0.5729290000000 1.0
C      1  0.4408200000000  0.5109650000000  0.5758910000000 1.0
C      1  0.5616470000000  0.4798820000000  0.5717910000000 1.0
C      1  0.5294700000000  0.5193670000000  0.4951800000000 1.0
C      1  0.4710500000000  0.4843270000000  0.5000780000000 1.0
C      1  0.5199920000000  0.4826390000000  0.4825600000000 1.0
C      1  0.4801050000000  0.5151410000000  0.4763380000000 1.0
C      1  0.5531720000000  0.5379300000000  0.5950670000000 1.0
C      1  0.4492120000000  0.4571520000000  0.5943210000000 1.0
C      1  0.5579480000000  0.4558370000000  0.5954710000000 1.0
C      1  0.4441410000000  0.5373730000000  0.5968490000000 1.0
C      1  0.4615660000000  0.4791150000000  0.4457250000000 1.0
C      1  0.5419630000000  0.5281890000000  0.4420100000000 1.0
C      1  0.4612760000000  0.5299000000000  0.4444610000000 1.0
C      1  0.5438070000000  0.4766980000000  0.4372300000000 1.0
C      1  0.4920920000000  0.5168350000000  0.3860660000000 1.0
C      1  0.5226780000000  0.4847000000000  0.3688080000000 1.0
C      1  0.4899580000000  0.4835880000000  0.3789940000000 1.0
C      1  0.5259640000000  0.5163540000000  0.3821910000000 1.0
C      1  0.5305120000000  0.4349310000000  0.3977290000000 1.0
C      1  0.4542510000000  0.5501870000000  0.3768170000000 1.0
C      1  0.4450960000000  0.5694580000000  0.3615970000000 1.0
C      1  0.5293780000000  0.4136380000000  0.4103200000000 1.0
C      1  0.5232400000000  0.6063700000000  0.4728870000000 1.0
C      1  0.4825160000000  0.3987510000000  0.4780210000000 1.0
C      1  0.5159480000000  0.3986960000000  0.4706400000000 1.0
C      1  0.4905870000000  0.6020930000000  0.4714780000000 1.0
C      1  0.4466260000000  0.4882160000000  0.4175700000000 1.0
C      1  0.5610230000000  0.5221930000000  0.4165800000000 1.0
C      1  0.4477600000000  0.5200010000000  0.4168480000000 1.0
C      1  0.5607480000000  0.4909910000000  0.4122820000000 1.0
C      1  0.4758410000000  0.5530190000000  0.5507450000000 1.0
C      1  0.5216530000000  0.4368430000000  0.5558880000000 1.0
C      1  0.4800500000000  0.4390140000000  0.5539790000000 1.0
C      1  0.5204400000000  0.5557850000000  0.5542820000000 1.0
C      1  0.5139780000000  0.4816940000000  0.4506670000000 1.0
C      1  0.4875610000000  0.5123970000000  0.4438460000000 1.0
C      1  0.5190620000000  0.5100170000000  0.4356660000000 1.0
C      1  0.4889600000000  0.4699310000000  0.4395690000000 1.0
C      1  0.4621980000000  0.6012380000000  0.5399670000000 1.0
C      1  0.5377410000000  0.3959080000000  0.5375180000000 1.0
C      1  0.4599000000000  0.3968990000000  0.5388320000000 1.0
C      1  0.5375670000000  0.5995020000000  0.5407140000000 1.0
C      1  0.5158300000000  0.5480460000000  0.5849890000000 1.0
C      1  0.4866190000000  0.4476450000000  0.5839000000000 1.0
C      1  0.5196660000000  0.4478830000000  0.5852170000000 1.0
C      1  0.4849660000000  0.5506070000000  0.5835830000000 1.0
C      1  0.5107880000000  0.3769400000000  0.5297540000000 1.0
C      1  0.4883660000000  0.6202830000000  0.5389980000000 1.0
C      1  0.5131170000000  0.6208180000000  0.5383440000000 1.0
C      1  0.4858370000000  0.3769690000000  0.5299760000000 1.0
C      1  0.4991030000000  0.4390810000000  0.5151160000000 1.0
C      1  0.5033200000000  0.5572250000000  0.5055350000000 1.0
C      1  0.5001320000000  0.5019490000000  0.4969990000000 1.0
END
