TITL C-2782232-2968-1300 -0.00209824763915468 125000 -245.205656600463 0 0 42 (C1) n - 1
REM
REM in /home/nfs/bkarasulu/CARBON/AIRSS/Generating-Clusters/REBO/Higher-Symm/SD-CG/HFTN-CG
REM
REM
REM
REM
REM
REM ./C.cell (12c818d87b63d06a65506943cc24bca4)
REM
REM compiler GCC version 9.2.1 20190827 (Red Hat 9.2.1-1)
REM options -cpp -mtune=generic -march=x86-64 -g -O0 -fpre-include=/usr/include/finclude/math-vector-fortran.h
REM seed -2023360967 -1898166300 -14337682 1176562623 -1320346493 1186624501 1450548911 -1841260016 -473499651 721823762 568453970 -1572390285 1628550983 -1585316896 1677361322 -843161892 989286616 -743870366 -5192062 1122508783 822836802 -117837588 1974700351 321250969 -635646704 1406918415 -1802290629 -295594938 1202447148 965175786 -314858732 244106452 -1352830738
REM
CELL 1.54180   50.00000   50.00000   50.00000   90.00000   90.00000   90.00000
LATT -1
SFAC C  
C      1  0.5556430000000  0.4713180000000  0.4901810000000 1.0
C      1  0.5534220000000  0.4900990000000  0.4673780000000 1.0
C      1  0.5508540000000  0.5222690000000  0.4691180000000 1.0
C      1  0.5511450000000  0.5318840000000  0.4989940000000 1.0
C      1  0.5573280000000  0.5258130000000  0.5288000000000 1.0
C      1  0.5570030000000  0.4978580000000  0.5382010000000 1.0
C      1  0.5568260000000  0.4740870000000  0.5201160000000 1.0
C      1  0.4387480000000  0.5010700000000  0.4670120000000 1.0
C      1  0.4279210000000  0.5221010000000  0.4829820000000 1.0
C      1  0.4421070000000  0.5313210000000  0.5060390000000 1.0
C      1  0.4388390000000  0.5155040000000  0.5296920000000 1.0
C      1  0.4259910000000  0.4904730000000  0.5242180000000 1.0
C      1  0.4392430000000  0.4715130000000  0.5073450000000 1.0
C      1  0.4408700000000  0.4745820000000  0.4786200000000 1.0
C      1  0.4914950000000  0.5033590000000  0.4606720000000 1.0
C      1  0.4979530000000  0.5288230000000  0.4779920000000 1.0
C      1  0.4943830000000  0.5264330000000  0.5117650000000 1.0
C      1  0.4898340000000  0.5106020000000  0.5385170000000 1.0
C      1  0.4923910000000  0.4791330000000  0.5368670000000 1.0
C      1  0.4914360000000  0.4644820000000  0.5059060000000 1.0
C      1  0.4909010000000  0.4721940000000  0.4742850000000 1.0
C      1  0.4623310000000  0.4598140000000  0.5193200000000 1.0
C      1  0.4627020000000  0.4600510000000  0.4669350000000 1.0
C      1  0.4615150000000  0.5072010000000  0.4503970000000 1.0
C      1  0.4734300000000  0.5520550000000  0.4738730000000 1.0
C      1  0.4679630000000  0.5415750000000  0.5009160000000 1.0
C      1  0.4606440000000  0.5168280000000  0.5481910000000 1.0
C      1  0.4655090000000  0.4621880000000  0.5488040000000 1.0
C      1  0.5160450000000  0.5185920000000  0.5559630000000 1.0
C      1  0.5191330000000  0.4712310000000  0.5499300000000 1.0
C      1  0.5184280000000  0.4473910000000  0.5088640000000 1.0
C      1  0.5174510000000  0.4596420000000  0.4630020000000 1.0
C      1  0.5157410000000  0.5017220000000  0.4399020000000 1.0
C      1  0.5242020000000  0.5431880000000  0.4721530000000 1.0
C      1  0.5238900000000  0.5398860000000  0.5125700000000 1.0
C      1  0.5335600000000  0.4949780000000  0.5574730000000 1.0
C      1  0.5345850000000  0.4562990000000  0.5309600000000 1.0
C      1  0.5338500000000  0.4504330000000  0.4848050000000 1.0
C      1  0.5322800000000  0.4796630000000  0.4488840000000 1.0
C      1  0.5338940000000  0.5233090000000  0.4395990000000 1.0
C      1  0.5268490000000  0.5693730000000  0.4699770000000 1.0
C      1  0.5316650000000  0.5396680000000  0.5427860000000 1.0
END
