TITL C-2782226-7400-1105 0.459894010035874 125000 -390.479053781967 0 0 68 (C1) n - 1
REM
REM in /home/nfs/bkarasulu/CARBON/AIRSS/Generating-Clusters/REBO/Higher-Symm/SD-CG/HFTN-CG
REM
REM
REM
REM
REM
REM ./C.cell (12c818d87b63d06a65506943cc24bca4)
REM
REM compiler GCC version 9.2.1 20190827 (Red Hat 9.2.1-1)
REM options -cpp -mtune=generic -march=x86-64 -g -O0 -fpre-include=/usr/include/finclude/math-vector-fortran.h
REM seed 481808277 922859760 -475524435 -987368180 445157124 1533857026 -1447550046 -989082509 -725728927 1363428638 1261675488 1585758708 -2001895124 -626613336 -1122002155 -1064626845 1638777137 1299218321 -757872384 125761824 124528261 338858186 588518754 -1551160106 1951929967 1770838716 -1441878419 1510438304 2096123832 344697504 1439029143 -1752972156 -2105767050
REM
CELL 1.54180   50.00000   50.00000   50.00000   90.00000   90.00000   90.00000
LATT -1
SFAC C  
C      1  0.5284800000000  0.4685530000000  0.4394230000000 1.0
C      1  0.4401810000000  0.4754620000000  0.4450090000000 1.0
C      1  0.4291860000000  0.4657600000000  0.5377310000000 1.0
C      1  0.5130080000000  0.4648460000000  0.5699290000000 1.0
C      1  0.5672700000000  0.4628590000000  0.5039730000000 1.0
C      1  0.5322010000000  0.5267270000000  0.5609000000000 1.0
C      1  0.4450610000000  0.5362830000000  0.5433080000000 1.0
C      1  0.4313790000000  0.5422250000000  0.4536630000000 1.0
C      1  0.5193100000000  0.5300610000000  0.4290060000000 1.0
C      1  0.5636710000000  0.5328440000000  0.4941750000000 1.0
C      1  0.5184810000000  0.5264440000000  0.4604820000000 1.0
C      1  0.4592810000000  0.5293960000000  0.4638970000000 1.0
C      1  0.4583460000000  0.5359670000000  0.5177440000000 1.0
C      1  0.4992040000000  0.5317290000000  0.5619990000000 1.0
C      1  0.5362560000000  0.5255590000000  0.5040400000000 1.0
C      1  0.5096950000000  0.4440430000000  0.5461210000000 1.0
C      1  0.4587480000000  0.4492690000000  0.5414810000000 1.0
C      1  0.4503840000000  0.4801150000000  0.4746930000000 1.0
C      1  0.5074620000000  0.4801940000000  0.4603150000000 1.0
C      1  0.5363080000000  0.4689820000000  0.5031090000000 1.0
C      1  0.5493820000000  0.5558880000000  0.4815320000000 1.0
C      1  0.4969210000000  0.5513980000000  0.4380500000000 1.0
C      1  0.4466560000000  0.5602530000000  0.4764850000000 1.0
C      1  0.4560840000000  0.5544880000000  0.5621760000000 1.0
C      1  0.5248140000000  0.5524930000000  0.5399470000000 1.0
C      1  0.5556330000000  0.4394740000000  0.5218920000000 1.0
C      1  0.4814090000000  0.4597160000000  0.5628010000000 1.0
C      1  0.4413770000000  0.4511970000000  0.5130470000000 1.0
C      1  0.4672010000000  0.4570840000000  0.4468370000000 1.0
C      1  0.5276820000000  0.4458370000000  0.4622240000000 1.0
C      1  0.4353850000000  0.5117980000000  0.5551450000000 1.0
C      1  0.5441070000000  0.5068280000000  0.5788710000000 1.0
C      1  0.6007980000000  0.5097430000000  0.5233280000000 1.0
C      1  0.5476190000000  0.5179150000000  0.4165950000000 1.0
C      1  0.4317770000000  0.5227990000000  0.4060010000000 1.0
C      1  0.4130910000000  0.4957160000000  0.4426610000000 1.0
C      1  0.5201800000000  0.4762950000000  0.4082200000000 1.0
C      1  0.5825200000000  0.4852990000000  0.4844040000000 1.0
C      1  0.5880990000000  0.5178050000000  0.6079280000000 1.0
C      1  0.4667490000000  0.4804330000000  0.5799240000000 1.0
C      1  0.5195340000000  0.5469990000000  0.5136890000000 1.0
C      1  0.5224440000000  0.5508860000000  0.4741290000000 1.0
C      1  0.4842030000000  0.5485660000000  0.4627230000000 1.0
C      1  0.4649240000000  0.5581780000000  0.5000070000000 1.0
C      1  0.4811620000000  0.5485090000000  0.5712230000000 1.0
C      1  0.5190500000000  0.4523830000000  0.4875300000000 1.0
C      1  0.5355560000000  0.4344820000000  0.5351640000000 1.0
C      1  0.4864910000000  0.4442110000000  0.5265330000000 1.0
C      1  0.4565660000000  0.4576760000000  0.4907870000000 1.0
C      1  0.4870560000000  0.4613060000000  0.4653190000000 1.0
C      1  0.5182690000000  0.5066840000000  0.4047890000000 1.0
C      1  0.4182820000000  0.5261730000000  0.4345880000000 1.0
C      1  0.4504760000000  0.5018720000000  0.5771860000000 1.0
C      1  0.5666900000000  0.5124630000000  0.5937880000000 1.0
C      1  0.5853170000000  0.5144480000000  0.4961770000000 1.0
C      1  0.5305330000000  0.4822990000000  0.5792470000000 1.0
C      1  0.4204210000000  0.4915470000000  0.5423760000000 1.0
C      1  0.4339330000000  0.4939300000000  0.4171500000000 1.0
C      1  0.5491840000000  0.4875820000000  0.4209730000000 1.0
C      1  0.5935570000000  0.4805920000000  0.5154490000000 1.0
C      1  0.4578280000000  0.5055960000000  0.4811920000000 1.0
C      1  0.5283830000000  0.4951720000000  0.5127940000000 1.0
C      1  0.4686980000000  0.5114320000000  0.5064570000000 1.0
C      1  0.5095360000000  0.5041780000000  0.4745530000000 1.0
C      1  0.5126360000000  0.5145020000000  0.5358850000000 1.0
C      1  0.4964900000000  0.5583880000000  0.4927490000000 1.0
C      1  0.4878220000000  0.4500710000000  0.4962630000000 1.0
C      1  0.4981130000000  0.5079760000000  0.5059870000000 1.0
END
