TITL C-2782227-3064-1111 -0.00556460820849516 125000 -547.365577048009 0 0 94 (C1) n - 1
REM
REM in /home/nfs/bkarasulu/CARBON/AIRSS/Generating-Clusters/REBO/Higher-Symm/SD-CG/HFTN-CG
REM
REM
REM
REM
REM
REM ./C.cell (12c818d87b63d06a65506943cc24bca4)
REM
REM compiler GCC version 9.2.1 20190827 (Red Hat 9.2.1-1)
REM options -cpp -mtune=generic -march=x86-64 -g -O0 -fpre-include=/usr/include/finclude/math-vector-fortran.h
REM seed -1392709534 1793209839 1901896525 -1294494621 1143598531 -1662021882 -1226446770 1824151883 1721422516 -730444150 -588502194 596476836 173678729 668540830 -2011786089 116673226 -866010792 1015508086 1123208184 -2138484521 1975598850 739052727 2143219445 593590480 -1586431700 1176931770 1215564300 812082428 581535078 1563382254 209575601 -1328326952 -825835631
REM
CELL 1.54180   50.00000   50.00000   50.00000   90.00000   90.00000   90.00000
LATT -1
SFAC C  
C      1  0.4842640000000  0.5196750000000  0.5731100000000 1.0
C      1  0.5132250000000  0.5211410000000  0.5726440000000 1.0
C      1  0.5238100000000  0.4940880000000  0.5734620000000 1.0
C      1  0.5009880000000  0.4762590000000  0.5738220000000 1.0
C      1  0.4763400000000  0.4917390000000  0.5744930000000 1.0
C      1  0.4843020000000  0.4798460000000  0.4253110000000 1.0
C      1  0.5132570000000  0.4783520000000  0.4258300000000 1.0
C      1  0.5238640000000  0.5053980000000  0.4250070000000 1.0
C      1  0.5010520000000  0.5232320000000  0.4245740000000 1.0
C      1  0.4763980000000  0.5077770000000  0.4238850000000 1.0
C      1  0.5415740000000  0.5694740000000  0.5427520000000 1.0
C      1  0.5767400000000  0.4817640000000  0.5401630000000 1.0
C      1  0.5117600000000  0.4260860000000  0.5368390000000 1.0
C      1  0.4249800000000  0.4705810000000  0.5417440000000 1.0
C      1  0.4499830000000  0.5595780000000  0.5369670000000 1.0
C      1  0.5415320000000  0.4299880000000  0.4557550000000 1.0
C      1  0.5767840000000  0.5176980000000  0.4583190000000 1.0
C      1  0.5106640000000  0.5737230000000  0.4615120000000 1.0
C      1  0.4251470000000  0.5290620000000  0.4567320000000 1.0
C      1  0.4498990000000  0.4400100000000  0.4613500000000 1.0
C      1  0.5261000000000  0.5410750000000  0.5537710000000 1.0
C      1  0.5470250000000  0.4841480000000  0.5568900000000 1.0
C      1  0.5031980000000  0.4541400000000  0.5543620000000 1.0
C      1  0.4523680000000  0.4833010000000  0.5579940000000 1.0
C      1  0.4688370000000  0.5397430000000  0.5579380000000 1.0
C      1  0.5260770000000  0.4583910000000  0.4447160000000 1.0
C      1  0.5470610000000  0.5153260000000  0.4416050000000 1.0
C      1  0.5031360000000  0.5453630000000  0.4440360000000 1.0
C      1  0.4524830000000  0.5162950000000  0.4404380000000 1.0
C      1  0.4688510000000  0.4598200000000  0.4404800000000 1.0
C      1  0.5046020000000  0.4667060000000  0.5248370000000 1.0
C      1  0.4594080000000  0.4813450000000  0.5250140000000 1.0
C      1  0.4663740000000  0.5336840000000  0.5245420000000 1.0
C      1  0.5170060000000  0.5309030000000  0.5257720000000 1.0
C      1  0.5389140000000  0.4870910000000  0.5262270000000 1.0
C      1  0.5046330000000  0.5327890000000  0.4735610000000 1.0
C      1  0.4595810000000  0.5182820000000  0.4734510000000 1.0
C      1  0.4663560000000  0.4658440000000  0.4738870000000 1.0
C      1  0.5169640000000  0.4685570000000  0.4727220000000 1.0
C      1  0.5389210000000  0.5123610000000  0.4722490000000 1.0
C      1  0.5431820000000  0.4838760000000  0.4866790000000 1.0
C      1  0.4942180000000  0.4545530000000  0.4850750000000 1.0
C      1  0.4520850000000  0.4885130000000  0.4863850000000 1.0
C      1  0.4757100000000  0.5406680000000  0.4863160000000 1.0
C      1  0.5318300000000  0.5389690000000  0.4896280000000 1.0
C      1  0.5432000000000  0.5155770000000  0.5117950000000 1.0
C      1  0.4942790000000  0.5448820000000  0.5134390000000 1.0
C      1  0.4520530000000  0.5110710000000  0.5120350000000 1.0
C      1  0.4756070000000  0.4590470000000  0.5121670000000 1.0
C      1  0.5318170000000  0.4604860000000  0.5088480000000 1.0
C      1  0.5726350000000  0.4733470000000  0.4862470000000 1.0
C      1  0.4955850000000  0.4237170000000  0.4853340000000 1.0
C      1  0.4215980000000  0.4826530000000  0.4882650000000 1.0
C      1  0.4633450000000  0.5692420000000  0.4861990000000 1.0
C      1  0.5499610000000  0.5631750000000  0.4887260000000 1.0
C      1  0.5726550000000  0.5260940000000  0.5122420000000 1.0
C      1  0.4955880000000  0.5757280000000  0.5130440000000 1.0
C      1  0.4216020000000  0.5170320000000  0.5101690000000 1.0
C      1  0.4632870000000  0.4304040000000  0.5121760000000 1.0
C      1  0.5499360000000  0.4362760000000  0.5097670000000 1.0
C      1  0.4557760000000  0.4203230000000  0.4871400000000 1.0
C      1  0.4120940000000  0.5212450000000  0.4839150000000 1.0
C      1  0.4995470000000  0.5862220000000  0.4872020000000 1.0
C      1  0.5839520000000  0.5293830000000  0.4860260000000 1.0
C      1  0.5569310000000  0.4272880000000  0.4831860000000 1.0
C      1  0.4558080000000  0.5793760000000  0.5112120000000 1.0
C      1  0.4120570000000  0.4784500000000  0.5145110000000 1.0
C      1  0.4997650000000  0.4130660000000  0.5112250000000 1.0
C      1  0.5839220000000  0.4700660000000  0.5124670000000 1.0
C      1  0.5569550000000  0.5721540000000  0.5153110000000 1.0
C      1  0.4071670000000  0.4945160000000  0.4642880000000 1.0
C      1  0.4732750000000  0.5867850000000  0.4639010000000 1.0
C      1  0.5718960000000  0.5551980000000  0.4704590000000 1.0
C      1  0.5733410000000  0.4502770000000  0.4683350000000 1.0
C      1  0.4773630000000  0.4113250000000  0.4642400000000 1.0
C      1  0.4071430000000  0.5051890000000  0.5341380000000 1.0
C      1  0.4746690000000  0.4123790000000  0.5335470000000 1.0
C      1  0.5718650000000  0.4442560000000  0.5280440000000 1.0
C      1  0.5733620000000  0.5491600000000  0.5301600000000 1.0
C      1  0.4774670000000  0.5882430000000  0.5341490000000 1.0
C      1  0.5593270000000  0.5459640000000  0.5579330000000 1.0
C      1  0.5653420000000  0.4554770000000  0.5572460000000 1.0
C      1  0.4870560000000  0.4249950000000  0.5592750000000 1.0
C      1  0.4215180000000  0.4973390000000  0.5612210000000 1.0
C      1  0.4704850000000  0.5736450000000  0.5606090000000 1.0
C      1  0.5593030000000  0.4534750000000  0.4405640000000 1.0
C      1  0.5653830000000  0.5439920000000  0.4412510000000 1.0
C      1  0.4865480000000  0.5742170000000  0.4386960000000 1.0
C      1  0.4215980000000  0.5023310000000  0.4372290000000 1.0
C      1  0.4704440000000  0.4259180000000  0.4377630000000 1.0
C      1  0.5096260000000  0.4988610000000  0.4710170000000 1.0
C      1  0.5096300000000  0.5006180000000  0.5274520000000 1.0
C      1  0.4818710000000  0.5008030000000  0.4627110000000 1.0
C      1  0.4818430000000  0.4986900000000  0.5356650000000 1.0
END
