TITL C-2782231-7322-363 -0.000189115960241787 125000 -1089.50657910505 0 0 191 (C1) n - 1
REM
REM in /home/nfs/bkarasulu/CARBON/AIRSS/Generating-Clusters/REBO/Higher-Symm/SD-CG/HFTN-CG
REM
REM
REM
REM
REM
REM ./C.cell (12c818d87b63d06a65506943cc24bca4)
REM
REM compiler GCC version 9.2.1 20190827 (Red Hat 9.2.1-1)
REM options -cpp -mtune=generic -march=x86-64 -g -O0 -fpre-include=/usr/include/finclude/math-vector-fortran.h
REM seed 1488424797 -371160836 -1742996963 -2015757661 1536770631 523205320 2134177175 1522376733 -1181785710 1892621665 1834875884 1395869433 255975632 -39423853 -276580685 -365778143 -732876373 255678507 -387188442 265219891 2049705873 -844379949 1566382226 -2081392846 -253194694 -1936542038 1284371881 -747266544 -97014568 1414737320 -1461677595 50294446 1196389356
REM
CELL 1.54180   50.00000   50.00000   50.00000   90.00000   90.00000   90.00000
LATT -1
SFAC C  
C      1  0.5487660000000  0.4267770000000  0.4461890000000 1.0
C      1  0.5719610000000  0.4224090000000  0.5214310000000 1.0
C      1  0.5004100000000  0.4235010000000  0.5744770000000 1.0
C      1  0.4293430000000  0.4267140000000  0.5190270000000 1.0
C      1  0.4542410000000  0.4216820000000  0.4390170000000 1.0
C      1  0.5366090000000  0.5777340000000  0.4327220000000 1.0
C      1  0.5711660000000  0.5726470000000  0.5140200000000 1.0
C      1  0.5028270000000  0.5726990000000  0.5712400000000 1.0
C      1  0.4311390000000  0.5760920000000  0.5286550000000 1.0
C      1  0.4483650000000  0.5767940000000  0.4443130000000 1.0
C      1  0.5321160000000  0.4828550000000  0.4912710000000 1.0
C      1  0.5180960000000  0.4829820000000  0.5298500000000 1.0
C      1  0.4794570000000  0.4916020000000  0.5266430000000 1.0
C      1  0.4715480000000  0.4762150000000  0.4910340000000 1.0
C      1  0.5010650000000  0.4753180000000  0.4630470000000 1.0
C      1  0.5336920000000  0.5153430000000  0.4893010000000 1.0
C      1  0.5178950000000  0.5166170000000  0.5240230000000 1.0
C      1  0.4786840000000  0.5234380000000  0.5202620000000 1.0
C      1  0.4677560000000  0.5095340000000  0.4845550000000 1.0
C      1  0.5027910000000  0.5078640000000  0.4657920000000 1.0
C      1  0.4309340000000  0.4900790000000  0.4301950000000 1.0
C      1  0.5487390000000  0.4740340000000  0.4093300000000 1.0
C      1  0.5999300000000  0.4726030000000  0.5108640000000 1.0
C      1  0.5186760000000  0.4815380000000  0.6024430000000 1.0
C      1  0.4065130000000  0.4824580000000  0.5475550000000 1.0
C      1  0.4227520000000  0.5216780000000  0.4261120000000 1.0
C      1  0.5431330000000  0.5238090000000  0.4057010000000 1.0
C      1  0.6035600000000  0.5220200000000  0.5094150000000 1.0
C      1  0.5215530000000  0.5140750000000  0.5956230000000 1.0
C      1  0.4121100000000  0.5147320000000  0.5498690000000 1.0
C      1  0.5210840000000  0.6093810000000  0.5539300000000 1.0
C      1  0.4593410000000  0.6036730000000  0.5459190000000 1.0
C      1  0.4458920000000  0.6011170000000  0.4792420000000 1.0
C      1  0.5110030000000  0.6139430000000  0.4503960000000 1.0
C      1  0.5525360000000  0.6112550000000  0.4975130000000 1.0
C      1  0.5201470000000  0.3875980000000  0.5533850000000 1.0
C      1  0.4590550000000  0.4026940000000  0.5425610000000 1.0
C      1  0.4481140000000  0.3980940000000  0.4740740000000 1.0
C      1  0.5068850000000  0.3834410000000  0.4497490000000 1.0
C      1  0.5546180000000  0.3907320000000  0.4976860000000 1.0
C      1  0.4743180000000  0.6085700000000  0.5193450000000 1.0
C      1  0.4756400000000  0.6057170000000  0.4861310000000 1.0
C      1  0.5077360000000  0.6047220000000  0.4791940000000 1.0
C      1  0.5235940000000  0.6070380000000  0.5059070000000 1.0
C      1  0.5040790000000  0.6107370000000  0.5292080000000 1.0
C      1  0.4750920000000  0.3949060000000  0.5174170000000 1.0
C      1  0.4772020000000  0.3937870000000  0.4845000000000 1.0
C      1  0.5096480000000  0.3948540000000  0.4769130000000 1.0
C      1  0.5253340000000  0.3945790000000  0.5045020000000 1.0
C      1  0.5045960000000  0.3908970000000  0.5277620000000 1.0
C      1  0.4863510000000  0.5561980000000  0.5210230000000 1.0
C      1  0.4714060000000  0.5601950000000  0.4904910000000 1.0
C      1  0.4960160000000  0.5582200000000  0.4683810000000 1.0
C      1  0.5255030000000  0.5521820000000  0.4837330000000 1.0
C      1  0.5198170000000  0.5505170000000  0.5174430000000 1.0
C      1  0.4858850000000  0.4453890000000  0.5253420000000 1.0
C      1  0.4748740000000  0.4443040000000  0.4931500000000 1.0
C      1  0.5004880000000  0.4427030000000  0.4704930000000 1.0
C      1  0.5275510000000  0.4486850000000  0.4912350000000 1.0
C      1  0.5194330000000  0.4488210000000  0.5245400000000 1.0
C      1  0.4158100000000  0.5188520000000  0.4949920000000 1.0
C      1  0.4876570000000  0.5204690000000  0.4241710000000 1.0
C      1  0.5643410000000  0.5208760000000  0.4646680000000 1.0
C      1  0.5535380000000  0.5187420000000  0.5474730000000 1.0
C      1  0.4763850000000  0.5154240000000  0.5721340000000 1.0
C      1  0.4277020000000  0.4879710000000  0.4903290000000 1.0
C      1  0.4909950000000  0.4866310000000  0.4262880000000 1.0
C      1  0.5648830000000  0.4871830000000  0.4681510000000 1.0
C      1  0.5510830000000  0.4857270000000  0.5521330000000 1.0
C      1  0.4719230000000  0.4827040000000  0.5770320000000 1.0
C      1  0.4549950000000  0.4883830000000  0.4095820000000 1.0
C      1  0.5695970000000  0.4892470000000  0.4279420000000 1.0
C      1  0.5894080000000  0.4860470000000  0.5380670000000 1.0
C      1  0.4891040000000  0.4815220000000  0.6131140000000 1.0
C      1  0.3878720000000  0.4825450000000  0.5205810000000 1.0
C      1  0.4501510000000  0.5175440000000  0.4086880000000 1.0
C      1  0.5670650000000  0.5154570000000  0.4252840000000 1.0
C      1  0.5915270000000  0.5121020000000  0.5371540000000 1.0
C      1  0.4926740000000  0.5111970000000  0.6082810000000 1.0
C      1  0.3916930000000  0.5128020000000  0.5262940000000 1.0
C      1  0.4419020000000  0.4888530000000  0.4623880000000 1.0
C      1  0.5238740000000  0.4824800000000  0.4297450000000 1.0
C      1  0.5719720000000  0.4831790000000  0.5001250000000 1.0
C      1  0.5227290000000  0.4827990000000  0.5695070000000 1.0
C      1  0.4400040000000  0.4869940000000  0.5430350000000 1.0
C      1  0.4430920000000  0.5209430000000  0.4539210000000 1.0
C      1  0.5199670000000  0.5141020000000  0.4283560000000 1.0
C      1  0.5730120000000  0.5146600000000  0.4960110000000 1.0
C      1  0.5258790000000  0.5148410000000  0.5628340000000 1.0
C      1  0.4436100000000  0.5207380000000  0.5387440000000 1.0
C      1  0.5799690000000  0.5379680000000  0.5534030000000 1.0
C      1  0.4753010000000  0.5359120000000  0.5985660000000 1.0
C      1  0.3963170000000  0.5391350000000  0.5099730000000 1.0
C      1  0.4699640000000  0.5428320000000  0.4082820000000 1.0
C      1  0.5754390000000  0.5425110000000  0.4426740000000 1.0
C      1  0.5756580000000  0.4624630000000  0.5555700000000 1.0
C      1  0.4693030000000  0.4602250000000  0.6013100000000 1.0
C      1  0.4040300000000  0.4690430000000  0.4964270000000 1.0
C      1  0.4730860000000  0.4626230000000  0.4100150000000 1.0
C      1  0.5827100000000  0.4669960000000  0.4484920000000 1.0
C      1  0.5643050000000  0.5737810000000  0.4497560000000 1.0
C      1  0.5636220000000  0.5647760000000  0.5457860000000 1.0
C      1  0.4733660000000  0.5681960000000  0.5887470000000 1.0
C      1  0.4073390000000  0.5701890000000  0.5044130000000 1.0
C      1  0.4729420000000  0.5742810000000  0.4210050000000 1.0
C      1  0.5777950000000  0.4373360000000  0.4608010000000 1.0
C      1  0.5626930000000  0.4334530000000  0.5518070000000 1.0
C      1  0.4692800000000  0.4303830000000  0.5871820000000 1.0
C      1  0.4099860000000  0.4362030000000  0.4920830000000 1.0
C      1  0.4811990000000  0.4331770000000  0.4215870000000 1.0
C      1  0.5496730000000  0.5287200000000  0.5917190000000 1.0
C      1  0.4263960000000  0.5292810000000  0.5737740000000 1.0
C      1  0.4017260000000  0.5313230000000  0.4485670000000 1.0
C      1  0.5132780000000  0.5292930000000  0.3921770000000 1.0
C      1  0.6053670000000  0.5279480000000  0.4770160000000 1.0
C      1  0.5464970000000  0.4663730000000  0.5971370000000 1.0
C      1  0.4212350000000  0.4661060000000  0.5714320000000 1.0
C      1  0.4112510000000  0.4701130000000  0.4449770000000 1.0
C      1  0.5215750000000  0.4617640000000  0.3957090000000 1.0
C      1  0.6110660000000  0.4606680000000  0.4834070000000 1.0
C      1  0.5318160000000  0.5564070000000  0.5492580000000 1.0
C      1  0.4591740000000  0.5508970000000  0.5416800000000 1.0
C      1  0.4445420000000  0.5491140000000  0.4729260000000 1.0
C      1  0.4997990000000  0.5630330000000  0.4357110000000 1.0
C      1  0.5584560000000  0.5591120000000  0.4787650000000 1.0
C      1  0.5310870000000  0.4401430000000  0.5554100000000 1.0
C      1  0.4597560000000  0.4590240000000  0.5423670000000 1.0
C      1  0.4536280000000  0.4508060000000  0.4659050000000 1.0
C      1  0.5090580000000  0.4339300000000  0.4384470000000 1.0
C      1  0.5601000000000  0.4427310000000  0.4893270000000 1.0
C      1  0.4572560000000  0.5820760000000  0.5124420000000 1.0
C      1  0.4763010000000  0.5846990000000  0.4594000000000 1.0
C      1  0.5283200000000  0.5812510000000  0.4654100000000 1.0
C      1  0.5394860000000  0.5792470000000  0.5174900000000 1.0
C      1  0.4936650000000  0.5820370000000  0.5420660000000 1.0
C      1  0.4565430000000  0.4195650000000  0.5065820000000 1.0
C      1  0.4805190000000  0.4163760000000  0.4599760000000 1.0
C      1  0.5323140000000  0.4187030000000  0.4734820000000 1.0
C      1  0.5391770000000  0.4199200000000  0.5219640000000 1.0
C      1  0.4958270000000  0.4183260000000  0.5431630000000 1.0
C      1  0.4972990000000  0.4411500000000  0.6035130000000 1.0
C      1  0.4034380000000  0.4477510000000  0.5234090000000 1.0
C      1  0.4451470000000  0.4437340000000  0.4145220000000 1.0
C      1  0.5638690000000  0.4498860000000  0.4259490000000 1.0
C      1  0.5933740000000  0.4471950000000  0.5307060000000 1.0
C      1  0.5025090000000  0.5558390000000  0.6009490000000 1.0
C      1  0.4022310000000  0.5596160000000  0.5361420000000 1.0
C      1  0.4400390000000  0.5549490000000  0.4192380000000 1.0
C      1  0.5538870000000  0.5522850000000  0.4181660000000 1.0
C      1  0.5937940000000  0.5498470000000  0.5246400000000 1.0
C      1  0.5653890000000  0.4109010000000  0.4787750000000 1.0
C      1  0.5402420000000  0.4077830000000  0.5538320000000 1.0
C      1  0.4656980000000  0.4292870000000  0.5558050000000 1.0
C      1  0.4372250000000  0.4262760000000  0.4798610000000 1.0
C      1  0.4952010000000  0.4036680000000  0.4316820000000 1.0
C      1  0.5583120000000  0.5932810000000  0.4766290000000 1.0
C      1  0.5402440000000  0.5891510000000  0.5502550000000 1.0
C      1  0.4648170000000  0.5774070000000  0.5601460000000 1.0
C      1  0.4342260000000  0.5747910000000  0.4888940000000 1.0
C      1  0.4949070000000  0.5969070000000  0.4335170000000 1.0
C      1  0.4492970000000  0.4832830000000  0.5125100000000 1.0
C      1  0.4707380000000  0.4746020000000  0.4511930000000 1.0
C      1  0.5345580000000  0.4762120000000  0.4589570000000 1.0
C      1  0.5489680000000  0.4753240000000  0.5198280000000 1.0
C      1  0.4934210000000  0.4808990000000  0.5534360000000 1.0
C      1  0.4476700000000  0.5224840000000  0.5052780000000 1.0
C      1  0.4756590000000  0.5202540000000  0.4537500000000 1.0
C      1  0.5310330000000  0.5223840000000  0.4577380000000 1.0
C      1  0.5501960000000  0.5246980000000  0.5162320000000 1.0
C      1  0.4956870000000  0.5206330000000  0.5497400000000 1.0
C      1  0.5276310000000  0.5505210000000  0.5803950000000 1.0
C      1  0.4289230000000  0.5541950000000  0.5550000000000 1.0
C      1  0.4228580000000  0.5548370000000  0.4482490000000 1.0
C      1  0.5199680000000  0.5547430000000  0.4137320000000 1.0
C      1  0.5860190000000  0.5521440000000  0.4911520000000 1.0
C      1  0.5243590000000  0.4460520000000  0.5850860000000 1.0
C      1  0.4283350000000  0.4485750000000  0.5452070000000 1.0
C      1  0.4297320000000  0.4452400000000  0.4441980000000 1.0
C      1  0.5319270000000  0.4397970000000  0.4195380000000 1.0
C      1  0.5923800000000  0.4361080000000  0.4978980000000 1.0
C      1  0.4459380000000  0.5118580000000  0.5846090000000 1.0
C      1  0.3988190000000  0.5116630000000  0.4690490000000 1.0
C      1  0.5011530000000  0.5069980000000  0.3829820000000 1.0
C      1  0.6133290000000  0.5068130000000  0.4622540000000 1.0
C      1  0.5701110000000  0.5107590000000  0.5929870000000 1.0
C      1  0.4396990000000  0.4817930000000  0.5859310000000 1.0
C      1  0.3943890000000  0.4845460000000  0.4609920000000 1.0
C      1  0.5050070000000  0.4798060000000  0.3845060000000 1.0
C      1  0.6168880000000  0.4795980000000  0.4649690000000 1.0
C      1  0.5678090000000  0.4831050000000  0.5952420000000 1.0
C      1  0.4969180000000  0.4963480000000  0.4972450000000 1.0
END
