TITL C-2782233-7966-916 0.000404096503618125 125000 -118.216690724754 0 0 23 (C1) n - 1
REM
REM in /home/nfs/bkarasulu/CARBON/AIRSS/Generating-Clusters/REBO/Higher-Symm/SD-CG/HFTN-CG
REM
REM
REM
REM
REM
REM ./C.cell (12c818d87b63d06a65506943cc24bca4)
REM
REM compiler GCC version 9.2.1 20190827 (Red Hat 9.2.1-1)
REM options -cpp -mtune=generic -march=x86-64 -g -O0 -fpre-include=/usr/include/finclude/math-vector-fortran.h
REM seed -1691111683 -801782843 515289756 1541099402 -118462771 -54481554 -1706361475 -2142120149 1009093847 1069719351 -516560294 1383344231 -1656708924 -966123833 198880369 -266495217 -82224599 -1285781179 -1512539432 242862456 -1815965705 2131803029 -712508456 -1184761523 -1673982633 -635839237 281261565 1694950600 1357978408 1225706054 1844784376 255615752 72921579
REM
CELL 1.54180   50.00000   50.00000   50.00000   90.00000   90.00000   90.00000
LATT -1
SFAC C  
C      1  0.4985370000000  0.5172350000000  0.4290200000000 1.0
C      1  0.4860560000000  0.4825030000000  0.5573180000000 1.0
C      1  0.5182020000000  0.5014350000000  0.4415620000000 1.0
C      1  0.5131660000000  0.4940800000000  0.5571570000000 1.0
C      1  0.4727750000000  0.4973060000000  0.5317970000000 1.0
C      1  0.4937070000000  0.5014570000000  0.4850000000000 1.0
C      1  0.5200420000000  0.4956250000000  0.5288070000000 1.0
C      1  0.5205610000000  0.5082630000000  0.4697740000000 1.0
C      1  0.5072420000000  0.5522700000000  0.4603920000000 1.0
C      1  0.5103840000000  0.4485070000000  0.5284020000000 1.0
C      1  0.4864990000000  0.5352930000000  0.4486490000000 1.0
C      1  0.4860490000000  0.4535730000000  0.5429810000000 1.0
C      1  0.5270030000000  0.4696410000000  0.5178290000000 1.0
C      1  0.5277980000000  0.5365690000000  0.4736490000000 1.0
C      1  0.4623210000000  0.4682900000000  0.5285830000000 1.0
C      1  0.4730950000000  0.5198960000000  0.4696210000000 1.0
C      1  0.5492460000000  0.5458820000000  0.4871940000000 1.0
C      1  0.5459990000000  0.4659270000000  0.4988200000000 1.0
C      1  0.4463050000000  0.5205470000000  0.4759350000000 1.0
C      1  0.4406220000000  0.4585180000000  0.5160900000000 1.0
C      1  0.4869860000000  0.4739990000000  0.4830400000000 1.0
C      1  0.4970360000000  0.5387880000000  0.5166660000000 1.0
C      1  0.4958780000000  0.5107000000000  0.5141190000000 1.0
END
