TITL C-2782231-7322-1154 -0.000761412023570265 125000 -1039.2940329439 0 0 176 (C1) n - 1
REM
REM in /home/nfs/bkarasulu/CARBON/AIRSS/Generating-Clusters/REBO/Higher-Symm/SD-CG/HFTN-CG
REM
REM
REM
REM
REM
REM ./C.cell (12c818d87b63d06a65506943cc24bca4)
REM
REM compiler GCC version 9.2.1 20190827 (Red Hat 9.2.1-1)
REM options -cpp -mtune=generic -march=x86-64 -g -O0 -fpre-include=/usr/include/finclude/math-vector-fortran.h
REM seed -1688585897 55114053 -666181013 -1695436116 2000292150 -455791556 442623513 344481205 -1107117327 -238978329 399306536 -1983604246 -1625836829 -1597203852 -1985263618 -1263957351 1557712713 -1590496662 -367246992 -1591794371 1897711903 -288970221 -404245209 -1749093952 962705145 -126206876 -725396899 680426533 -333249120 241555270 -1851204661 103420151 -1042314474
REM
CELL 1.54180   50.00000   50.00000   50.00000   90.00000   90.00000   90.00000
LATT -1
SFAC C  
C      1  0.4484740000000  0.5674930000000  0.5733350000000 1.0
C      1  0.5700170000000  0.5495670000000  0.4279340000000 1.0
C      1  0.5450450000000  0.4368130000000  0.5873150000000 1.0
C      1  0.4358340000000  0.4563540000000  0.4165350000000 1.0
C      1  0.4335840000000  0.5870720000000  0.5010800000000 1.0
C      1  0.5881040000000  0.5647450000000  0.4978380000000 1.0
C      1  0.5628060000000  0.4111390000000  0.4958930000000 1.0
C      1  0.4156790000000  0.4351080000000  0.5031250000000 1.0
C      1  0.5123450000000  0.4418430000000  0.4310180000000 1.0
C      1  0.4447680000000  0.4847610000000  0.5708810000000 1.0
C      1  0.4821380000000  0.5688350000000  0.4289450000000 1.0
C      1  0.5570940000000  0.5131880000000  0.5680160000000 1.0
C      1  0.4476780000000  0.5316040000000  0.4865940000000 1.0
C      1  0.5332530000000  0.5542620000000  0.5107260000000 1.0
C      1  0.5512920000000  0.4670340000000  0.4871700000000 1.0
C      1  0.4632660000000  0.4510890000000  0.5082570000000 1.0
C      1  0.4287700000000  0.5665020000000  0.5217050000000 1.0
C      1  0.5683540000000  0.5708520000000  0.4766250000000 1.0
C      1  0.5717150000000  0.4293430000000  0.5181700000000 1.0
C      1  0.4301220000000  0.4297050000000  0.4770870000000 1.0
C      1  0.4564380000000  0.5377940000000  0.6124170000000 1.0
C      1  0.5406320000000  0.5433100000000  0.3876820000000 1.0
C      1  0.5452410000000  0.4672930000000  0.6132170000000 1.0
C      1  0.4672490000000  0.4562500000000  0.3857410000000 1.0
C      1  0.4814120000000  0.5703560000000  0.5078060000000 1.0
C      1  0.5696860000000  0.5175230000000  0.4909800000000 1.0
C      1  0.5147130000000  0.4279810000000  0.5080770000000 1.0
C      1  0.4268960000000  0.4839510000000  0.4937640000000 1.0
C      1  0.4855850000000  0.3879720000000  0.4884220000000 1.0
C      1  0.3869870000000  0.5120500000000  0.5140400000000 1.0
C      1  0.5125580000000  0.6142010000000  0.4869520000000 1.0
C      1  0.6116520000000  0.4855940000000  0.5112150000000 1.0
C      1  0.4126830000000  0.5005050000000  0.4691930000000 1.0
C      1  0.4908820000000  0.5804110000000  0.5376620000000 1.0
C      1  0.5805220000000  0.5075330000000  0.4620240000000 1.0
C      1  0.5002700000000  0.4116750000000  0.5342360000000 1.0
C      1  0.4590910000000  0.4380400000000  0.5980980000000 1.0
C      1  0.4474570000000  0.5369410000000  0.4049390000000 1.0
C      1  0.5360310000000  0.5581870000000  0.5908030000000 1.0
C      1  0.5553960000000  0.4659090000000  0.4069680000000 1.0
C      1  0.3833210000000  0.5054690000000  0.4843430000000 1.0
C      1  0.4993800000000  0.6234210000000  0.5140410000000 1.0
C      1  0.6229930000000  0.4982500000000  0.4850620000000 1.0
C      1  0.4932330000000  0.3830190000000  0.5179950000000 1.0
C      1  0.5398490000000  0.5400660000000  0.5641520000000 1.0
C      1  0.5384970000000  0.4600470000000  0.4337650000000 1.0
C      1  0.4580030000000  0.4547340000000  0.5682790000000 1.0
C      1  0.4622300000000  0.5443670000000  0.4329580000000 1.0
C      1  0.6154770000000  0.4552340000000  0.5193690000000 1.0
C      1  0.4547120000000  0.3847120000000  0.4800730000000 1.0
C      1  0.3838010000000  0.5414480000000  0.5247220000000 1.0
C      1  0.5441470000000  0.6169780000000  0.4811100000000 1.0
C      1  0.4816110000000  0.5403320000000  0.6093590000000 1.0
C      1  0.5411650000000  0.5179600000000  0.3902310000000 1.0
C      1  0.5201150000000  0.4654780000000  0.6106160000000 1.0
C      1  0.4669040000000  0.4813890000000  0.3895320000000 1.0
C      1  0.5327310000000  0.4475630000000  0.3890510000000 1.0
C      1  0.4384550000000  0.4611500000000  0.6123240000000 1.0
C      1  0.4710240000000  0.5540050000000  0.3864800000000 1.0
C      1  0.5554720000000  0.5364240000000  0.6091420000000 1.0
C      1  0.5003930000000  0.4612530000000  0.4747370000000 1.0
C      1  0.4626530000000  0.4933800000000  0.5262440000000 1.0
C      1  0.4975930000000  0.5402120000000  0.4746690000000 1.0
C      1  0.5381190000000  0.5037360000000  0.5248080000000 1.0
C      1  0.4952820000000  0.4036730000000  0.4362940000000 1.0
C      1  0.4053360000000  0.5040690000000  0.5647610000000 1.0
C      1  0.5095990000000  0.5973660000000  0.4345870000000 1.0
C      1  0.5963510000000  0.4957980000000  0.5612480000000 1.0
C      1  0.5728340000000  0.4749470000000  0.4617820000000 1.0
C      1  0.4784120000000  0.4213280000000  0.5517760000000 1.0
C      1  0.4301020000000  0.5224720000000  0.4578860000000 1.0
C      1  0.5232760000000  0.5721400000000  0.5384250000000 1.0
C      1  0.4938940000000  0.5291950000000  0.5245520000000 1.0
C      1  0.5266330000000  0.5071410000000  0.4756150000000 1.0
C      1  0.5058500000000  0.4651150000000  0.5268600000000 1.0
C      1  0.4704490000000  0.4934780000000  0.4738400000000 1.0
C      1  0.6020520000000  0.5407230000000  0.4940930000000 1.0
C      1  0.5391260000000  0.3969170000000  0.5018660000000 1.0
C      1  0.3980380000000  0.4572330000000  0.5004230000000 1.0
C      1  0.4570830000000  0.6018930000000  0.5049400000000 1.0
C      1  0.4137040000000  0.5180540000000  0.5368200000000 1.0
C      1  0.5203450000000  0.5897950000000  0.4644390000000 1.0
C      1  0.5873720000000  0.4790070000000  0.5346610000000 1.0
C      1  0.4794240000000  0.4113490000000  0.4638550000000 1.0
C      1  0.5677990000000  0.4867690000000  0.4306220000000 1.0
C      1  0.4867040000000  0.4297110000000  0.5800700000000 1.0
C      1  0.4359250000000  0.5148300000000  0.4281070000000 1.0
C      1  0.5114460000000  0.5674550000000  0.5691870000000 1.0
C      1  0.4070900000000  0.4796570000000  0.5465600000000 1.0
C      1  0.4849480000000  0.6039450000000  0.4526480000000 1.0
C      1  0.5920790000000  0.5196850000000  0.5422700000000 1.0
C      1  0.5189930000000  0.4079780000000  0.4552060000000 1.0
C      1  0.5833450000000  0.4891300000000  0.5856410000000 1.0
C      1  0.4873020000000  0.4170420000000  0.4127540000000 1.0
C      1  0.4204670000000  0.5117480000000  0.5872700000000 1.0
C      1  0.5167540000000  0.5806010000000  0.4132030000000 1.0
C      1  0.5746210000000  0.5405810000000  0.5449080000000 1.0
C      1  0.5401570000000  0.4267440000000  0.4554720000000 1.0
C      1  0.4240210000000  0.4584970000000  0.5491040000000 1.0
C      1  0.4648200000000  0.5772230000000  0.4565910000000 1.0
C      1  0.5101400000000  0.5092870000000  0.5391950000000 1.0
C      1  0.5078580000000  0.4881530000000  0.4608330000000 1.0
C      1  0.4904480000000  0.4862790000000  0.5406380000000 1.0
C      1  0.4894830000000  0.5134560000000  0.4601310000000 1.0
C      1  0.4933000000000  0.4521950000000  0.5018950000000 1.0
C      1  0.4536990000000  0.5017940000000  0.4988080000000 1.0
C      1  0.5038920000000  0.5475590000000  0.5029360000000 1.0
C      1  0.5455680000000  0.4963780000000  0.4969740000000 1.0
C      1  0.5401540000000  0.5603500000000  0.4153320000000 1.0
C      1  0.5635310000000  0.4657420000000  0.5860230000000 1.0
C      1  0.4639960000000  0.4371420000000  0.4124040000000 1.0
C      1  0.4396060000000  0.5364780000000  0.5848560000000 1.0
C      1  0.5343280000000  0.5345540000000  0.4367850000000 1.0
C      1  0.5379130000000  0.4608750000000  0.5638340000000 1.0
C      1  0.4638990000000  0.4625490000000  0.4352700000000 1.0
C      1  0.4646190000000  0.5332100000000  0.5619160000000 1.0
C      1  0.4865060000000  0.4812590000000  0.5686810000000 1.0
C      1  0.4815240000000  0.5194890000000  0.4322350000000 1.0
C      1  0.5174840000000  0.5185670000000  0.5673410000000 1.0
C      1  0.5165150000000  0.4823790000000  0.4331490000000 1.0
C      1  0.5129630000000  0.4037070000000  0.4841880000000 1.0
C      1  0.4027130000000  0.4848070000000  0.5176740000000 1.0
C      1  0.4839770000000  0.5961760000000  0.4857800000000 1.0
C      1  0.5953900000000  0.5134790000000  0.5129940000000 1.0
C      1  0.4460070000000  0.4097670000000  0.4673190000000 1.0
C      1  0.4098660000000  0.5510050000000  0.5335830000000 1.0
C      1  0.5532960000000  0.5920180000000  0.4684590000000 1.0
C      1  0.5901990000000  0.4453900000000  0.5300510000000 1.0
C      1  0.4744260000000  0.4674420000000  0.5962820000000 1.0
C      1  0.4723300000000  0.5222020000000  0.3869880000000 1.0
C      1  0.5238430000000  0.5336700000000  0.6109790000000 1.0
C      1  0.5295410000000  0.4795580000000  0.3892050000000 1.0
C      1  0.4682440000000  0.5354290000000  0.5341160000000 1.0
C      1  0.5353370000000  0.5316200000000  0.4647250000000 1.0
C      1  0.5307160000000  0.4570080000000  0.5348750000000 1.0
C      1  0.4613750000000  0.4698250000000  0.4637320000000 1.0
C      1  0.4545750000000  0.4617660000000  0.5361600000000 1.0
C      1  0.4659020000000  0.5452150000000  0.4656990000000 1.0
C      1  0.5446740000000  0.5357770000000  0.5327490000000 1.0
C      1  0.5313570000000  0.4561120000000  0.4654220000000 1.0
C      1  0.5446790000000  0.5082100000000  0.4193240000000 1.0
C      1  0.5097560000000  0.4546440000000  0.5826360000000 1.0
C      1  0.4567820000000  0.4901660000000  0.4174670000000 1.0
C      1  0.4900330000000  0.5445150000000  0.5801500000000 1.0
C      1  0.5112850000000  0.4327770000000  0.4010330000000 1.0
C      1  0.4339760000000  0.4865470000000  0.5991830000000 1.0
C      1  0.4926230000000  0.5675010000000  0.3995760000000 1.0
C      1  0.5691570000000  0.5148500000000  0.5958810000000 1.0
C      1  0.5550050000000  0.5768460000000  0.5355290000000 1.0
C      1  0.5834510000000  0.4447270000000  0.4648930000000 1.0
C      1  0.4531330000000  0.4221820000000  0.5414150000000 1.0
C      1  0.4250180000000  0.5540460000000  0.4625050000000 1.0
C      1  0.4230660000000  0.4845430000000  0.4189810000000 1.0
C      1  0.4770670000000  0.5710830000000  0.5650580000000 1.0
C      1  0.5717970000000  0.5209480000000  0.4344440000000 1.0
C      1  0.5186940000000  0.4214230000000  0.5885780000000 1.0
C      1  0.4895640000000  0.5102170000000  0.4066050000000 1.0
C      1  0.5112800000000  0.5139910000000  0.5946710000000 1.0
C      1  0.5105170000000  0.4914650000000  0.4071630000000 1.0
C      1  0.4943240000000  0.4931070000000  0.5975930000000 1.0
C      1  0.5599140000000  0.4961370000000  0.5452180000000 1.0
C      1  0.4946920000000  0.4395830000000  0.4534910000000 1.0
C      1  0.4410440000000  0.5007080000000  0.5473670000000 1.0
C      1  0.4985140000000  0.5670070000000  0.4580720000000 1.0
C      1  0.5521490000000  0.5463990000000  0.4865740000000 1.0
C      1  0.5448630000000  0.4437140000000  0.5105390000000 1.0
C      1  0.4436230000000  0.4571880000000  0.4850300000000 1.0
C      1  0.4535530000000  0.5511870000000  0.5115150000000 1.0
C      1  0.3915500000000  0.4748220000000  0.4774430000000 1.0
C      1  0.4799320000000  0.6068430000000  0.5240510000000 1.0
C      1  0.6069720000000  0.5181070000000  0.4750220000000 1.0
C      1  0.5242130000000  0.3892420000000  0.5252890000000 1.0
C      1  0.5655380000000  0.4226620000000  0.4691550000000 1.0
C      1  0.4309950000000  0.4266650000000  0.5259960000000 1.0
C      1  0.4260190000000  0.5776970000000  0.4752930000000 1.0
C      1  0.5788000000000  0.5738780000000  0.5231640000000 1.0
END
