TITL C-2782240-8521-1353 0.00178520638938333 125000 -679.917752788223 0 0 111 (C1) n - 1
REM
REM in /home/nfs/bkarasulu/CARBON/AIRSS/Generating-Clusters/REBO/Higher-Symm/SD-CG/HFTN-CG
REM
REM
REM
REM
REM
REM ./C.cell (12c818d87b63d06a65506943cc24bca4)
REM
REM compiler GCC version 9.2.1 20190827 (Red Hat 9.2.1-1)
REM options -cpp -mtune=generic -march=x86-64 -g -O0 -fpre-include=/usr/include/finclude/math-vector-fortran.h
REM seed 715166401 -220683362 2126242367 1833555369 -317612765 -2128868258 1564868924 -496958422 -1982993790 122674113 1869036883 151853597 551648886 -461051569 1487819525 -415575892 -1869338183 138218721 -1296818671 2095962043 -1069875502 1952965850 1833088546 1421056495 283459561 -803626303 -1003252401 1680183194 -203732465 1751893481 -832212900 268160337 1783131058
REM
CELL 1.54180   50.00000   50.00000   50.00000   90.00000   90.00000   90.00000
LATT -1
SFAC C  
C      1  0.5221850000000  0.5177350000000  0.5242380000000 1.0
C      1  0.4867100000000  0.5346780000000  0.5188470000000 1.0
C      1  0.4655500000000  0.5009460000000  0.5169260000000 1.0
C      1  0.4920920000000  0.4712490000000  0.5166030000000 1.0
C      1  0.5289260000000  0.4788770000000  0.5284550000000 1.0
C      1  0.5246840000000  0.5167540000000  0.4767040000000 1.0
C      1  0.4889820000000  0.5302350000000  0.4867660000000 1.0
C      1  0.4654990000000  0.4980760000000  0.4855860000000 1.0
C      1  0.4912680000000  0.4675980000000  0.4848220000000 1.0
C      1  0.5270770000000  0.4772030000000  0.4736520000000 1.0
C      1  0.5666770000000  0.5300300000000  0.4367100000000 1.0
C      1  0.4924620000000  0.5704270000000  0.4391150000000 1.0
C      1  0.4308540000000  0.5136490000000  0.4387690000000 1.0
C      1  0.4663690000000  0.4361710000000  0.4358380000000 1.0
C      1  0.5526060000000  0.4497990000000  0.4278350000000 1.0
C      1  0.5663400000000  0.5310820000000  0.5608190000000 1.0
C      1  0.4929120000000  0.5746050000000  0.5630000000000 1.0
C      1  0.4281950000000  0.5155910000000  0.5634750000000 1.0
C      1  0.4644600000000  0.4380680000000  0.5609440000000 1.0
C      1  0.5483280000000  0.4500980000000  0.5718390000000 1.0
C      1  0.5226060000000  0.4860870000000  0.4432890000000 1.0
C      1  0.5201810000000  0.5164930000000  0.4447660000000 1.0
C      1  0.4916730000000  0.5241580000000  0.4551590000000 1.0
C      1  0.4749080000000  0.4981350000000  0.4560020000000 1.0
C      1  0.4941210000000  0.4740100000000  0.4515420000000 1.0
C      1  0.5203840000000  0.4887400000000  0.5576910000000 1.0
C      1  0.5188720000000  0.5191580000000  0.5569110000000 1.0
C      1  0.4899320000000  0.5276880000000  0.5499600000000 1.0
C      1  0.4731310000000  0.5018150000000  0.5470260000000 1.0
C      1  0.4925750000000  0.4773050000000  0.5482640000000 1.0
C      1  0.5479840000000  0.4762460000000  0.5643250000000 1.0
C      1  0.5407150000000  0.5405610000000  0.5604910000000 1.0
C      1  0.4763070000000  0.5528250000000  0.5616340000000 1.0
C      1  0.4452160000000  0.4947680000000  0.5590900000000 1.0
C      1  0.4895520000000  0.4481340000000  0.5582760000000 1.0
C      1  0.5508300000000  0.4758940000000  0.4354320000000 1.0
C      1  0.5408110000000  0.5385840000000  0.4393070000000 1.0
C      1  0.4768840000000  0.5484750000000  0.4434070000000 1.0
C      1  0.4472770000000  0.4922610000000  0.4427740000000 1.0
C      1  0.4914030000000  0.4462270000000  0.4388670000000 1.0
C      1  0.5428160000000  0.4299480000000  0.4448400000000 1.0
C      1  0.5801890000000  0.5135870000000  0.4538800000000 1.0
C      1  0.5121130000000  0.5787020000000  0.4560060000000 1.0
C      1  0.4274860000000  0.5346400000000  0.4558360000000 1.0
C      1  0.4454540000000  0.4393380000000  0.4529410000000 1.0
C      1  0.5392330000000  0.4307410000000  0.5540090000000 1.0
C      1  0.5787270000000  0.5130570000000  0.5445580000000 1.0
C      1  0.5115150000000  0.5811990000000  0.5440390000000 1.0
C      1  0.4255110000000  0.5372710000000  0.5472260000000 1.0
C      1  0.4434270000000  0.4425700000000  0.5442870000000 1.0
C      1  0.5342400000000  0.5879770000000  0.5091960000000 1.0
C      1  0.4230950000000  0.5663350000000  0.5187710000000 1.0
C      1  0.4156020000000  0.4487100000000  0.5156240000000 1.0
C      1  0.5274170000000  0.4098760000000  0.5128470000000 1.0
C      1  0.5969770000000  0.4884180000000  0.5170700000000 1.0
C      1  0.5393590000000  0.5944720000000  0.4805120000000 1.0
C      1  0.4258940000000  0.5601630000000  0.4896820000000 1.0
C      1  0.4196100000000  0.4452570000000  0.4861380000000 1.0
C      1  0.5300270000000  0.4073250000000  0.4846470000000 1.0
C      1  0.5943640000000  0.4922300000000  0.4877720000000 1.0
C      1  0.5722290000000  0.4401080000000  0.4854990000000 1.0
C      1  0.5810030000000  0.5584710000000  0.4795420000000 1.0
C      1  0.4717140000000  0.5917600000000  0.4893200000000 1.0
C      1  0.4020330000000  0.4968940000000  0.4817300000000 1.0
C      1  0.4757580000000  0.4072500000000  0.4803470000000 1.0
C      1  0.5709030000000  0.4397960000000  0.5149100000000 1.0
C      1  0.5770240000000  0.5525670000000  0.5084530000000 1.0
C      1  0.4680330000000  0.5950630000000  0.5187690000000 1.0
C      1  0.4041170000000  0.5014820000000  0.5112450000000 1.0
C      1  0.4726360000000  0.4122340000000  0.5095520000000 1.0
C      1  0.5102250000000  0.4316670000000  0.5428920000000 1.0
C      1  0.5677200000000  0.4848560000000  0.5437650000000 1.0
C      1  0.5340880000000  0.5622700000000  0.5397740000000 1.0
C      1  0.4492600000000  0.5565630000000  0.5472420000000 1.0
C      1  0.4339260000000  0.4712270000000  0.5428820000000 1.0
C      1  0.5129980000000  0.4296390000000  0.4528000000000 1.0
C      1  0.5702480000000  0.4856150000000  0.4567310000000 1.0
C      1  0.5355250000000  0.5602990000000  0.4604630000000 1.0
C      1  0.4513860000000  0.5519550000000  0.4600710000000 1.0
C      1  0.4350760000000  0.4669160000000  0.4563030000000 1.0
C      1  0.4974600000000  0.4090070000000  0.5232590000000 1.0
C      1  0.5855530000000  0.4616430000000  0.5278860000000 1.0
C      1  0.5577930000000  0.5699880000000  0.5199190000000 1.0
C      1  0.4451560000000  0.5839950000000  0.5304200000000 1.0
C      1  0.4064900000000  0.4767880000000  0.5256730000000 1.0
C      1  0.5021000000000  0.4047440000000  0.4704980000000 1.0
C      1  0.5871540000000  0.4634730000000  0.4743570000000 1.0
C      1  0.5615690000000  0.5759890000000  0.4686210000000 1.0
C      1  0.4486440000000  0.5795480000000  0.4769450000000 1.0
C      1  0.4067700000000  0.4707680000000  0.4715670000000 1.0
C      1  0.4465860000000  0.4246950000000  0.4812740000000 1.0
C      1  0.5520750000000  0.4228100000000  0.4718000000000 1.0
C      1  0.5893560000000  0.5255660000000  0.4816570000000 1.0
C      1  0.5049930000000  0.5941700000000  0.4826800000000 1.0
C      1  0.4127090000000  0.5291290000000  0.4836450000000 1.0
C      1  0.4434140000000  0.4286950000000  0.5151500000000 1.0
C      1  0.5488210000000  0.4241110000000  0.5269680000000 1.0
C      1  0.5887540000000  0.5217170000000  0.5156350000000 1.0
C      1  0.5012950000000  0.5933330000000  0.5166400000000 1.0
C      1  0.4128110000000  0.5337090000000  0.5175840000000 1.0
C      1  0.4434580000000  0.4771390000000  0.4853550000000 1.0
C      1  0.5097150000000  0.4416650000000  0.4832420000000 1.0
C      1  0.5542350000000  0.4825090000000  0.4855220000000 1.0
C      1  0.5299450000000  0.5431490000000  0.4861430000000 1.0
C      1  0.4625670000000  0.5443250000000  0.4889440000000 1.0
C      1  0.4443880000000  0.4801030000000  0.5141050000000 1.0
C      1  0.5087850000000  0.4457240000000  0.5129990000000 1.0
C      1  0.5554560000000  0.4823660000000  0.5123990000000 1.0
C      1  0.5285370000000  0.5436610000000  0.5136830000000 1.0
C      1  0.4590200000000  0.5489010000000  0.5175530000000 1.0
C      1  0.5195040000000  0.4952230000000  0.5006790000000 1.0
END
