TITL C-2782232-2968-999 -0.00109951648464811 125000 -1051.14035269686 0 0 179 (C1) n - 1
REM
REM in /home/nfs/bkarasulu/CARBON/AIRSS/Generating-Clusters/REBO/Higher-Symm/SD-CG/HFTN-CG
REM
REM
REM
REM
REM
REM ./C.cell (12c818d87b63d06a65506943cc24bca4)
REM
REM compiler GCC version 9.2.1 20190827 (Red Hat 9.2.1-1)
REM options -cpp -mtune=generic -march=x86-64 -g -O0 -fpre-include=/usr/include/finclude/math-vector-fortran.h
REM seed -1675220517 -785328724 -337493280 -674458486 565871132 1123769427 -972564431 -1207936482 -814770329 -291760964 1890069968 -1503623078 -1651602048 -1609351275 20455727 390740874 312688784 -1957247751 1669065404 -1135830513 143034348 -437613012 851421622 579174450 -1589816844 -1626014467 -649869299 -389723516 -1607967766 2034485963 -187532156 831291892 -660855174
REM
CELL 1.54180   50.00000   50.00000   50.00000   90.00000   90.00000   90.00000
LATT -1
SFAC C  
C      1  0.4757640000000  0.5489880000000  0.5213200000000 1.0
C      1  0.4772070000000  0.4511270000000  0.4822570000000 1.0
C      1  0.4757460000000  0.5534510000000  0.4088140000000 1.0
C      1  0.4814690000000  0.4507070000000  0.5921820000000 1.0
C      1  0.4149730000000  0.5135210000000  0.4406650000000 1.0
C      1  0.4284290000000  0.4899170000000  0.5563030000000 1.0
C      1  0.5105060000000  0.5650890000000  0.4891570000000 1.0
C      1  0.5100610000000  0.4308360000000  0.5149240000000 1.0
C      1  0.4614690000000  0.5055910000000  0.5026520000000 1.0
C      1  0.4579450000000  0.4813990000000  0.5213580000000 1.0
C      1  0.4830370000000  0.6180230000000  0.5070290000000 1.0
C      1  0.4822020000000  0.3840400000000  0.4969640000000 1.0
C      1  0.5440700000000  0.4628310000000  0.5572370000000 1.0
C      1  0.5404950000000  0.5387640000000  0.4429290000000 1.0
C      1  0.4391250000000  0.5023140000000  0.3971500000000 1.0
C      1  0.4338920000000  0.4970180000000  0.5952030000000 1.0
C      1  0.4374670000000  0.5123990000000  0.4869220000000 1.0
C      1  0.4283540000000  0.4819490000000  0.5111610000000 1.0
C      1  0.4477790000000  0.4361360000000  0.5385580000000 1.0
C      1  0.4506500000000  0.5617910000000  0.4618280000000 1.0
C      1  0.4793990000000  0.4990100000000  0.4432560000000 1.0
C      1  0.4822800000000  0.5036360000000  0.5634360000000 1.0
C      1  0.4593530000000  0.4026930000000  0.4799850000000 1.0
C      1  0.4604240000000  0.5984340000000  0.5228110000000 1.0
C      1  0.4707560000000  0.4606310000000  0.4546660000000 1.0
C      1  0.4725500000000  0.5408210000000  0.5517010000000 1.0
C      1  0.4067820000000  0.5596270000000  0.5538050000000 1.0
C      1  0.4153150000000  0.4381080000000  0.4376840000000 1.0
C      1  0.4067590000000  0.4985100000000  0.5403400000000 1.0
C      1  0.3976900000000  0.4915100000000  0.4366160000000 1.0
C      1  0.4717670000000  0.4758600000000  0.5721350000000 1.0
C      1  0.4730880000000  0.5260460000000  0.4273860000000 1.0
C      1  0.5889520000000  0.5029190000000  0.5230500000000 1.0
C      1  0.5883050000000  0.4967260000000  0.4757310000000 1.0
C      1  0.4963650000000  0.4699430000000  0.4381700000000 1.0
C      1  0.4999910000000  0.5324200000000  0.5677970000000 1.0
C      1  0.4796050000000  0.5857200000000  0.4482140000000 1.0
C      1  0.4726340000000  0.4214740000000  0.5657380000000 1.0
C      1  0.4322860000000  0.4762470000000  0.4061790000000 1.0
C      1  0.4253370000000  0.5201140000000  0.5839540000000 1.0
C      1  0.5386120000000  0.4375980000000  0.4249260000000 1.0
C      1  0.5436730000000  0.5630290000000  0.5773220000000 1.0
C      1  0.5506760000000  0.5823490000000  0.5495740000000 1.0
C      1  0.5480100000000  0.4169430000000  0.4508900000000 1.0
C      1  0.4625420000000  0.4318220000000  0.4121860000000 1.0
C      1  0.4663030000000  0.5714090000000  0.5938530000000 1.0
C      1  0.5224560000000  0.4717180000000  0.4595950000000 1.0
C      1  0.5264690000000  0.5292880000000  0.5464650000000 1.0
C      1  0.5075340000000  0.4904380000000  0.4915430000000 1.0
C      1  0.5098640000000  0.5120530000000  0.5146670000000 1.0
C      1  0.5585690000000  0.5017590000000  0.4622720000000 1.0
C      1  0.5591790000000  0.4960140000000  0.5381540000000 1.0
C      1  0.4747020000000  0.4365330000000  0.4351670000000 1.0
C      1  0.4772710000000  0.5652010000000  0.5707120000000 1.0
C      1  0.4504800000000  0.4271500000000  0.3893930000000 1.0
C      1  0.4553940000000  0.5775830000000  0.6168680000000 1.0
C      1  0.4290600000000  0.4385660000000  0.5644360000000 1.0
C      1  0.4322640000000  0.5642400000000  0.4384570000000 1.0
C      1  0.4067030000000  0.5086320000000  0.5119090000000 1.0
C      1  0.4175760000000  0.4956580000000  0.4758670000000 1.0
C      1  0.5941510000000  0.5285580000000  0.5896600000000 1.0
C      1  0.5868840000000  0.4737490000000  0.4092450000000 1.0
C      1  0.5226710000000  0.4131980000000  0.5604400000000 1.0
C      1  0.5173740000000  0.5922240000000  0.4381760000000 1.0
C      1  0.5903960000000  0.4686640000000  0.5278790000000 1.0
C      1  0.5889160000000  0.5308780000000  0.4701580000000 1.0
C      1  0.6021350000000  0.4732320000000  0.4553370000000 1.0
C      1  0.6050000000000  0.5259850000000  0.5423460000000 1.0
C      1  0.5746210000000  0.4751290000000  0.4982250000000 1.0
C      1  0.5750520000000  0.5247330000000  0.5009360000000 1.0
C      1  0.5640990000000  0.4249320000000  0.5313330000000 1.0
C      1  0.5594270000000  0.5736150000000  0.4678480000000 1.0
C      1  0.4936220000000  0.5742050000000  0.4216270000000 1.0
C      1  0.5027490000000  0.4313290000000  0.5766780000000 1.0
C      1  0.4037820000000  0.5331150000000  0.4632780000000 1.0
C      1  0.3997870000000  0.4554650000000  0.5201400000000 1.0
C      1  0.6157780000000  0.4600910000000  0.5151010000000 1.0
C      1  0.6150470000000  0.5392550000000  0.4818860000000 1.0
C      1  0.5429380000000  0.4083290000000  0.5404970000000 1.0
C      1  0.5381650000000  0.5910640000000  0.4596860000000 1.0
C      1  0.5648790000000  0.5430420000000  0.4209190000000 1.0
C      1  0.5696290000000  0.4576960000000  0.5777540000000 1.0
C      1  0.5710290000000  0.5484400000000  0.4533140000000 1.0
C      1  0.5731380000000  0.4508150000000  0.5452480000000 1.0
C      1  0.4639710000000  0.3962920000000  0.5445610000000 1.0
C      1  0.4638160000000  0.6124430000000  0.4592870000000 1.0
C      1  0.4642530000000  0.5329850000000  0.4577480000000 1.0
C      1  0.4630210000000  0.4636530000000  0.5462940000000 1.0
C      1  0.5807650000000  0.5445930000000  0.5479310000000 1.0
C      1  0.5772280000000  0.4549740000000  0.4511220000000 1.0
C      1  0.4301430000000  0.5967740000000  0.5330050000000 1.0
C      1  0.4325130000000  0.4003170000000  0.4637360000000 1.0
C      1  0.5342600000000  0.3894080000000  0.5213020000000 1.0
C      1  0.5316080000000  0.6094270000000  0.4802020000000 1.0
C      1  0.4956060000000  0.4208800000000  0.4497040000000 1.0
C      1  0.4981820000000  0.5787190000000  0.5537490000000 1.0
C      1  0.5504110000000  0.4737730000000  0.4509120000000 1.0
C      1  0.5551160000000  0.5250840000000  0.5519430000000 1.0
C      1  0.5193160000000  0.5394080000000  0.4676620000000 1.0
C      1  0.5217030000000  0.4568410000000  0.5348860000000 1.0
C      1  0.5065750000000  0.6250150000000  0.4937550000000 1.0
C      1  0.5062030000000  0.3775120000000  0.5096600000000 1.0
C      1  0.5342950000000  0.4925740000000  0.5612780000000 1.0
C      1  0.5318820000000  0.5082370000000  0.4433850000000 1.0
C      1  0.5658550000000  0.5263280000000  0.3999420000000 1.0
C      1  0.5721300000000  0.4738970000000  0.5989830000000 1.0
C      1  0.5014740000000  0.4307190000000  0.4818330000000 1.0
C      1  0.5017840000000  0.5662600000000  0.5222560000000 1.0
C      1  0.5708170000000  0.4281150000000  0.4662660000000 1.0
C      1  0.5722310000000  0.5710150000000  0.5328210000000 1.0
C      1  0.5270370000000  0.5356570000000  0.5856510000000 1.0
C      1  0.5221900000000  0.4656670000000  0.4201850000000 1.0
C      1  0.4439040000000  0.4746640000000  0.4542290000000 1.0
C      1  0.4446330000000  0.5318950000000  0.5396960000000 1.0
C      1  0.5229490000000  0.5431170000000  0.5197970000000 1.0
C      1  0.5182620000000  0.4582340000000  0.4870000000000 1.0
C      1  0.4225730000000  0.5373000000000  0.5613160000000 1.0
C      1  0.4280790000000  0.4623770000000  0.4307790000000 1.0
C      1  0.4584780000000  0.4746930000000  0.6026300000000 1.0
C      1  0.4625890000000  0.5244000000000  0.3963130000000 1.0
C      1  0.5907330000000  0.5530350000000  0.5103260000000 1.0
C      1  0.5896410000000  0.4468300000000  0.4880270000000 1.0
C      1  0.4535170000000  0.5691130000000  0.5114170000000 1.0
C      1  0.4538260000000  0.4323420000000  0.4901150000000 1.0
C      1  0.5478330000000  0.4718360000000  0.5186200000000 1.0
C      1  0.5482990000000  0.5261800000000  0.4799910000000 1.0
C      1  0.4320720000000  0.4256900000000  0.5129830000000 1.0
C      1  0.4371330000000  0.5768940000000  0.4847770000000 1.0
C      1  0.4832790000000  0.5251420000000  0.5038490000000 1.0
C      1  0.4838890000000  0.4726160000000  0.5014920000000 1.0
C      1  0.4942130000000  0.6157480000000  0.4460190000000 1.0
C      1  0.4956090000000  0.3993130000000  0.5542230000000 1.0
C      1  0.4480250000000  0.4440740000000  0.5912440000000 1.0
C      1  0.4424950000000  0.5495710000000  0.4157490000000 1.0
C      1  0.5402070000000  0.5096950000000  0.5863530000000 1.0
C      1  0.5353160000000  0.4911530000000  0.4176420000000 1.0
C      1  0.5060310000000  0.5013370000000  0.4605660000000 1.0
C      1  0.5081490000000  0.5006060000000  0.5454290000000 1.0
C      1  0.4123610000000  0.5758100000000  0.5309410000000 1.0
C      1  0.4161860000000  0.4225690000000  0.4615050000000 1.0
C      1  0.4273940000000  0.5242260000000  0.4140990000000 1.0
C      1  0.4274570000000  0.4681730000000  0.5787200000000 1.0
C      1  0.6059370000000  0.4800570000000  0.4250080000000 1.0
C      1  0.6114870000000  0.5209230000000  0.5725580000000 1.0
C      1  0.4390320000000  0.5377880000000  0.5096130000000 1.0
C      1  0.4391710000000  0.4630740000000  0.4847310000000 1.0
C      1  0.4462160000000  0.5055780000000  0.4486940000000 1.0
C      1  0.4520900000000  0.5049310000000  0.5531300000000 1.0
C      1  0.4914580000000  0.4621070000000  0.5304310000000 1.0
C      1  0.4891660000000  0.5339390000000  0.4762440000000 1.0
C      1  0.5616900000000  0.4599030000000  0.4220890000000 1.0
C      1  0.5675720000000  0.5414410000000  0.5784600000000 1.0
C      1  0.5256880000000  0.6024980000000  0.5375420000000 1.0
C      1  0.5237240000000  0.3963330000000  0.4635770000000 1.0
C      1  0.5592930000000  0.4978670000000  0.6034680000000 1.0
C      1  0.5524960000000  0.5023280000000  0.3983540000000 1.0
C      1  0.5238690000000  0.5870970000000  0.5683820000000 1.0
C      1  0.5201980000000  0.4126280000000  0.4333470000000 1.0
C      1  0.4085600000000  0.4438950000000  0.5398040000000 1.0
C      1  0.4061390000000  0.5584560000000  0.4482700000000 1.0
C      1  0.6160420000000  0.5301440000000  0.5119040000000 1.0
C      1  0.6154960000000  0.4689120000000  0.4849790000000 1.0
C      1  0.5416020000000  0.5531510000000  0.4972080000000 1.0
C      1  0.5406160000000  0.4419540000000  0.5038480000000 1.0
C      1  0.4913900000000  0.6027190000000  0.5347330000000 1.0
C      1  0.4895240000000  0.3955700000000  0.4672940000000 1.0
C      1  0.5659830000000  0.5719760000000  0.4996340000000 1.0
C      1  0.5669460000000  0.4262960000000  0.4994810000000 1.0
C      1  0.4151480000000  0.5605170000000  0.5046950000000 1.0
C      1  0.4147910000000  0.4392560000000  0.4869260000000 1.0
C      1  0.4032740000000  0.5318580000000  0.4927830000000 1.0
C      1  0.4006290000000  0.4702110000000  0.4907610000000 1.0
C      1  0.4831300000000  0.5656750000000  0.4706530000000 1.0
C      1  0.4813700000000  0.4306000000000  0.5337870000000 1.0
C      1  0.5315500000000  0.3833900000000  0.4899590000000 1.0
C      1  0.5326460000000  0.6165250000000  0.5114540000000 1.0
C      1  0.4425040000000  0.6068020000000  0.4754110000000 1.0
C      1  0.4426760000000  0.3979980000000  0.5280440000000 1.0
C      1  0.6136120000000  0.4994910000000  0.4988950000000 1.0
END
