TITL C-2782226-7400-97 0.000824179493911584 125000 -1060.08130734399 0 0 186 (C1) n - 1
REM
REM in /home/nfs/bkarasulu/CARBON/AIRSS/Generating-Clusters/REBO/Higher-Symm/SD-CG/HFTN-CG
REM
REM
REM
REM
REM
REM ./C.cell (12c818d87b63d06a65506943cc24bca4)
REM
REM compiler GCC version 9.2.1 20190827 (Red Hat 9.2.1-1)
REM options -cpp -mtune=generic -march=x86-64 -g -O0 -fpre-include=/usr/include/finclude/math-vector-fortran.h
REM seed -1677719876 -2136544080 1181944956 -551404733 -772206088 698182500 984873446 -798665226 -1818893731 1859638179 -1585009775 -1632202977 75995628 -887909015 807579514 -241881605 -148682433 758456254 -50482677 -588682739 1837641749 999350831 -1135310727 1285122453 -269315446 -1736451112 1781901993 -1772658081 862593297 -1499937659 -467357328 1431321077 1094828607
REM
CELL 1.54180   50.00000   50.00000   50.00000   90.00000   90.00000   90.00000
LATT -1
SFAC C  
C      1  0.5825770000000  0.4828010000000  0.5561590000000 1.0
C      1  0.4180040000000  0.4831270000000  0.4453880000000 1.0
C      1  0.4087200000000  0.4713090000000  0.5547460000000 1.0
C      1  0.5886590000000  0.4721220000000  0.4437500000000 1.0
C      1  0.5307100000000  0.5672230000000  0.5252460000000 1.0
C      1  0.4732540000000  0.5629000000000  0.4701890000000 1.0
C      1  0.4784010000000  0.5590270000000  0.5352170000000 1.0
C      1  0.5260450000000  0.5615590000000  0.4632120000000 1.0
C      1  0.5772310000000  0.5431040000000  0.4324990000000 1.0
C      1  0.4099730000000  0.5441860000000  0.5621840000000 1.0
C      1  0.4243210000000  0.5475250000000  0.4582380000000 1.0
C      1  0.5803970000000  0.5348700000000  0.5549830000000 1.0
C      1  0.4218160000000  0.4145010000000  0.4751170000000 1.0
C      1  0.5809270000000  0.4140930000000  0.5224150000000 1.0
C      1  0.5770080000000  0.4212640000000  0.4907410000000 1.0
C      1  0.4233850000000  0.4187020000000  0.5076940000000 1.0
C      1  0.5737780000000  0.4469900000000  0.5209960000000 1.0
C      1  0.4269090000000  0.4469720000000  0.4797530000000 1.0
C      1  0.4289110000000  0.4505160000000  0.5120890000000 1.0
C      1  0.5710580000000  0.4537750000000  0.4883200000000 1.0
C      1  0.5422190000000  0.5955780000000  0.4759640000000 1.0
C      1  0.4584810000000  0.5915690000000  0.5233780000000 1.0
C      1  0.4590360000000  0.6002250000000  0.4715520000000 1.0
C      1  0.5479410000000  0.6023620000000  0.5312340000000 1.0
C      1  0.6037730000000  0.5128520000000  0.5115950000000 1.0
C      1  0.3934130000000  0.5140390000000  0.4849950000000 1.0
C      1  0.3886440000000  0.5077960000000  0.5169630000000 1.0
C      1  0.6098510000000  0.5042500000000  0.4805670000000 1.0
C      1  0.5485490000000  0.4406900000000  0.5623740000000 1.0
C      1  0.4505540000000  0.4431020000000  0.4453920000000 1.0
C      1  0.4503270000000  0.4372120000000  0.5587200000000 1.0
C      1  0.5440010000000  0.4399770000000  0.4427260000000 1.0
C      1  0.5968140000000  0.4655330000000  0.4761610000000 1.0
C      1  0.4040690000000  0.4645360000000  0.5221390000000 1.0
C      1  0.4047130000000  0.4653210000000  0.4697140000000 1.0
C      1  0.5976670000000  0.4639950000000  0.5320240000000 1.0
C      1  0.5811500000000  0.5732800000000  0.5110150000000 1.0
C      1  0.4179210000000  0.5782520000000  0.4829790000000 1.0
C      1  0.4171570000000  0.5650050000000  0.5080430000000 1.0
C      1  0.5771630000000  0.5598340000000  0.4862030000000 1.0
C      1  0.5175320000000  0.4226920000000  0.4454350000000 1.0
C      1  0.4764940000000  0.4215860000000  0.5672360000000 1.0
C      1  0.4654450000000  0.4125820000000  0.4430890000000 1.0
C      1  0.5235570000000  0.4230080000000  0.5680490000000 1.0
C      1  0.4546200000000  0.4661850000000  0.4856920000000 1.0
C      1  0.5456890000000  0.4665550000000  0.5192580000000 1.0
C      1  0.5450800000000  0.4767630000000  0.4859860000000 1.0
C      1  0.4570610000000  0.4656110000000  0.5197160000000 1.0
C      1  0.5292460000000  0.5083230000000  0.4881530000000 1.0
C      1  0.4880050000000  0.5216860000000  0.5240820000000 1.0
C      1  0.4912660000000  0.5120420000000  0.4734560000000 1.0
C      1  0.5254060000000  0.5037060000000  0.5195740000000 1.0
C      1  0.4513430000000  0.5803570000000  0.4114320000000 1.0
C      1  0.5484840000000  0.5711880000000  0.5802720000000 1.0
C      1  0.5444580000000  0.5856460000000  0.4159060000000 1.0
C      1  0.4525090000000  0.5753430000000  0.5785480000000 1.0
C      1  0.5439550000000  0.4196810000000  0.4848170000000 1.0
C      1  0.4567910000000  0.4123940000000  0.5156350000000 1.0
C      1  0.4552060000000  0.4136510000000  0.4842780000000 1.0
C      1  0.5468940000000  0.4150880000000  0.5161940000000 1.0
C      1  0.5858280000000  0.4998270000000  0.4604400000000 1.0
C      1  0.4131800000000  0.4990920000000  0.5356070000000 1.0
C      1  0.4215710000000  0.5008790000000  0.4742640000000 1.0
C      1  0.5781760000000  0.4961190000000  0.5251140000000 1.0
C      1  0.5283920000000  0.4629000000000  0.5886490000000 1.0
C      1  0.4731130000000  0.4601520000000  0.4172740000000 1.0
C      1  0.4653840000000  0.4556260000000  0.5891980000000 1.0
C      1  0.5319270000000  0.4562550000000  0.4103150000000 1.0
C      1  0.5710450000000  0.5257390000000  0.5297560000000 1.0
C      1  0.4374260000000  0.5271040000000  0.4711660000000 1.0
C      1  0.4307500000000  0.5239910000000  0.5442440000000 1.0
C      1  0.5716940000000  0.5231090000000  0.4506790000000 1.0
C      1  0.5276270000000  0.4673430000000  0.5571720000000 1.0
C      1  0.4702900000000  0.4697640000000  0.4492640000000 1.0
C      1  0.4698740000000  0.4650840000000  0.5575110000000 1.0
C      1  0.5268380000000  0.4683400000000  0.4407510000000 1.0
C      1  0.4094410000000  0.5033690000000  0.4219350000000 1.0
C      1  0.5843250000000  0.5125860000000  0.5719440000000 1.0
C      1  0.5980980000000  0.4958760000000  0.4226100000000 1.0
C      1  0.4039740000000  0.4971530000000  0.5744450000000 1.0
C      1  0.5383640000000  0.5427210000000  0.4414050000000 1.0
C      1  0.4628530000000  0.5450000000000  0.5547200000000 1.0
C      1  0.4627500000000  0.5473060000000  0.4478810000000 1.0
C      1  0.5436510000000  0.5484950000000  0.5476960000000 1.0
C      1  0.4663910000000  0.5182900000000  0.4433230000000 1.0
C      1  0.5300430000000  0.5202120000000  0.5553300000000 1.0
C      1  0.5265010000000  0.5143760000000  0.4410650000000 1.0
C      1  0.4671240000000  0.5145330000000  0.5569720000000 1.0
C      1  0.5344680000000  0.4370240000000  0.5322390000000 1.0
C      1  0.4698250000000  0.4381620000000  0.4734550000000 1.0
C      1  0.4693840000000  0.4357140000000  0.5305710000000 1.0
C      1  0.5314520000000  0.4468750000000  0.4739970000000 1.0
C      1  0.5426820000000  0.5300680000000  0.5188000000000 1.0
C      1  0.4643080000000  0.5259400000000  0.4823060000000 1.0
C      1  0.4543840000000  0.5258870000000  0.5208220000000 1.0
C      1  0.5474960000000  0.5289880000000  0.4716800000000 1.0
C      1  0.4344980000000  0.4624030000000  0.5751550000000 1.0
C      1  0.5627040000000  0.4619620000000  0.4248240000000 1.0
C      1  0.5615260000000  0.4671340000000  0.5778490000000 1.0
C      1  0.4398540000000  0.4674970000000  0.4242310000000 1.0
C      1  0.4869870000000  0.5895630000000  0.4621480000000 1.0
C      1  0.5160610000000  0.5916940000000  0.5363380000000 1.0
C      1  0.5151120000000  0.5890730000000  0.4615290000000 1.0
C      1  0.4876450000000  0.5877210000000  0.5382780000000 1.0
C      1  0.5399680000000  0.4910920000000  0.4544580000000 1.0
C      1  0.4586140000000  0.4904230000000  0.5431280000000 1.0
C      1  0.4575340000000  0.4928640000000  0.4642880000000 1.0
C      1  0.5420320000000  0.4906500000000  0.5433120000000 1.0
C      1  0.4400770000000  0.5679080000000  0.4367450000000 1.0
C      1  0.5703900000000  0.5647460000000  0.5589820000000 1.0
C      1  0.5587310000000  0.5686590000000  0.4371820000000 1.0
C      1  0.4353380000000  0.5620460000000  0.5554210000000 1.0
C      1  0.5718700000000  0.5109200000000  0.5976960000000 1.0
C      1  0.4279010000000  0.5075090000000  0.4017390000000 1.0
C      1  0.4290310000000  0.5106200000000  0.5746740000000 1.0
C      1  0.5780810000000  0.5045550000000  0.4054800000000 1.0
C      1  0.5612400000000  0.3904790000000  0.5324620000000 1.0
C      1  0.4429000000000  0.3955930000000  0.4580820000000 1.0
C      1  0.4322170000000  0.3960740000000  0.5293230000000 1.0
C      1  0.5651170000000  0.4024140000000  0.4669390000000 1.0
C      1  0.5545100000000  0.4898190000000  0.6009470000000 1.0
C      1  0.4510390000000  0.4901690000000  0.4026590000000 1.0
C      1  0.4492070000000  0.4917300000000  0.5844100000000 1.0
C      1  0.5538080000000  0.4891900000000  0.4065200000000 1.0
C      1  0.5626700000000  0.5770180000000  0.4673640000000 1.0
C      1  0.4348610000000  0.5755600000000  0.5280690000000 1.0
C      1  0.4356220000000  0.5868100000000  0.4627860000000 1.0
C      1  0.5701310000000  0.5844480000000  0.5344550000000 1.0
C      1  0.5232460000000  0.4875280000000  0.6100120000000 1.0
C      1  0.4774960000000  0.4941200000000  0.3971270000000 1.0
C      1  0.4744010000000  0.4935290000000  0.5953010000000 1.0
C      1  0.5275660000000  0.4943000000000  0.4003230000000 1.0
C      1  0.5249440000000  0.5654680000000  0.5825600000000 1.0
C      1  0.4718840000000  0.5817350000000  0.3980220000000 1.0
C      1  0.4753090000000  0.5682740000000  0.5847220000000 1.0
C      1  0.5244210000000  0.5854510000000  0.4016450000000 1.0
C      1  0.5019300000000  0.3858640000000  0.5358990000000 1.0
C      1  0.4975220000000  0.3819180000000  0.4712370000000 1.0
C      1  0.4996750000000  0.5716410000000  0.3899730000000 1.0
C      1  0.4991290000000  0.5488530000000  0.5825080000000 1.0
C      1  0.5861310000000  0.5293390000000  0.4873400000000 1.0
C      1  0.4042280000000  0.5373160000000  0.5077140000000 1.0
C      1  0.4710460000000  0.5512440000000  0.5030650000000 1.0
C      1  0.5356400000000  0.5520410000000  0.4945940000000 1.0
C      1  0.4709260000000  0.6008440000000  0.4986250000000 1.0
C      1  0.5329940000000  0.6068210000000  0.5034720000000 1.0
C      1  0.5030640000000  0.5524380000000  0.3625430000000 1.0
C      1  0.5092400000000  0.5469500000000  0.6315640000000 1.0
C      1  0.5028210000000  0.5099810000000  0.3928210000000 1.0
C      1  0.4984860000000  0.5059880000000  0.6070320000000 1.0
C      1  0.5016110000000  0.5376830000000  0.3908930000000 1.0
C      1  0.5012730000000  0.5334370000000  0.6087990000000 1.0
C      1  0.5006380000000  0.4646250000000  0.4512530000000 1.0
C      1  0.4986400000000  0.4688130000000  0.5491700000000 1.0
C      1  0.4269460000000  0.5117040000000  0.5065170000000 1.0
C      1  0.5721370000000  0.4977140000000  0.4916700000000 1.0
C      1  0.5008240000000  0.4027310000000  0.5585070000000 1.0
C      1  0.4942410000000  0.3998370000000  0.4500400000000 1.0
C      1  0.5004190000000  0.4335770000000  0.5301620000000 1.0
C      1  0.5002160000000  0.4315800000000  0.4733950000000 1.0
C      1  0.3922770000000  0.4813620000000  0.4951040000000 1.0
C      1  0.6089760000000  0.4797670000000  0.5046330000000 1.0
C      1  0.4995360000000  0.4410960000000  0.5692050000000 1.0
C      1  0.4883550000000  0.4365670000000  0.4356650000000 1.0
C      1  0.4971820000000  0.4906110000000  0.5278410000000 1.0
C      1  0.4958810000000  0.4833090000000  0.4768000000000 1.0
C      1  0.4983070000000  0.5153990000000  0.4425300000000 1.0
C      1  0.4986590000000  0.5273780000000  0.5562520000000 1.0
C      1  0.5021700000000  0.4715190000000  0.4036170000000 1.0
C      1  0.4960020000000  0.4670370000000  0.5988660000000 1.0
C      1  0.5099770000000  0.4508580000000  0.5048910000000 1.0
C      1  0.5068930000000  0.6267420000000  0.5030220000000 1.0
C      1  0.5018940000000  0.5932670000000  0.4990380000000 1.0
C      1  0.4867760000000  0.6751660000000  0.5061320000000 1.0
C      1  0.4765780000000  0.6997160000000  0.5077090000000 1.0
C      1  0.5034810000000  0.5288230000000  0.4978350000000 1.0
C      1  0.4869200000000  0.3053530000000  0.4985210000000 1.0
C      1  0.4969750000000  0.6506160000000  0.5045560000000 1.0
C      1  0.4822840000000  0.2798450000000  0.5023540000000 1.0
C      1  0.4995860000000  0.4761350000000  0.5014220000000 1.0
C      1  0.4916300000000  0.3312720000000  0.4946250000000 1.0
C      1  0.5079610000000  0.4168780000000  0.5017670000000 1.0
C      1  0.4963940000000  0.3574850000000  0.4906850000000 1.0
C      1  0.4665420000000  0.7238750000000  0.5092610000000 1.0
C      1  0.5035160000000  0.3871090000000  0.5045050000000 1.0
C      1  0.5029620000000  0.5628480000000  0.4969130000000 1.0
END
