TITL C-2782226-7400-556 -0.00133587228416279 125000 -1177.15675232206 0 0 197 (C1) n - 1
REM
REM in /home/nfs/bkarasulu/CARBON/AIRSS/Generating-Clusters/REBO/Higher-Symm/SD-CG/HFTN-CG
REM
REM
REM
REM
REM
REM ./C.cell (12c818d87b63d06a65506943cc24bca4)
REM
REM compiler GCC version 9.2.1 20190827 (Red Hat 9.2.1-1)
REM options -cpp -mtune=generic -march=x86-64 -g -O0 -fpre-include=/usr/include/finclude/math-vector-fortran.h
REM seed 465211992 -612973515 690991724 1640222587 535897209 1138961928 1303971868 -635977525 1256685616 697198548 -933821789 -1489384329 -522467975 -1505043293 1306719622 1975989276 -542121263 100230371 -1742905123 1084440002 -995219720 -1636566303 101741083 -1404381226 -773313592 -105466065 919975216 -1061203854 713435681 -1113381869 -1724102236 1712639777 -210834459
REM
CELL 1.54180   50.00000   50.00000   50.00000   90.00000   90.00000   90.00000
LATT -1
SFAC C  
C      1  0.5412240000000  0.6036920000000  0.5100110000000 1.0
C      1  0.5406830000000  0.4379270000000  0.5850680000000 1.0
C      1  0.5482560000000  0.4538930000000  0.4070270000000 1.0
C      1  0.4198080000000  0.4758610000000  0.4331750000000 1.0
C      1  0.4213130000000  0.5701380000000  0.5167320000000 1.0
C      1  0.4198720000000  0.4509980000000  0.5497680000000 1.0
C      1  0.4567160000000  0.6005590000000  0.4709390000000 1.0
C      1  0.4540190000000  0.4735870000000  0.6036820000000 1.0
C      1  0.4580330000000  0.4234150000000  0.4232210000000 1.0
C      1  0.4388680000000  0.4092440000000  0.4867000000000 1.0
C      1  0.4343500000000  0.5539360000000  0.4234750000000 1.0
C      1  0.4368550000000  0.5371530000000  0.5855950000000 1.0
C      1  0.4535260000000  0.5138020000000  0.5783510000000 1.0
C      1  0.4595630000000  0.4256230000000  0.4731970000000 1.0
C      1  0.4543050000000  0.5573030000000  0.4474310000000 1.0
C      1  0.5261480000000  0.5557530000000  0.4175860000000 1.0
C      1  0.5307360000000  0.5432470000000  0.6030550000000 1.0
C      1  0.5311520000000  0.3904100000000  0.4904010000000 1.0
C      1  0.5058990000000  0.4213790000000  0.4255220000000 1.0
C      1  0.5023270000000  0.6008700000000  0.4689770000000 1.0
C      1  0.5024770000000  0.4769220000000  0.6084580000000 1.0
C      1  0.4387760000000  0.5726710000000  0.5674640000000 1.0
C      1  0.4393920000000  0.4105130000000  0.5265890000000 1.0
C      1  0.4311980000000  0.5146140000000  0.4180550000000 1.0
C      1  0.5191530000000  0.4538150000000  0.5555210000000 1.0
C      1  0.5287100000000  0.4762790000000  0.4390830000000 1.0
C      1  0.5177360000000  0.5717290000000  0.5114510000000 1.0
C      1  0.4051280000000  0.4994020000000  0.5786540000000 1.0
C      1  0.4174340000000  0.4469720000000  0.4510370000000 1.0
C      1  0.4084320000000  0.5730370000000  0.4631510000000 1.0
C      1  0.5166170000000  0.5258820000000  0.4291610000000 1.0
C      1  0.5169390000000  0.5437020000000  0.5532630000000 1.0
C      1  0.5176930000000  0.4456160000000  0.5096810000000 1.0
C      1  0.4659610000000  0.3922230000000  0.5271100000000 1.0
C      1  0.4468560000000  0.5298290000000  0.3944430000000 1.0
C      1  0.4674500000000  0.5791960000000  0.5806580000000 1.0
C      1  0.5560720000000  0.4705330000000  0.4832620000000 1.0
C      1  0.5461640000000  0.5296420000000  0.4975220000000 1.0
C      1  0.5491130000000  0.4949310000000  0.5374870000000 1.0
C      1  0.5840690000000  0.5010320000000  0.5624840000000 1.0
C      1  0.5839070000000  0.4336310000000  0.4702100000000 1.0
C      1  0.5819220000000  0.5571430000000  0.4593280000000 1.0
C      1  0.4758530000000  0.4953930000000  0.4282830000000 1.0
C      1  0.4718060000000  0.5609140000000  0.5353250000000 1.0
C      1  0.4728510000000  0.4441550000000  0.5357280000000 1.0
C      1  0.5037560000000  0.3818330000000  0.4920160000000 1.0
C      1  0.4997000000000  0.5495410000000  0.4017230000000 1.0
C      1  0.5032380000000  0.5506610000000  0.6082710000000 1.0
C      1  0.4878280000000  0.5801650000000  0.5144980000000 1.0
C      1  0.4883170000000  0.4492170000000  0.5632960000000 1.0
C      1  0.4991060000000  0.4736450000000  0.4297380000000 1.0
C      1  0.4758430000000  0.4636880000000  0.4605170000000 1.0
C      1  0.4743420000000  0.5529530000000  0.4890390000000 1.0
C      1  0.4735680000000  0.4847780000000  0.5526360000000 1.0
C      1  0.5110330000000  0.4951370000000  0.5191210000000 1.0
C      1  0.5112700000000  0.4913360000000  0.4847850000000 1.0
C      1  0.5075730000000  0.5196180000000  0.5000660000000 1.0
C      1  0.5530790000000  0.4359870000000  0.4283420000000 1.0
C      1  0.5485820000000  0.5948720000000  0.4832220000000 1.0
C      1  0.5492970000000  0.4646480000000  0.5949600000000 1.0
C      1  0.4317680000000  0.4860670000000  0.5194630000000 1.0
C      1  0.4322740000000  0.4925630000000  0.4801250000000 1.0
C      1  0.4289690000000  0.5233240000000  0.5053670000000 1.0
C      1  0.4424590000000  0.5581380000000  0.5467760000000 1.0
C      1  0.4448280000000  0.4351070000000  0.5237180000000 1.0
C      1  0.4461130000000  0.5057010000000  0.4363500000000 1.0
C      1  0.4721500000000  0.4145360000000  0.5517320000000 1.0
C      1  0.4637340000000  0.5009180000000  0.3980590000000 1.0
C      1  0.4717420000000  0.5914500000000  0.5491030000000 1.0
C      1  0.4758950000000  0.3855680000000  0.4498590000000 1.0
C      1  0.4780310000000  0.5929290000000  0.4234260000000 1.0
C      1  0.4712280000000  0.5152830000000  0.6259180000000 1.0
C      1  0.3987170000000  0.4547700000000  0.5025100000000 1.0
C      1  0.3971450000000  0.5202610000000  0.4611230000000 1.0
C      1  0.3974440000000  0.5268060000000  0.5369480000000 1.0
C      1  0.5520440000000  0.5456320000000  0.4026460000000 1.0
C      1  0.5420900000000  0.5592690000000  0.5801870000000 1.0
C      1  0.5410250000000  0.4016980000000  0.5171410000000 1.0
C      1  0.5400910000000  0.4015020000000  0.4610710000000 1.0
C      1  0.5358050000000  0.5810350000000  0.4376460000000 1.0
C      1  0.5364330000000  0.5144170000000  0.6087910000000 1.0
C      1  0.4641000000000  0.4481300000000  0.5881690000000 1.0
C      1  0.4651510000000  0.4467190000000  0.4063900000000 1.0
C      1  0.4675720000000  0.6031390000000  0.4994500000000 1.0
C      1  0.5502450000000  0.5256130000000  0.5410050000000 1.0
C      1  0.5567500000000  0.4504160000000  0.5072410000000 1.0
C      1  0.5570190000000  0.5171860000000  0.4590260000000 1.0
C      1  0.4013590000000  0.4629730000000  0.5305800000000 1.0
C      1  0.4014640000000  0.4925780000000  0.4549770000000 1.0
C      1  0.4008130000000  0.5488020000000  0.5167120000000 1.0
C      1  0.5135570000000  0.4368630000000  0.4709990000000 1.0
C      1  0.5158780000000  0.5531800000000  0.4581230000000 1.0
C      1  0.5125070000000  0.5024590000000  0.5769450000000 1.0
C      1  0.5388240000000  0.4566020000000  0.4595100000000 1.0
C      1  0.5336130000000  0.5578730000000  0.4854530000000 1.0
C      1  0.5326460000000  0.4823300000000  0.5635510000000 1.0
C      1  0.4464810000000  0.4339890000000  0.5635840000000 1.0
C      1  0.4463850000000  0.4747250000000  0.4110840000000 1.0
C      1  0.4481660000000  0.5905330000000  0.5240650000000 1.0
C      1  0.5379320000000  0.4639570000000  0.5288660000000 1.0
C      1  0.5342610000000  0.5056610000000  0.4455110000000 1.0
C      1  0.5305080000000  0.5434370000000  0.5224400000000 1.0
C      1  0.4507230000000  0.4671000000000  0.4434200000000 1.0
C      1  0.4485810000000  0.5680570000000  0.4979680000000 1.0
C      1  0.4473560000000  0.4674280000000  0.5561240000000 1.0
C      1  0.4887820000000  0.4536050000000  0.5122260000000 1.0
C      1  0.4914040000000  0.5167050000000  0.4461600000000 1.0
C      1  0.4885890000000  0.5365380000000  0.5404630000000 1.0
C      1  0.5226310000000  0.4673550000000  0.3985950000000 1.0
C      1  0.5143050000000  0.6113870000000  0.5186710000000 1.0
C      1  0.5136330000000  0.4273640000000  0.5851470000000 1.0
C      1  0.5630370000000  0.5657590000000  0.4371010000000 1.0
C      1  0.5628550000000  0.5116240000000  0.5792760000000 1.0
C      1  0.5637310000000  0.4147890000000  0.4761370000000 1.0
C      1  0.5910030000000  0.4343410000000  0.5188470000000 1.0
C      1  0.5848730000000  0.5157630000000  0.4304010000000 1.0
C      1  0.5848390000000  0.5452420000000  0.5428410000000 1.0
C      1  0.5273570000000  0.4102300000000  0.5418010000000 1.0
C      1  0.5234600000000  0.5001220000000  0.4074700000000 1.0
C      1  0.5258810000000  0.5761980000000  0.5555030000000 1.0
C      1  0.5650390000000  0.4177790000000  0.5157450000000 1.0
C      1  0.5714410000000  0.5283350000000  0.4094440000000 1.0
C      1  0.5632570000000  0.5481200000000  0.5638190000000 1.0
C      1  0.5659430000000  0.4738220000000  0.5667700000000 1.0
C      1  0.5713690000000  0.4526230000000  0.4497200000000 1.0
C      1  0.5665650000000  0.5672020000000  0.4853430000000 1.0
C      1  0.4931140000000  0.5406820000000  0.5087940000000 1.0
C      1  0.4957560000000  0.4766230000000  0.5330670000000 1.0
C      1  0.4972700000000  0.4876950000000  0.4608410000000 1.0
C      1  0.5813750000000  0.4824910000000  0.4366130000000 1.0
C      1  0.5729440000000  0.5634150000000  0.5185900000000 1.0
C      1  0.5735970000000  0.4495220000000  0.5439650000000 1.0
C      1  0.5531730000000  0.4852050000000  0.4171130000000 1.0
C      1  0.5470580000000  0.5790990000000  0.5290420000000 1.0
C      1  0.5473020000000  0.4340820000000  0.5537140000000 1.0
C      1  0.5321940000000  0.4852120000000  0.6071240000000 1.0
C      1  0.5343460000000  0.4157330000000  0.4361450000000 1.0
C      1  0.5310060000000  0.5963590000000  0.4609260000000 1.0
C      1  0.4902340000000  0.5706300000000  0.4686840000000 1.0
C      1  0.4847420000000  0.4877730000000  0.5813390000000 1.0
C      1  0.4913120000000  0.4395490000000  0.4487900000000 1.0
C      1  0.4881130000000  0.5525250000000  0.5815690000000 1.0
C      1  0.4881670000000  0.4041580000000  0.5052230000000 1.0
C      1  0.4731400000000  0.5352040000000  0.4158980000000 1.0
C      1  0.4850820000000  0.4245260000000  0.4850620000000 1.0
C      1  0.4873370000000  0.5555560000000  0.4392530000000 1.0
C      1  0.4841720000000  0.5216900000000  0.5772850000000 1.0
C      1  0.4646500000000  0.4858240000000  0.5108110000000 1.0
C      1  0.4653030000000  0.5010850000000  0.4803330000000 1.0
C      1  0.4605230000000  0.5182640000000  0.5081740000000 1.0
C      1  0.4536770000000  0.3864230000000  0.4960220000000 1.0
C      1  0.4494820000000  0.5622270000000  0.3985670000000 1.0
C      1  0.4532290000000  0.5553170000000  0.6004000000000 1.0
C      1  0.6029770000000  0.4858610000000  0.4635080000000 1.0
C      1  0.6065090000000  0.5254390000000  0.4974250000000 1.0
C      1  0.6060460000000  0.4822560000000  0.5155010000000 1.0
C      1  0.4350030000000  0.5144930000000  0.5380190000000 1.0
C      1  0.4369240000000  0.4625960000000  0.4950430000000 1.0
C      1  0.4350370000000  0.5254970000000  0.4717550000000 1.0
C      1  0.5047930000000  0.4129240000000  0.5611470000000 1.0
C      1  0.4947260000000  0.5156840000000  0.3978130000000 1.0
C      1  0.5046380000000  0.5989400000000  0.5445160000000 1.0
C      1  0.4020500000000  0.4766290000000  0.4815780000000 1.0
C      1  0.3996290000000  0.5306560000000  0.4895650000000 1.0
C      1  0.4007920000000  0.4955640000000  0.5306090000000 1.0
C      1  0.4969240000000  0.6146330000000  0.4968190000000 1.0
C      1  0.4947350000000  0.4484450000000  0.5970620000000 1.0
C      1  0.4962470000000  0.4499780000000  0.4098200000000 1.0
C      1  0.4447950000000  0.4874700000000  0.5802750000000 1.0
C      1  0.4478670000000  0.4356420000000  0.4483780000000 1.0
C      1  0.4402990000000  0.5751070000000  0.4678680000000 1.0
C      1  0.6091870000000  0.4691640000000  0.4904450000000 1.0
C      1  0.6089960000000  0.5170770000000  0.4708250000000 1.0
C      1  0.6116090000000  0.5095820000000  0.5210450000000 1.0
C      1  0.5455610000000  0.5435840000000  0.4502590000000 1.0
C      1  0.5339020000000  0.5217660000000  0.5696000000000 1.0
C      1  0.5380780000000  0.4297780000000  0.4890560000000 1.0
C      1  0.4168350000000  0.5437100000000  0.4499260000000 1.0
C      1  0.4168770000000  0.5211620000000  0.5642780000000 1.0
C      1  0.4206070000000  0.4374500000000  0.4831220000000 1.0
C      1  0.5771750000000  0.5341910000000  0.5051690000000 1.0
C      1  0.5767880000000  0.4776570000000  0.5285590000000 1.0
C      1  0.5746250000000  0.4968810000000  0.4729990000000 1.0
C      1  0.5996550000000  0.4428220000000  0.4920960000000 1.0
C      1  0.5948520000000  0.5323720000000  0.4519730000000 1.0
C      1  0.5973680000000  0.5192580000000  0.5444500000000 1.0
C      1  0.4676480000000  0.5126760000000  0.5410580000000 1.0
C      1  0.4690750000000  0.4608510000000  0.4894010000000 1.0
C      1  0.4680000000000  0.5311860000000  0.4643820000000 1.0
C      1  0.4736200000000  0.4878290000000  0.6195590000000 1.0
C      1  0.4789720000000  0.4046040000000  0.4290620000000 1.0
C      1  0.4770440000000  0.6031490000000  0.4495960000000 1.0
C      1  0.4740730000000  0.5424800000000  0.6175120000000 1.0
C      1  0.4759280000000  0.3781040000000  0.4775970000000 1.0
C      1  0.4757440000000  0.5729300000000  0.4033140000000 1.0
C      1  0.5405440000000  0.4985540000000  0.4929620000000 1.0
C      1  0.5720620000000  0.5005340000000  0.5054320000000 1.0
END
