TITL C-2782237-5345-629 0.000267937348993411 125000 -237.581307897916 0 0 41 (C1) n - 1
REM
REM in /home/nfs/bkarasulu/CARBON/AIRSS/Generating-Clusters/REBO/Higher-Symm/SD-CG/HFTN-CG
REM
REM
REM
REM
REM
REM ./C.cell (12c818d87b63d06a65506943cc24bca4)
REM
REM compiler GCC version 9.2.1 20190827 (Red Hat 9.2.1-1)
REM options -cpp -mtune=generic -march=x86-64 -g -O0 -fpre-include=/usr/include/finclude/math-vector-fortran.h
REM seed 411620931 778320401 -339889535 330833541 1447571578 -210315217 -297925931 -706690952 1482505450 -42792619 -2088845637 1436330270 -248342442 1397611151 -830114303 -114758774 217144540 -1134442488 301561705 2004646280 -1882222995 1713752477 -1089423268 -1868299296 -203197985 -410679189 -354685752 1319951710 1882835018 966281338 281042625 -1636922679 -597916213
REM
CELL 1.54180   50.00000   50.00000   50.00000   90.00000   90.00000   90.00000
LATT -1
SFAC C  
C      1  0.5335520000000  0.5419420000000  0.5623170000000 1.0
C      1  0.5237760000000  0.5282030000000  0.4485070000000 1.0
C      1  0.5167060000000  0.5210870000000  0.5599920000000 1.0
C      1  0.5404630000000  0.5491410000000  0.4511580000000 1.0
C      1  0.5088010000000  0.4981190000000  0.5485040000000 1.0
C      1  0.5626060000000  0.5591860000000  0.4628080000000 1.0
C      1  0.5568810000000  0.5533180000000  0.5549790000000 1.0
C      1  0.5149230000000  0.5038940000000  0.4557170000000 1.0
C      1  0.5797310000000  0.5495150000000  0.5411780000000 1.0
C      1  0.5133090000000  0.4817570000000  0.4725580000000 1.0
C      1  0.5096170000000  0.4785600000000  0.5286600000000 1.0
C      1  0.5837510000000  0.5534120000000  0.4784630000000 1.0
C      1  0.5362500000000  0.4691770000000  0.5195640000000 1.0
C      1  0.5956480000000  0.5286360000000  0.4907170000000 1.0
C      1  0.5922760000000  0.5263360000000  0.5269000000000 1.0
C      1  0.5387450000000  0.4704390000000  0.4833280000000 1.0
C      1  0.5396820000000  0.4398870000000  0.5090830000000 1.0
C      1  0.6282760000000  0.5275400000000  0.4933050000000 1.0
C      1  0.6227110000000  0.5261980000000  0.5200320000000 1.0
C      1  0.5420020000000  0.4377940000000  0.4819430000000 1.0
C      1  0.4868580000000  0.4717600000000  0.5130340000000 1.0
C      1  0.3889150000000  0.5396570000000  0.4819130000000 1.0
C      1  0.3871000000000  0.5381660000000  0.5093620000000 1.0
C      1  0.4887600000000  0.4733540000000  0.4842620000000 1.0
C      1  0.4619720000000  0.4672530000000  0.5247270000000 1.0
C      1  0.3955430000000  0.5187200000000  0.4647890000000 1.0
C      1  0.3915710000000  0.5154580000000  0.5248490000000 1.0
C      1  0.4656600000000  0.4703060000000  0.4689850000000 1.0
C      1  0.4387880000000  0.4810520000000  0.4550840000000 1.0
C      1  0.4109410000000  0.4923460000000  0.5357540000000 1.0
C      1  0.4163440000000  0.4967830000000  0.4540950000000 1.0
C      1  0.4334290000000  0.4766500000000  0.5360340000000 1.0
C      1  0.5813460000000  0.5034460000000  0.4816100000000 1.0
C      1  0.5602030000000  0.4836270000000  0.5304300000000 1.0
C      1  0.5638470000000  0.4867300000000  0.4787870000000 1.0
C      1  0.5777520000000  0.5004630000000  0.5320090000000 1.0
C      1  0.3911500000000  0.4860540000000  0.5094840000000 1.0
C      1  0.4368700000000  0.4568990000000  0.4780750000000 1.0
C      1  0.4347200000000  0.4551310000000  0.5105230000000 1.0
C      1  0.3933190000000  0.4878340000000  0.4767050000000 1.0
C      1  0.4074050000000  0.4622310000000  0.4927560000000 1.0
END
