TITL C-2782232-2968-1345 0.00137348899744808 125000 -925.264154060631 0 0 159 (C1) n - 1
REM
REM in /home/nfs/bkarasulu/CARBON/AIRSS/Generating-Clusters/REBO/Higher-Symm/SD-CG/HFTN-CG
REM
REM
REM
REM
REM
REM ./C.cell (12c818d87b63d06a65506943cc24bca4)
REM
REM compiler GCC version 9.2.1 20190827 (Red Hat 9.2.1-1)
REM options -cpp -mtune=generic -march=x86-64 -g -O0 -fpre-include=/usr/include/finclude/math-vector-fortran.h
REM seed -827262346 796789002 697095920 1322805198 270680108 -887901078 -577207980 -1478826623 1825996889 -1493802708 2031650135 157842832 453223887 2143223205 -146795151 -1154581629 309020017 -1062736858 -481776091 -667767534 -1419718629 -1432267486 1127362343 -1601204136 1615557672 703089398 1449007141 -1133770939 -306383739 81101118 1796732801 -1989396092 -237224614
REM
CELL 1.54180   50.00000   50.00000   50.00000   90.00000   90.00000   90.00000
LATT -1
SFAC C  
C      1  0.5536830000000  0.4856030000000  0.5153090000000 1.0
C      1  0.4476090000000  0.4649080000000  0.4928460000000 1.0
C      1  0.5461080000000  0.5540960000000  0.5636870000000 1.0
C      1  0.4666650000000  0.5495410000000  0.4913140000000 1.0
C      1  0.5442920000000  0.5623020000000  0.5113230000000 1.0
C      1  0.4328880000000  0.5287100000000  0.5615410000000 1.0
C      1  0.5761550000000  0.4619610000000  0.5527850000000 1.0
C      1  0.6004840000000  0.4743240000000  0.5237420000000 1.0
C      1  0.5148180000000  0.5216460000000  0.5855560000000 1.0
C      1  0.5615770000000  0.4414700000000  0.4431060000000 1.0
C      1  0.4674840000000  0.6037000000000  0.4763670000000 1.0
C      1  0.5572450000000  0.4898550000000  0.4840870000000 1.0
C      1  0.4438190000000  0.5107900000000  0.5163260000000 1.0
C      1  0.4805910000000  0.5756980000000  0.4884400000000 1.0
C      1  0.5955260000000  0.4453740000000  0.5205040000000 1.0
C      1  0.4159040000000  0.5390920000000  0.5404980000000 1.0
C      1  0.5814230000000  0.5632370000000  0.4893960000000 1.0
C      1  0.4693280000000  0.4102470000000  0.4484180000000 1.0
C      1  0.4105260000000  0.5283050000000  0.4561300000000 1.0
C      1  0.4963340000000  0.5347390000000  0.4906010000000 1.0
C      1  0.5407840000000  0.5265080000000  0.4581600000000 1.0
C      1  0.4092000000000  0.4737780000000  0.4977480000000 1.0
C      1  0.5530860000000  0.5225280000000  0.5604950000000 1.0
C      1  0.4880230000000  0.4333650000000  0.4640140000000 1.0
C      1  0.4051910000000  0.5211590000000  0.5208330000000 1.0
C      1  0.5866940000000  0.5208440000000  0.5391430000000 1.0
C      1  0.4643170000000  0.4944740000000  0.4486860000000 1.0
C      1  0.4639260000000  0.5383950000000  0.5642630000000 1.0
C      1  0.4521550000000  0.5734070000000  0.5328980000000 1.0
C      1  0.5006740000000  0.4258640000000  0.4222700000000 1.0
C      1  0.4931210000000  0.5725600000000  0.4355670000000 1.0
C      1  0.5613460000000  0.5354390000000  0.4326230000000 1.0
C      1  0.4192340000000  0.4599630000000  0.4441450000000 1.0
C      1  0.5405640000000  0.4623970000000  0.4143050000000 1.0
C      1  0.4471980000000  0.5505800000000  0.4328630000000 1.0
C      1  0.4160920000000  0.5084650000000  0.4289360000000 1.0
C      1  0.5280010000000  0.4753730000000  0.5523960000000 1.0
C      1  0.4587680000000  0.5269790000000  0.4128870000000 1.0
C      1  0.4388980000000  0.5056920000000  0.4129960000000 1.0
C      1  0.4704230000000  0.5891300000000  0.5523920000000 1.0
C      1  0.5141040000000  0.5609370000000  0.5039150000000 1.0
C      1  0.5200300000000  0.4893370000000  0.4352830000000 1.0
C      1  0.4832880000000  0.4972950000000  0.5843520000000 1.0
C      1  0.4887720000000  0.3938940000000  0.4675760000000 1.0
C      1  0.4367080000000  0.5135760000000  0.4735830000000 1.0
C      1  0.5262580000000  0.5659660000000  0.4564330000000 1.0
C      1  0.4623880000000  0.4526920000000  0.5278030000000 1.0
C      1  0.4868340000000  0.4462280000000  0.5751340000000 1.0
C      1  0.3897790000000  0.5006640000000  0.4568400000000 1.0
C      1  0.4714650000000  0.4282550000000  0.5502990000000 1.0
C      1  0.4519080000000  0.4803040000000  0.4107380000000 1.0
C      1  0.5961480000000  0.5132570000000  0.4934630000000 1.0
C      1  0.4884980000000  0.6049430000000  0.5361650000000 1.0
C      1  0.4338050000000  0.5771750000000  0.4455730000000 1.0
C      1  0.4206420000000  0.4560210000000  0.4739430000000 1.0
C      1  0.4374390000000  0.5388630000000  0.5052940000000 1.0
C      1  0.5342620000000  0.5399790000000  0.4157300000000 1.0
C      1  0.4450600000000  0.5456080000000  0.4666670000000 1.0
C      1  0.5132630000000  0.5154420000000  0.4488060000000 1.0
C      1  0.5225300000000  0.5210120000000  0.5081630000000 1.0
C      1  0.5922280000000  0.5265170000000  0.4560270000000 1.0
C      1  0.5158100000000  0.4451960000000  0.5864740000000 1.0
C      1  0.5299280000000  0.4727100000000  0.4828470000000 1.0
C      1  0.5648370000000  0.4350850000000  0.4744620000000 1.0
C      1  0.4834140000000  0.5760890000000  0.5753540000000 1.0
C      1  0.5950650000000  0.4864900000000  0.4965540000000 1.0
C      1  0.5394030000000  0.4734290000000  0.4523130000000 1.0
C      1  0.4963850000000  0.4777110000000  0.4652990000000 1.0
C      1  0.4867690000000  0.5021680000000  0.4867670000000 1.0
C      1  0.4897610000000  0.4568440000000  0.5091580000000 1.0
C      1  0.4065630000000  0.5010860000000  0.4844000000000 1.0
C      1  0.5065340000000  0.4832930000000  0.5035340000000 1.0
C      1  0.5256270000000  0.5958470000000  0.4698730000000 1.0
C      1  0.4766210000000  0.5470510000000  0.4423070000000 1.0
C      1  0.4845270000000  0.4658350000000  0.5472860000000 1.0
C      1  0.4720810000000  0.5528720000000  0.5928760000000 1.0
C      1  0.5156630000000  0.4128920000000  0.4673130000000 1.0
C      1  0.4109190000000  0.4749780000000  0.5485140000000 1.0
C      1  0.4927860000000  0.4098350000000  0.5367440000000 1.0
C      1  0.4691850000000  0.4721120000000  0.5834400000000 1.0
C      1  0.4387070000000  0.4259720000000  0.5452090000000 1.0
C      1  0.4750410000000  0.4943310000000  0.5417210000000 1.0
C      1  0.5112460000000  0.5357800000000  0.5347080000000 1.0
C      1  0.4842870000000  0.5176530000000  0.5370000000000 1.0
C      1  0.4458650000000  0.4708320000000  0.5671590000000 1.0
C      1  0.5758700000000  0.5544100000000  0.4571010000000 1.0
C      1  0.5745660000000  0.5518400000000  0.5441630000000 1.0
C      1  0.5861340000000  0.4553260000000  0.4916870000000 1.0
C      1  0.4946740000000  0.5901430000000  0.4606230000000 1.0
C      1  0.5922550000000  0.4907040000000  0.5504280000000 1.0
C      1  0.4326300000000  0.4206500000000  0.5172330000000 1.0
C      1  0.4808460000000  0.5157870000000  0.4470730000000 1.0
C      1  0.5625260000000  0.4275350000000  0.5076150000000 1.0
C      1  0.5511720000000  0.4171730000000  0.5577880000000 1.0
C      1  0.5500370000000  0.4604560000000  0.5226030000000 1.0
C      1  0.5202780000000  0.5627460000000  0.4250430000000 1.0
C      1  0.5462200000000  0.5193070000000  0.4878830000000 1.0
C      1  0.5684460000000  0.5054490000000  0.4578380000000 1.0
C      1  0.4865250000000  0.5146140000000  0.4075240000000 1.0
C      1  0.4795670000000  0.4448390000000  0.4264470000000 1.0
C      1  0.5128250000000  0.4508910000000  0.5452820000000 1.0
C      1  0.4741950000000  0.5504040000000  0.5357230000000 1.0
C      1  0.4565490000000  0.4955640000000  0.4910440000000 1.0
C      1  0.5049850000000  0.5440930000000  0.4609430000000 1.0
C      1  0.4986120000000  0.5407490000000  0.5659190000000 1.0
C      1  0.5708940000000  0.5043160000000  0.4238020000000 1.0
C      1  0.5333160000000  0.4254790000000  0.5760110000000 1.0
C      1  0.5204370000000  0.5126650000000  0.4096590000000 1.0
C      1  0.5290880000000  0.4675490000000  0.5991880000000 1.0
C      1  0.4434610000000  0.5801900000000  0.4744440000000 1.0
C      1  0.5167310000000  0.4247950000000  0.5390920000000 1.0
C      1  0.5709350000000  0.5032910000000  0.5741200000000 1.0
C      1  0.5399830000000  0.6006830000000  0.5213420000000 1.0
C      1  0.5591420000000  0.5369820000000  0.5097080000000 1.0
C      1  0.5548830000000  0.5120620000000  0.5298670000000 1.0
C      1  0.4583500000000  0.4132990000000  0.4985140000000 1.0
C      1  0.5906370000000  0.5445200000000  0.5146150000000 1.0
C      1  0.5008650000000  0.5672430000000  0.5318000000000 1.0
C      1  0.5550390000000  0.4837470000000  0.5934330000000 1.0
C      1  0.4362220000000  0.5726540000000  0.5027960000000 1.0
C      1  0.5549680000000  0.5789300000000  0.4644350000000 1.0
C      1  0.6179960000000  0.5225500000000  0.4541840000000 1.0
C      1  0.5089190000000  0.4478040000000  0.4854540000000 1.0
C      1  0.4494320000000  0.4359670000000  0.4550310000000 1.0
C      1  0.5162830000000  0.5935750000000  0.4992100000000 1.0
C      1  0.5415850000000  0.4124700000000  0.4858240000000 1.0
C      1  0.4695180000000  0.4424080000000  0.4893820000000 1.0
C      1  0.4783550000000  0.3923990000000  0.4941340000000 1.0
C      1  0.5250490000000  0.3917860000000  0.5072830000000 1.0
C      1  0.5732730000000  0.4327560000000  0.5395410000000 1.0
C      1  0.4030920000000  0.4928650000000  0.5233110000000 1.0
C      1  0.4794050000000  0.4861520000000  0.4102000000000 1.0
C      1  0.5257290000000  0.4431130000000  0.4563180000000 1.0
C      1  0.5426870000000  0.4107310000000  0.5264590000000 1.0
C      1  0.5526480000000  0.5761660000000  0.5398170000000 1.0
C      1  0.4769160000000  0.5220420000000  0.5981530000000 1.0
C      1  0.4326960000000  0.4281330000000  0.4836950000000 1.0
C      1  0.5592180000000  0.5876160000000  0.4963800000000 1.0
C      1  0.4654040000000  0.4658890000000  0.4574520000000 1.0
C      1  0.4972740000000  0.3913540000000  0.5150160000000 1.0
C      1  0.5668680000000  0.4732430000000  0.4343930000000 1.0
C      1  0.5522550000000  0.4688780000000  0.5666870000000 1.0
C      1  0.4270600000000  0.4478560000000  0.5588420000000 1.0
C      1  0.5270560000000  0.5230950000000  0.6082960000000 1.0
C      1  0.5176720000000  0.4967770000000  0.5301370000000 1.0
C      1  0.5461620000000  0.4907830000000  0.4052200000000 1.0
C      1  0.4447340000000  0.4951460000000  0.5435810000000 1.0
C      1  0.4461700000000  0.4527470000000  0.4254650000000 1.0
C      1  0.4074940000000  0.5346550000000  0.4898130000000 1.0
C      1  0.5162590000000  0.5697670000000  0.5683750000000 1.0
C      1  0.4308220000000  0.4642230000000  0.5226200000000 1.0
C      1  0.5339030000000  0.4326710000000  0.4248080000000 1.0
C      1  0.4950660000000  0.4716950000000  0.4317400000000 1.0
C      1  0.4862670000000  0.6050130000000  0.5050910000000 1.0
C      1  0.4021880000000  0.4814450000000  0.4359810000000 1.0
C      1  0.5169170000000  0.5933760000000  0.5439100000000 1.0
C      1  0.4211390000000  0.5650070000000  0.5319100000000 1.0
C      1  0.4214930000000  0.5008900000000  0.5678510000000 1.0
C      1  0.5085460000000  0.4993220000000  0.5629600000000 1.0
END
