TITL C-2782238-9940-1091 -5.63821454782923e-07 125000 -79.4763939701049 0 0 15 (Cs) n - 1
REM
REM in /home/nfs/bkarasulu/CARBON/AIRSS/Generating-Clusters/REBO/Higher-Symm/SD-CG/HFTN-CG
REM
REM
REM
REM
REM
REM ./C.cell (12c818d87b63d06a65506943cc24bca4)
REM
REM compiler GCC version 9.2.1 20190827 (Red Hat 9.2.1-1)
REM options -cpp -mtune=generic -march=x86-64 -g -O0 -fpre-include=/usr/include/finclude/math-vector-fortran.h
REM seed 1576490237 -1929438001 -181024250 -893941752 1780518005 -450744115 1965673732 -245114379 -1976994878 -2105336132 -1889530400 1171647139 1331444535 817741212 -1952240251 513177134 -1909087805 1093014860 515769920 -977854350 -1789689554 -4772500 -2080713197 107177714 -1538481117 -1182088139 1275590100 200813928 -95500007 1934424154 -1252326816 -118794218 145230742
REM
CELL 1.54180   50.00000   50.00000   50.00000   90.00000   90.00000   90.00000
LATT -1
SFAC C  
C      1  0.5159240000000  0.4731130000000  0.5479610000000 1.0
C      1  0.5285510000000  0.4947600000000  0.4231530000000 1.0
C      1  0.4802470000000  0.5069750000000  0.5404730000000 1.0
C      1  0.5037310000000  0.4893910000000  0.5275710000000 1.0
C      1  0.4834980000000  0.4960470000000  0.5708760000000 1.0
C      1  0.4300450000000  0.4938880000000  0.5189910000000 1.0
C      1  0.5162490000000  0.4920990000000  0.4749060000000 1.0
C      1  0.5039610000000  0.4772250000000  0.5728990000000 1.0
C      1  0.5407550000000  0.4973990000000  0.3718110000000 1.0
C      1  0.5347020000000  0.4960900000000  0.3972760000000 1.0
C      1  0.5100980000000  0.4907680000000  0.5007820000000 1.0
C      1  0.4860640000000  0.5369880000000  0.5385570000000 1.0
C      1  0.4528610000000  0.4998360000000  0.5287540000000 1.0
C      1  0.4909110000000  0.5619920000000  0.5369610000000 1.0
C      1  0.5224000000000  0.4934290000000  0.4490290000000 1.0
END
