TITL C-2782227-3064-301 0.00162835413703431 125000 -628.646787002748 0 0 112 (C1) n - 1
REM
REM in /home/nfs/bkarasulu/CARBON/AIRSS/Generating-Clusters/REBO/Higher-Symm/SD-CG/HFTN-CG
REM
REM
REM
REM
REM
REM ./C.cell (12c818d87b63d06a65506943cc24bca4)
REM
REM compiler GCC version 9.2.1 20190827 (Red Hat 9.2.1-1)
REM options -cpp -mtune=generic -march=x86-64 -g -O0 -fpre-include=/usr/include/finclude/math-vector-fortran.h
REM seed -1809600121 690308524 511392811 -1760150897 2011061553 1377728512 13379768 -999535240 1334765618 -2076607139 -773286892 -1078919871 1361054876 -157080356 -412883018 726653496 -1726045004 382839732 574648994 -63241914 1267170119 -2017435529 547507408 -77453452 -1599198731 7780023 883866984 471400635 389679376 1844886558 542632191 -221563834 1066198836
REM
CELL 1.54180   50.00000   50.00000   50.00000   90.00000   90.00000   90.00000
LATT -1
SFAC C  
C      1  0.4664940000000  0.5624130000000  0.5403810000000 1.0
C      1  0.5203460000000  0.5674330000000  0.4556370000000 1.0
C      1  0.5578340000000  0.5368860000000  0.5457470000000 1.0
C      1  0.5642190000000  0.4842840000000  0.4564890000000 1.0
C      1  0.5334380000000  0.4371910000000  0.5431600000000 1.0
C      1  0.4845290000000  0.4371410000000  0.4518780000000 1.0
C      1  0.4423460000000  0.4619900000000  0.5480420000000 1.0
C      1  0.4309860000000  0.5144340000000  0.4583740000000 1.0
C      1  0.4990280000000  0.4829080000000  0.4109860000000 1.0
C      1  0.4859910000000  0.4861870000000  0.5846900000000 1.0
C      1  0.4722800000000  0.5004170000000  0.4212500000000 1.0
C      1  0.4806760000000  0.5182720000000  0.5849700000000 1.0
C      1  0.4969320000000  0.5223070000000  0.4175270000000 1.0
C      1  0.5137390000000  0.5149020000000  0.5842630000000 1.0
C      1  0.5240750000000  0.5039480000000  0.4114450000000 1.0
C      1  0.5188240000000  0.4828300000000  0.5856740000000 1.0
C      1  0.4390490000000  0.5273290000000  0.5685610000000 1.0
C      1  0.4759310000000  0.5582290000000  0.4291550000000 1.0
C      1  0.5284030000000  0.5592160000000  0.5647210000000 1.0
C      1  0.5621780000000  0.5214860000000  0.4340850000000 1.0
C      1  0.5606290000000  0.4729540000000  0.5691100000000 1.0
C      1  0.5195600000000  0.4391160000000  0.4326870000000 1.0
C      1  0.4713080000000  0.4409900000000  0.5658510000000 1.0
C      1  0.4392390000000  0.4830710000000  0.4352970000000 1.0
C      1  0.4582370000000  0.4702780000000  0.5771610000000 1.0
C      1  0.4453800000000  0.5143810000000  0.4271420000000 1.0
C      1  0.4683640000000  0.5446520000000  0.5694440000000 1.0
C      1  0.5086570000000  0.5522520000000  0.4274430000000 1.0
C      1  0.5418480000000  0.5299760000000  0.5753030000000 1.0
C      1  0.5508240000000  0.4912140000000  0.4254110000000 1.0
C      1  0.5312170000000  0.4559810000000  0.5715570000000 1.0
C      1  0.4926700000000  0.4517770000000  0.4216710000000 1.0
C      1  0.4878180000000  0.4468320000000  0.5174380000000 1.0
C      1  0.4531210000000  0.4692420000000  0.4850830000000 1.0
C      1  0.4511790000000  0.5110570000000  0.5198530000000 1.0
C      1  0.4748420000000  0.5404390000000  0.4814400000000 1.0
C      1  0.5131420000000  0.5505790000000  0.5165200000000 1.0
C      1  0.5461350000000  0.5288510000000  0.4824730000000 1.0
C      1  0.5469810000000  0.4882110000000  0.5194710000000 1.0
C      1  0.5264720000000  0.4564810000000  0.4827200000000 1.0
C      1  0.5662170000000  0.4562020000000  0.5064130000000 1.0
C      1  0.5135360000000  0.4208670000000  0.4948200000000 1.0
C      1  0.4536410000000  0.4330410000000  0.5027070000000 1.0
C      1  0.4173850000000  0.4816470000000  0.4972830000000 1.0
C      1  0.4327720000000  0.5433280000000  0.5056380000000 1.0
C      1  0.4838430000000  0.5779820000000  0.4905530000000 1.0
C      1  0.5460720000000  0.5682980000000  0.5028440000000 1.0
C      1  0.5811690000000  0.5162910000000  0.4965740000000 1.0
C      1  0.5439980000000  0.4125660000000  0.4836440000000 1.0
C      1  0.4704530000000  0.4061790000000  0.5118590000000 1.0
C      1  0.4139460000000  0.4510620000000  0.4846850000000 1.0
C      1  0.4056890000000  0.5279080000000  0.5177180000000 1.0
C      1  0.4521660000000  0.5846480000000  0.4815290000000 1.0
C      1  0.5297020000000  0.5965040000000  0.5111330000000 1.0
C      1  0.5890420000000  0.5456940000000  0.4842160000000 1.0
C      1  0.5949970000000  0.4712730000000  0.5153290000000 1.0
C      1  0.5425530000000  0.5488170000000  0.4283790000000 1.0
C      1  0.5641970000000  0.5063940000000  0.5706040000000 1.0
C      1  0.5440050000000  0.4602840000000  0.4317680000000 1.0
C      1  0.5045750000000  0.4348000000000  0.5705470000000 1.0
C      1  0.4613100000000  0.4610910000000  0.4300060000000 1.0
C      1  0.4357820000000  0.4935990000000  0.5714420000000 1.0
C      1  0.4505330000000  0.5465120000000  0.4255530000000 1.0
C      1  0.4950730000000  0.5657980000000  0.5678980000000 1.0
C      1  0.4797110000000  0.5023650000000  0.5305810000000 1.0
C      1  0.4887620000000  0.5134580000000  0.4771250000000 1.0
C      1  0.5036860000000  0.5250410000000  0.5304720000000 1.0
C      1  0.5218120000000  0.5144800000000  0.4701050000000 1.0
C      1  0.5191910000000  0.4965950000000  0.5309610000000 1.0
C      1  0.5127870000000  0.4818670000000  0.4735680000000 1.0
C      1  0.4958300000000  0.4736740000000  0.5310580000000 1.0
C      1  0.4789740000000  0.4821750000000  0.4787670000000 1.0
C      1  0.5558290000000  0.4614640000000  0.5387200000000 1.0
C      1  0.5154300000000  0.4311260000000  0.4627130000000 1.0
C      1  0.4609610000000  0.4366010000000  0.5359180000000 1.0
C      1  0.4289010000000  0.4825450000000  0.4652500000000 1.0
C      1  0.4436260000000  0.5388630000000  0.5379440000000 1.0
C      1  0.4874140000000  0.5633240000000  0.4594610000000 1.0
C      1  0.5390950000000  0.5626250000000  0.5352260000000 1.0
C      1  0.5716870000000  0.5157670000000  0.4641780000000 1.0
C      1  0.4927500000000  0.4139780000000  0.5276460000000 1.0
C      1  0.4366740000000  0.4435620000000  0.4687950000000 1.0
C      1  0.4189020000000  0.5054840000000  0.5290110000000 1.0
C      1  0.4482200000000  0.5580490000000  0.4717790000000 1.0
C      1  0.5073530000000  0.5834960000000  0.5229120000000 1.0
C      1  0.5657290000000  0.5546680000000  0.4711850000000 1.0
C      1  0.5792960000000  0.4919240000000  0.5277590000000 1.0
C      1  0.5531980000000  0.4375380000000  0.4739460000000 1.0
C      1  0.4172160000000  0.4844130000000  0.5478690000000 1.0
C      1  0.4352440000000  0.5445920000000  0.4510560000000 1.0
C      1  0.4881260000000  0.5853220000000  0.5435010000000 1.0
C      1  0.5519670000000  0.5688600000000  0.4511780000000 1.0
C      1  0.5822300000000  0.5136890000000  0.5459210000000 1.0
C      1  0.5656830000000  0.4517320000000  0.4530200000000 1.0
C      1  0.5121600000000  0.4138940000000  0.5479040000000 1.0
C      1  0.4520920000000  0.4355840000000  0.4468760000000 1.0
C      1  0.4632890000000  0.5574790000000  0.5086770000000 1.0
C      1  0.5157020000000  0.5677430000000  0.4871800000000 1.0
C      1  0.5603420000000  0.5386360000000  0.5118340000000 1.0
C      1  0.5654890000000  0.4866050000000  0.4905960000000 1.0
C      1  0.5363340000000  0.4405210000000  0.5111060000000 1.0
C      1  0.4834320000000  0.4344270000000  0.4859360000000 1.0
C      1  0.4386270000000  0.4613260000000  0.5144360000000 1.0
C      1  0.4316230000000  0.5121030000000  0.4917550000000 1.0
C      1  0.4897550000000  0.5239900000000  0.4481880000000 1.0
C      1  0.5058140000000  0.5351820000000  0.5593180000000 1.0
C      1  0.5288890000000  0.5205110000000  0.4409300000000 1.0
C      1  0.5351430000000  0.4934800000000  0.5583150000000 1.0
C      1  0.5162280000000  0.4779090000000  0.4404460000000 1.0
C      1  0.4938990000000  0.4649380000000  0.5604300000000 1.0
C      1  0.4830090000000  0.4809450000000  0.4471160000000 1.0
C      1  0.4643130000000  0.5065270000000  0.5580790000000 1.0
END
