TITL C-2782228-2999-885 -0.00138938196620854 125000 -769.885058978334 0 0 133 (C1) n - 1
REM
REM in /home/nfs/bkarasulu/CARBON/AIRSS/Generating-Clusters/REBO/Higher-Symm/SD-CG/HFTN-CG
REM
REM
REM
REM
REM
REM ./C.cell (12c818d87b63d06a65506943cc24bca4)
REM
REM compiler GCC version 9.2.1 20190827 (Red Hat 9.2.1-1)
REM options -cpp -mtune=generic -march=x86-64 -g -O0 -fpre-include=/usr/include/finclude/math-vector-fortran.h
REM seed -371167410 -247426445 1328421950 782035351 -2085456957 -1877880808 -540101802 899607592 2053550218 -932107953 1495204525 741616800 -2078039576 604110117 1177683105 233757835 -947088619 960661751 -974514079 1137819727 -775246346 -160619710 -1869270506 -1425060502 -1483678159 -551533400 335513667 -226445471 1665048585 285618417 193882617 2041401915 1053686071
REM
CELL 1.54180   50.00000   50.00000   50.00000   90.00000   90.00000   90.00000
LATT -1
SFAC C  
C      1  0.3923380000000  0.4993960000000  0.4832050000000 1.0
C      1  0.5557070000000  0.5936090000000  0.4805440000000 1.0
C      1  0.5501490000000  0.4033340000000  0.4810920000000 1.0
C      1  0.4213650000000  0.5615140000000  0.4897540000000 1.0
C      1  0.5913600000000  0.5334230000000  0.4889360000000 1.0
C      1  0.4816660000000  0.4018960000000  0.4866630000000 1.0
C      1  0.5556070000000  0.5518430000000  0.4520960000000 1.0
C      1  0.5164870000000  0.4292820000000  0.4534490000000 1.0
C      1  0.4313130000000  0.5193710000000  0.4568220000000 1.0
C      1  0.5482630000000  0.4374340000000  0.5018130000000 1.0
C      1  0.4241980000000  0.4868140000000  0.5038130000000 1.0
C      1  0.5273120000000  0.5737650000000  0.5012540000000 1.0
C      1  0.4492690000000  0.4922670000000  0.5222050000000 1.0
C      1  0.5188820000000  0.5488850000000  0.5163330000000 1.0
C      1  0.5308450000000  0.4570520000000  0.5172890000000 1.0
C      1  0.4530010000000  0.5454340000000  0.4361340000000 1.0
C      1  0.5649400000000  0.5184850000000  0.4326450000000 1.0
C      1  0.4822860000000  0.4398000000000  0.4361380000000 1.0
C      1  0.5007540000000  0.3961990000000  0.5132790000000 1.0
C      1  0.4081100000000  0.5468610000000  0.5153420000000 1.0
C      1  0.5874700000000  0.5560020000000  0.5122820000000 1.0
C      1  0.4374140000000  0.4325590000000  0.5266720000000 1.0
C      1  0.4749050000000  0.5851670000000  0.5240220000000 1.0
C      1  0.5863570000000  0.4772610000000  0.5273570000000 1.0
C      1  0.4774340000000  0.5449400000000  0.4509620000000 1.0
C      1  0.5570460000000  0.4996280000000  0.4561850000000 1.0
C      1  0.4709690000000  0.4605390000000  0.4522140000000 1.0
C      1  0.5482590000000  0.4072130000000  0.5133060000000 1.0
C      1  0.3963540000000  0.5001610000000  0.5149030000000 1.0
C      1  0.5529510000000  0.5901440000000  0.5123440000000 1.0
C      1  0.5638300000000  0.4427930000000  0.4518370000000 1.0
C      1  0.4246100000000  0.4694300000000  0.4577790000000 1.0
C      1  0.5172090000000  0.5843270000000  0.4499960000000 1.0
C      1  0.4452680000000  0.4926180000000  0.4826740000000 1.0
C      1  0.5189590000000  0.5556990000000  0.4770900000000 1.0
C      1  0.5373930000000  0.4545790000000  0.4780580000000 1.0
C      1  0.5200870000000  0.4654080000000  0.4130840000000 1.0
C      1  0.4564740000000  0.5001810000000  0.4119860000000 1.0
C      1  0.5225860000000  0.5367390000000  0.4108820000000 1.0
C      1  0.4828530000000  0.4927230000000  0.5161400000000 1.0
C      1  0.5036740000000  0.5184750000000  0.5153800000000 1.0
C      1  0.5160870000000  0.4874120000000  0.5130670000000 1.0
C      1  0.4759160000000  0.4268130000000  0.5341990000000 1.0
C      1  0.4490380000000  0.5573620000000  0.5346760000000 1.0
C      1  0.5701680000000  0.5129550000000  0.5347680000000 1.0
C      1  0.4052520000000  0.5246680000000  0.5310150000000 1.0
C      1  0.5712840000000  0.5714180000000  0.5282090000000 1.0
C      1  0.5221270000000  0.4028450000000  0.5290860000000 1.0
C      1  0.5582620000000  0.5678480000000  0.5545990000000 1.0
C      1  0.5251810000000  0.4169470000000  0.5541890000000 1.0
C      1  0.4171720000000  0.5142190000000  0.5551840000000 1.0
C      1  0.4601230000000  0.5473270000000  0.5653580000000 1.0
C      1  0.5623780000000  0.5074800000000  0.5646700000000 1.0
C      1  0.4798650000000  0.4426990000000  0.5642200000000 1.0
C      1  0.4732810000000  0.4780850000000  0.4033550000000 1.0
C      1  0.4938570000000  0.5330760000000  0.4053310000000 1.0
C      1  0.5331000000000  0.4894910000000  0.4045030000000 1.0
C      1  0.4591340000000  0.4113280000000  0.5107860000000 1.0
C      1  0.4455480000000  0.5764260000000  0.5087690000000 1.0
C      1  0.5922880000000  0.5070800000000  0.5111570000000 1.0
C      1  0.4517920000000  0.4278520000000  0.4816340000000 1.0
C      1  0.4697440000000  0.5770600000000  0.4848330000000 1.0
C      1  0.5828330000000  0.4879680000000  0.4843310000000 1.0
C      1  0.5431400000000  0.4833490000000  0.4831830000000 1.0
C      1  0.4631270000000  0.4691340000000  0.4817140000000 1.0
C      1  0.4908960000000  0.5436020000000  0.4805050000000 1.0
C      1  0.4948320000000  0.4454550000000  0.5225350000000 1.0
C      1  0.4524310000000  0.5303350000000  0.5237600000000 1.0
C      1  0.5462180000000  0.5208910000000  0.5232430000000 1.0
C      1  0.4566310000000  0.5107250000000  0.5478460000000 1.0
C      1  0.5264450000000  0.5332410000000  0.5443530000000 1.0
C      1  0.5114790000000  0.4628960000000  0.5441110000000 1.0
C      1  0.4022920000000  0.4730860000000  0.5335620000000 1.0
C      1  0.5263070000000  0.5985950000000  0.5317260000000 1.0
C      1  0.5685440000000  0.4257650000000  0.5334170000000 1.0
C      1  0.4920730000000  0.4577800000000  0.4128140000000 1.0
C      1  0.4656520000000  0.5280770000000  0.4129700000000 1.0
C      1  0.5430810000000  0.5158400000000  0.4115270000000 1.0
C      1  0.4169240000000  0.4849500000000  0.5561960000000 1.0
C      1  0.5299310000000  0.5813050000000  0.5555110000000 1.0
C      1  0.5512040000000  0.4319710000000  0.5565410000000 1.0
C      1  0.4786150000000  0.4858250000000  0.5483900000000 1.0
C      1  0.4948060000000  0.5223560000000  0.5484210000000 1.0
C      1  0.5218670000000  0.4938720000000  0.5466310000000 1.0
C      1  0.4627010000000  0.4947280000000  0.5836680000000 1.0
C      1  0.5126000000000  0.5353420000000  0.5815690000000 1.0
C      1  0.5223890000000  0.4737890000000  0.5808860000000 1.0
C      1  0.4185790000000  0.4539170000000  0.5106100000000 1.0
C      1  0.5012160000000  0.5939480000000  0.5090580000000 1.0
C      1  0.5785510000000  0.4497570000000  0.5113280000000 1.0
C      1  0.5025050000000  0.5306030000000  0.4445090000000 1.0
C      1  0.5278430000000  0.4854810000000  0.4466260000000 1.0
C      1  0.4770960000000  0.4889710000000  0.4439160000000 1.0
C      1  0.5833490000000  0.5358730000000  0.4556420000000 1.0
C      1  0.4885020000000  0.4111240000000  0.4540070000000 1.0
C      1  0.4264650000000  0.5521480000000  0.4568490000000 1.0
C      1  0.5127340000000  0.4427770000000  0.5693110000000 1.0
C      1  0.4417420000000  0.5207220000000  0.5748830000000 1.0
C      1  0.5424360000000  0.5454610000000  0.5679880000000 1.0
C      1  0.5070880000000  0.4543730000000  0.4742910000000 1.0
C      1  0.4595780000000  0.5193740000000  0.4763100000000 1.0
C      1  0.5382620000000  0.5328080000000  0.4721940000000 1.0
C      1  0.4397790000000  0.4738700000000  0.5692180000000 1.0
C      1  0.5087620000000  0.5664770000000  0.5679680000000 1.0
C      1  0.5500180000000  0.4571990000000  0.5696900000000 1.0
C      1  0.4481230000000  0.4450350000000  0.5564410000000 1.0
C      1  0.4794970000000  0.5726460000000  0.5553830000000 1.0
C      1  0.5723040000000  0.4774800000000  0.5578600000000 1.0
C      1  0.4811760000000  0.5227670000000  0.5770010000000 1.0
C      1  0.5299780000000  0.5067240000000  0.5750260000000 1.0
C      1  0.4886310000000  0.4736040000000  0.5761430000000 1.0
C      1  0.4105200000000  0.4959410000000  0.4633770000000 1.0
C      1  0.5467620000000  0.5816230000000  0.4577980000000 1.0
C      1  0.5456400000000  0.4192120000000  0.4593910000000 1.0
C      1  0.4580130000000  0.4506440000000  0.5050470000000 1.0
C      1  0.4780550000000  0.5531820000000  0.5075390000000 1.0
C      1  0.5590860000000  0.4852840000000  0.5082170000000 1.0
C      1  0.5642810000000  0.5168340000000  0.4844480000000 1.0
C      1  0.4851520000000  0.4335740000000  0.4778410000000 1.0
C      1  0.4502580000000  0.5496870000000  0.4794600000000 1.0
C      1  0.4918650000000  0.5509660000000  0.5352420000000 1.0
C      1  0.5474870000000  0.4786180000000  0.5361710000000 1.0
C      1  0.4610600000000  0.4638440000000  0.5330780000000 1.0
C      1  0.4433120000000  0.4925440000000  0.4410210000000 1.0
C      1  0.5257770000000  0.5541150000000  0.4377720000000 1.0
C      1  0.5344630000000  0.4537390000000  0.4385500000000 1.0
C      1  0.5732320000000  0.4576070000000  0.4784750000000 1.0
C      1  0.4279470000000  0.4500540000000  0.4787020000000 1.0
C      1  0.4987120000000  0.5846820000000  0.4760470000000 1.0
C      1  0.4913370000000  0.5114780000000  0.4782020000000 1.0
C      1  0.5221140000000  0.5061820000000  0.4738670000000 1.0
C      1  0.4926090000000  0.4799610000000  0.4796120000000 1.0
C      1  0.5008540000000  0.5025020000000  0.4404460000000 1.0
END
