TITL C-2782235-7892-853 0.000115546660369123 125000 -717.34776769239 0 0 121 (C1) n - 1
REM
REM in /home/nfs/bkarasulu/CARBON/AIRSS/Generating-Clusters/REBO/Higher-Symm/SD-CG/HFTN-CG
REM
REM
REM
REM
REM
REM ./C.cell (12c818d87b63d06a65506943cc24bca4)
REM
REM compiler GCC version 9.2.1 20190827 (Red Hat 9.2.1-1)
REM options -cpp -mtune=generic -march=x86-64 -g -O0 -fpre-include=/usr/include/finclude/math-vector-fortran.h
REM seed -302320378 -1733279610 -448450057 -596698810 -1415468625 1810416797 479644263 -2141036795 1694573954 -34731632 2093915026 2026384953 -1454369501 818579063 1217724944 1846239226 412583415 -1540216358 1216550905 528360663 -1096126311 603201359 554116755 2014994346 1483528753 625898626 787179909 -114700712 -758673926 -933180812 -2057031394 -722981075 1198960703
REM
CELL 1.54180   50.00000   50.00000   50.00000   90.00000   90.00000   90.00000
LATT -1
SFAC C  
C      1  0.4653360000000  0.4824650000000  0.5260650000000 1.0
C      1  0.4878020000000  0.4833160000000  0.4523800000000 1.0
C      1  0.5451480000000  0.4857660000000  0.5123760000000 1.0
C      1  0.4629230000000  0.5150070000000  0.5356930000000 1.0
C      1  0.4880370000000  0.5168260000000  0.4572540000000 1.0
C      1  0.5509080000000  0.5188290000000  0.5182220000000 1.0
C      1  0.4437480000000  0.5599670000000  0.5508000000000 1.0
C      1  0.4837360000000  0.5616300000000  0.4286780000000 1.0
C      1  0.5707930000000  0.5685130000000  0.5248730000000 1.0
C      1  0.4444890000000  0.4402120000000  0.5491520000000 1.0
C      1  0.4846100000000  0.4347530000000  0.4244880000000 1.0
C      1  0.5646970000000  0.4359080000000  0.5257430000000 1.0
C      1  0.4304950000000  0.4728330000000  0.4631110000000 1.0
C      1  0.5643350000000  0.4738650000000  0.4577340000000 1.0
C      1  0.5080140000000  0.4682760000000  0.5751060000000 1.0
C      1  0.4324920000000  0.5272780000000  0.4652830000000 1.0
C      1  0.5628370000000  0.5275920000000  0.4613060000000 1.0
C      1  0.5084310000000  0.5237960000000  0.5797180000000 1.0
C      1  0.4581050000000  0.4154930000000  0.5326700000000 1.0
C      1  0.4894300000000  0.4130130000000  0.4479930000000 1.0
C      1  0.5493710000000  0.4103330000000  0.5185530000000 1.0
C      1  0.4609070000000  0.5821360000000  0.5343410000000 1.0
C      1  0.5053340000000  0.5850250000000  0.4301430000000 1.0
C      1  0.5454790000000  0.5873730000000  0.5202000000000 1.0
C      1  0.5294340000000  0.5141870000000  0.4143340000000 1.0
C      1  0.5670610000000  0.5206380000000  0.5715100000000 1.0
C      1  0.4066370000000  0.5187250000000  0.5208440000000 1.0
C      1  0.5285060000000  0.4802670000000  0.4098790000000 1.0
C      1  0.5615750000000  0.4873450000000  0.5701090000000 1.0
C      1  0.4080550000000  0.4847990000000  0.5169260000000 1.0
C      1  0.4799530000000  0.5137420000000  0.4277300000000 1.0
C      1  0.5835850000000  0.5198680000000  0.5219670000000 1.0
C      1  0.4426020000000  0.5148920000000  0.5606720000000 1.0
C      1  0.4764010000000  0.4811900000000  0.4205280000000 1.0
C      1  0.5760980000000  0.4879180000000  0.5195680000000 1.0
C      1  0.4457270000000  0.4826450000000  0.5512380000000 1.0
C      1  0.5340740000000  0.4574710000000  0.4259290000000 1.0
C      1  0.5466770000000  0.4642420000000  0.5659180000000 1.0
C      1  0.4179500000000  0.4606590000000  0.5059270000000 1.0
C      1  0.5326320000000  0.5384320000000  0.4285430000000 1.0
C      1  0.5493110000000  0.5425900000000  0.5682150000000 1.0
C      1  0.4197740000000  0.5405710000000  0.5079140000000 1.0
C      1  0.4558540000000  0.5851470000000  0.5078110000000 1.0
C      1  0.5262560000000  0.5909540000000  0.4420580000000 1.0
C      1  0.5279610000000  0.5890640000000  0.5405660000000 1.0
C      1  0.4491360000000  0.4106830000000  0.5074310000000 1.0
C      1  0.5153670000000  0.4090320000000  0.4552260000000 1.0
C      1  0.5300550000000  0.4036110000000  0.5365540000000 1.0
C      1  0.4804730000000  0.5481430000000  0.4660490000000 1.0
C      1  0.5413020000000  0.5491630000000  0.5061450000000 1.0
C      1  0.4774020000000  0.5457880000000  0.5345310000000 1.0
C      1  0.4834360000000  0.4510330000000  0.4622080000000 1.0
C      1  0.5375290000000  0.4539590000000  0.5026300000000 1.0
C      1  0.4762540000000  0.4521510000000  0.5281890000000 1.0
C      1  0.5535760000000  0.4269990000000  0.4889190000000 1.0
C      1  0.4825550000000  0.4297760000000  0.5518450000000 1.0
C      1  0.4594050000000  0.4282660000000  0.4542980000000 1.0
C      1  0.5547390000000  0.5757140000000  0.4893800000000 1.0
C      1  0.4815870000000  0.5687370000000  0.5582070000000 1.0
C      1  0.4568170000000  0.5637810000000  0.4483160000000 1.0
C      1  0.4645950000000  0.4531890000000  0.5694520000000 1.0
C      1  0.4565000000000  0.4469010000000  0.4257010000000 1.0
C      1  0.5800260000000  0.4452530000000  0.5008290000000 1.0
C      1  0.4594530000000  0.5483840000000  0.5745470000000 1.0
C      1  0.4561760000000  0.5429690000000  0.4213610000000 1.0
C      1  0.5837040000000  0.5600020000000  0.4984220000000 1.0
C      1  0.5864950000000  0.5164330000000  0.4739200000000 1.0
C      1  0.4882990000000  0.5098560000000  0.5947100000000 1.0
C      1  0.4247320000000  0.5155770000000  0.4407140000000 1.0
C      1  0.5865260000000  0.4858310000000  0.4730790000000 1.0
C      1  0.4901510000000  0.4796060000000  0.5936170000000 1.0
C      1  0.4244970000000  0.4853740000000  0.4384440000000 1.0
C      1  0.5145000000000  0.4821670000000  0.5191710000000 1.0
C      1  0.4676460000000  0.4734000000000  0.4955580000000 1.0
C      1  0.5151020000000  0.4745910000000  0.4686440000000 1.0
C      1  0.5198800000000  0.5236390000000  0.5282100000000 1.0
C      1  0.4725750000000  0.5192190000000  0.5053080000000 1.0
C      1  0.5106250000000  0.5223430000000  0.4778550000000 1.0
C      1  0.5392810000000  0.5140870000000  0.4693270000000 1.0
C      1  0.5134320000000  0.5108730000000  0.5549610000000 1.0
C      1  0.4528850000000  0.5137040000000  0.4798760000000 1.0
C      1  0.5396830000000  0.4872630000000  0.4649710000000 1.0
C      1  0.5102260000000  0.4835310000000  0.5514310000000 1.0
C      1  0.4520340000000  0.4863840000000  0.4767750000000 1.0
C      1  0.5116810000000  0.5719820000000  0.5635450000000 1.0
C      1  0.4475650000000  0.5698240000000  0.4788420000000 1.0
C      1  0.5444920000000  0.5741510000000  0.4598460000000 1.0
C      1  0.5139410000000  0.4256020000000  0.5513050000000 1.0
C      1  0.4396630000000  0.4259010000000  0.4787570000000 1.0
C      1  0.5445320000000  0.4252220000000  0.4594730000000 1.0
C      1  0.4204420000000  0.4510600000000  0.4788410000000 1.0
C      1  0.5565870000000  0.4501720000000  0.4425950000000 1.0
C      1  0.5248610000000  0.4435870000000  0.5740860000000 1.0
C      1  0.4231460000000  0.5493830000000  0.4809030000000 1.0
C      1  0.5550240000000  0.5487670000000  0.4441280000000 1.0
C      1  0.5238440000000  0.5481700000000  0.5806140000000 1.0
C      1  0.5105630000000  0.5536100000000  0.5344460000000 1.0
C      1  0.4696260000000  0.5497450000000  0.4956100000000 1.0
C      1  0.5259480000000  0.5510660000000  0.4772270000000 1.0
C      1  0.5077460000000  0.4506890000000  0.5290150000000 1.0
C      1  0.4668480000000  0.4423840000000  0.4908340000000 1.0
C      1  0.5203380000000  0.4439380000000  0.4748630000000 1.0
C      1  0.4443260000000  0.4492660000000  0.5166740000000 1.0
C      1  0.5104120000000  0.4462470000000  0.4416110000000 1.0
C      1  0.5408910000000  0.4544400000000  0.5367060000000 1.0
C      1  0.4463170000000  0.5477670000000  0.5203240000000 1.0
C      1  0.5092060000000  0.5491610000000  0.4474110000000 1.0
C      1  0.5446550000000  0.5526490000000  0.5398150000000 1.0
C      1  0.4158230000000  0.4893690000000  0.5458470000000 1.0
C      1  0.4992360000000  0.4782560000000  0.3972550000000 1.0
C      1  0.5840770000000  0.4918780000000  0.5501190000000 1.0
C      1  0.4111160000000  0.5196960000000  0.5527430000000 1.0
C      1  0.5011150000000  0.5085650000000  0.4054500000000 1.0
C      1  0.5927860000000  0.5224070000000  0.5529580000000 1.0
C      1  0.5888260000000  0.4717220000000  0.4982320000000 1.0
C      1  0.4601840000000  0.4851530000000  0.5808040000000 1.0
C      1  0.4451170000000  0.4756470000000  0.4165570000000 1.0
C      1  0.5928180000000  0.5331440000000  0.4969240000000 1.0
C      1  0.4590560000000  0.5190420000000  0.5875810000000 1.0
C      1  0.4486060000000  0.5098660000000  0.4183640000000 1.0
C      1  0.5021400000000  0.5105070000000  0.5048020000000 1.0
END
