TITL C-2782229-3092-21 -0.00710478114908037 125000 -728.230136813443 0 0 126 (C1) n - 1
REM
REM in /home/nfs/bkarasulu/CARBON/AIRSS/Generating-Clusters/REBO/Higher-Symm/SD-CG/HFTN-CG
REM
REM
REM
REM
REM
REM ./C.cell (12c818d87b63d06a65506943cc24bca4)
REM
REM compiler GCC version 9.2.1 20190827 (Red Hat 9.2.1-1)
REM options -cpp -mtune=generic -march=x86-64 -g -O0 -fpre-include=/usr/include/finclude/math-vector-fortran.h
REM seed -2054095175 -1893905275 -25039327 2090074054 -190117221 -1059285657 989542870 1103228312 538583167 -480520839 1186055880 -2101759158 -1858625175 -1278444615 2134792233 883921765 45388311 1533410129 -355905783 -627918828 43440312 -1023033128 -1551274837 512745204 529589963 -601997858 1110319492 423487380 -995955262 -326399878 -429036897 -52909875 382023609
REM
CELL 1.54180   50.00000   50.00000   50.00000   90.00000   90.00000   90.00000
LATT -1
SFAC C  
C      1  0.5341020000000  0.5779520000000  0.4540840000000 1.0
C      1  0.4481070000000  0.4710510000000  0.4814300000000 1.0
C      1  0.4988160000000  0.5082210000000  0.5527630000000 1.0
C      1  0.5427840000000  0.5169060000000  0.4068090000000 1.0
C      1  0.5239920000000  0.4752480000000  0.4040900000000 1.0
C      1  0.5286070000000  0.5272900000000  0.4360380000000 1.0
C      1  0.4984060000000  0.4534780000000  0.5208060000000 1.0
C      1  0.4233060000000  0.5140760000000  0.5458660000000 1.0
C      1  0.5137830000000  0.4860920000000  0.4739440000000 1.0
C      1  0.4929380000000  0.5567310000000  0.4982090000000 1.0
C      1  0.4960530000000  0.4177920000000  0.5603920000000 1.0
C      1  0.5635700000000  0.4349930000000  0.4803470000000 1.0
C      1  0.5442790000000  0.5006450000000  0.4782860000000 1.0
C      1  0.5045920000000  0.5888030000000  0.4487750000000 1.0
C      1  0.4232230000000  0.4859240000000  0.5267380000000 1.0
C      1  0.4861680000000  0.5798820000000  0.5188670000000 1.0
C      1  0.5582980000000  0.4287830000000  0.5295720000000 1.0
C      1  0.5636580000000  0.4960350000000  0.5801000000000 1.0
C      1  0.5564050000000  0.5242950000000  0.5227080000000 1.0
C      1  0.4475940000000  0.4927630000000  0.5038010000000 1.0
C      1  0.5298000000000  0.4643240000000  0.5575380000000 1.0
C      1  0.4817770000000  0.4115610000000  0.4662780000000 1.0
C      1  0.5807730000000  0.4693830000000  0.5431430000000 1.0
C      1  0.5602040000000  0.4489090000000  0.5541710000000 1.0
C      1  0.4758210000000  0.4062250000000  0.5398670000000 1.0
C      1  0.4932650000000  0.5993640000000  0.4747840000000 1.0
C      1  0.5676390000000  0.5454400000000  0.5018840000000 1.0
C      1  0.4076270000000  0.4943890000000  0.4453540000000 1.0
C      1  0.4445440000000  0.4670820000000  0.4484500000000 1.0
C      1  0.5379170000000  0.5734850000000  0.5360430000000 1.0
C      1  0.5527500000000  0.4673530000000  0.5813430000000 1.0
C      1  0.4683120000000  0.5470420000000  0.5682820000000 1.0
C      1  0.4566870000000  0.5907530000000  0.5112300000000 1.0
C      1  0.5731550000000  0.4391060000000  0.5069370000000 1.0
C      1  0.5577740000000  0.5638330000000  0.4485370000000 1.0
C      1  0.4629210000000  0.4955050000000  0.5708760000000 1.0
C      1  0.4675420000000  0.5475940000000  0.4831590000000 1.0
C      1  0.5651970000000  0.5639540000000  0.5500020000000 1.0
C      1  0.4534370000000  0.5682920000000  0.5380080000000 1.0
C      1  0.4954650000000  0.4229190000000  0.4434010000000 1.0
C      1  0.5152620000000  0.5655530000000  0.5564140000000 1.0
C      1  0.3974760000000  0.4729460000000  0.4617670000000 1.0
C      1  0.4292990000000  0.4470460000000  0.4922370000000 1.0
C      1  0.4813370000000  0.5191100000000  0.5803050000000 1.0
C      1  0.4953780000000  0.5114440000000  0.4829170000000 1.0
C      1  0.4441640000000  0.4309300000000  0.5114880000000 1.0
C      1  0.5453760000000  0.4892140000000  0.4269880000000 1.0
C      1  0.5414570000000  0.5220220000000  0.5597220000000 1.0
C      1  0.4671920000000  0.5298350000000  0.5123080000000 1.0
C      1  0.5569250000000  0.4680870000000  0.4589130000000 1.0
C      1  0.4893840000000  0.4082030000000  0.4936080000000 1.0
C      1  0.5409270000000  0.4964490000000  0.5178460000000 1.0
C      1  0.4368460000000  0.5465210000000  0.4924840000000 1.0
C      1  0.4226520000000  0.5427230000000  0.4391920000000 1.0
C      1  0.4782650000000  0.5290450000000  0.5418170000000 1.0
C      1  0.5142580000000  0.5622990000000  0.4764670000000 1.0
C      1  0.5788120000000  0.4771590000000  0.4716220000000 1.0
C      1  0.5151190000000  0.4385080000000  0.5446620000000 1.0
C      1  0.5703120000000  0.5395730000000  0.4535130000000 1.0
C      1  0.5149780000000  0.4974270000000  0.4417940000000 1.0
C      1  0.4520000000000  0.4413630000000  0.4389230000000 1.0
C      1  0.5066980000000  0.5301290000000  0.5091660000000 1.0
C      1  0.5341260000000  0.5295770000000  0.4673190000000 1.0
C      1  0.3982270000000  0.5085060000000  0.5052440000000 1.0
C      1  0.4868950000000  0.4469150000000  0.5716490000000 1.0
C      1  0.4663820000000  0.5117120000000  0.4656590000000 1.0
C      1  0.4765420000000  0.4479780000000  0.5428990000000 1.0
C      1  0.5693080000000  0.4897100000000  0.4994590000000 1.0
C      1  0.5825430000000  0.5191070000000  0.4758240000000 1.0
C      1  0.5903810000000  0.5128860000000  0.5051460000000 1.0
C      1  0.5929080000000  0.5524800000000  0.5000930000000 1.0
C      1  0.5337450000000  0.5812710000000  0.5054530000000 1.0
C      1  0.4312910000000  0.4643050000000  0.5480450000000 1.0
C      1  0.3973800000000  0.4795880000000  0.5093460000000 1.0
C      1  0.5005840000000  0.4597890000000  0.5916190000000 1.0
C      1  0.4109950000000  0.5209380000000  0.4564330000000 1.0
C      1  0.5663900000000  0.5359650000000  0.5507200000000 1.0
C      1  0.4821160000000  0.4996880000000  0.4378960000000 1.0
C      1  0.4858940000000  0.5677100000000  0.5485570000000 1.0
C      1  0.5130600000000  0.5210960000000  0.5878160000000 1.0
C      1  0.4670600000000  0.4865460000000  0.5433140000000 1.0
C      1  0.4446360000000  0.5584450000000  0.5824610000000 1.0
C      1  0.5002680000000  0.5367500000000  0.4628410000000 1.0
C      1  0.4678030000000  0.4120380000000  0.5129620000000 1.0
C      1  0.4328390000000  0.5417590000000  0.5319930000000 1.0
C      1  0.4398060000000  0.5226840000000  0.4692050000000 1.0
C      1  0.5195850000000  0.4761250000000  0.6016690000000 1.0
C      1  0.5072360000000  0.3997070000000  0.5783530000000 1.0
C      1  0.4538250000000  0.5091430000000  0.4278950000000 1.0
C      1  0.5579420000000  0.4574510000000  0.4303510000000 1.0
C      1  0.4789060000000  0.4408630000000  0.4279130000000 1.0
C      1  0.4722770000000  0.4505200000000  0.4719480000000 1.0
C      1  0.4538570000000  0.4229860000000  0.4637700000000 1.0
C      1  0.5233950000000  0.5439140000000  0.5722310000000 1.0
C      1  0.4271480000000  0.5198000000000  0.5066310000000 1.0
C      1  0.5535030000000  0.4299230000000  0.4494570000000 1.0
C      1  0.5081870000000  0.5936390000000  0.5000500000000 1.0
C      1  0.5213920000000  0.4359150000000  0.4513960000000 1.0
C      1  0.5945180000000  0.5139220000000  0.5339330000000 1.0
C      1  0.5817740000000  0.4962470000000  0.5544870000000 1.0
C      1  0.4709040000000  0.5487490000000  0.4511550000000 1.0
C      1  0.5326000000000  0.5002190000000  0.5935530000000 1.0
C      1  0.5109040000000  0.5208910000000  0.4010510000000 1.0
C      1  0.4317460000000  0.5697050000000  0.5120300000000 1.0
C      1  0.4485200000000  0.4448760000000  0.5373540000000 1.0
C      1  0.5313380000000  0.5443940000000  0.5212300000000 1.0
C      1  0.5623150000000  0.5068200000000  0.4506760000000 1.0
C      1  0.4337290000000  0.4911830000000  0.5647150000000 1.0
C      1  0.5158400000000  0.4092030000000  0.5047280000000 1.0
C      1  0.5005810000000  0.4932850000000  0.4020910000000 1.0
C      1  0.4031070000000  0.4615870000000  0.4877460000000 1.0
C      1  0.4652510000000  0.6026320000000  0.4825340000000 1.0
C      1  0.5816050000000  0.4654560000000  0.5153240000000 1.0
C      1  0.5127470000000  0.4622120000000  0.4984800000000 1.0
C      1  0.4905020000000  0.4705000000000  0.4252740000000 1.0
C      1  0.5072980000000  0.5470870000000  0.4195130000000 1.0
C      1  0.4339290000000  0.4888740000000  0.4338000000000 1.0
C      1  0.5118470000000  0.4976560000000  0.5166670000000 1.0
C      1  0.4497700000000  0.5367150000000  0.4331690000000 1.0
C      1  0.4924430000000  0.5651290000000  0.4352770000000 1.0
C      1  0.5451740000000  0.5560780000000  0.4856720000000 1.0
C      1  0.4780010000000  0.4985330000000  0.5160800000000 1.0
C      1  0.5250520000000  0.4978710000000  0.5544170000000 1.0
C      1  0.5345950000000  0.4521360000000  0.4765370000000 1.0
C      1  0.5317020000000  0.4210960000000  0.5250280000000 1.0
C      1  0.4983690000000  0.4604580000000  0.4567960000000 1.0
END
