TITL C-2782227-3064-751 9.01928417984662e-08 125000 -77.9940735352541 0 0 16 (D4h) n - 1
REM
REM in /home/nfs/bkarasulu/CARBON/AIRSS/Generating-Clusters/REBO/Higher-Symm/SD-CG/HFTN-CG
REM
REM
REM
REM
REM
REM ./C.cell (12c818d87b63d06a65506943cc24bca4)
REM
REM compiler GCC version 9.2.1 20190827 (Red Hat 9.2.1-1)
REM options -cpp -mtune=generic -march=x86-64 -g -O0 -fpre-include=/usr/include/finclude/math-vector-fortran.h
REM seed -653791965 -489723692 -1529055031 1440681052 -1582572109 -791733041 1407546771 1527471071 -1134807812 -997800538 -982027913 1601306892 -588492865 -1051498017 842333582 1694341983 1788350650 136898580 1387154179 602117867 -71151220 -722721896 1390706682 1929745316 -1590173771 1218695734 2028694976 1111685952 -460444640 -10700184 858067965 -1483928915 -1239581627
REM
CELL 1.54180   50.00000   50.00000   50.00000   90.00000   90.00000   90.00000
LATT -1
SFAC C  
C      1  0.5540160000000  0.4809570000000  0.4996400000000 1.0
C      1  0.4446270000000  0.4853610000000  0.4998650000000 1.0
C      1  0.5553730000000  0.5146390000000  0.5001350000000 1.0
C      1  0.4459840000000  0.5190430000000  0.5003600000000 1.0
C      1  0.4994010000000  0.4823510000000  0.5544850000000 1.0
C      1  0.4992410000000  0.4839670000000  0.4450200000000 1.0
C      1  0.5007590000000  0.5160330000000  0.5549800000000 1.0
C      1  0.5005990000000  0.5176490000000  0.4455150000000 1.0
C      1  0.4726690000000  0.5017870000000  0.4533490000000 1.0
C      1  0.5273310000000  0.4982130000000  0.5466510000000 1.0
C      1  0.4728050000000  0.5004080000000  0.5467630000000 1.0
C      1  0.5271950000000  0.4995920000000  0.4532370000000 1.0
C      1  0.4532860000000  0.5022820000000  0.4728140000000 1.0
C      1  0.5467140000000  0.4977180000000  0.5271860000000 1.0
C      1  0.5466350000000  0.4985230000000  0.4726220000000 1.0
C      1  0.4533650000000  0.5014770000000  0.5273780000000 1.0
END
