TITL C-2782239-8622-479 0.00572772267820455 125000 -1128.7413346772 0 0 193 (C1) n - 1
REM
REM in /home/nfs/bkarasulu/CARBON/AIRSS/Generating-Clusters/REBO/Higher-Symm/SD-CG/HFTN-CG
REM
REM
REM
REM
REM
REM ./C.cell (12c818d87b63d06a65506943cc24bca4)
REM
REM compiler GCC version 9.2.1 20190827 (Red Hat 9.2.1-1)
REM options -cpp -mtune=generic -march=x86-64 -g -O0 -fpre-include=/usr/include/finclude/math-vector-fortran.h
REM seed -1051601251 781390771 1225947567 -265299267 -291284699 2032214641 1291545611 -1536587632 -334792949 491370277 -1021308956 -17082505 -837863428 368135190 1976177219 -250314116 1986933690 -406013541 732912538 -1899458543 -1428296732 1050326274 898625224 -520994191 1771022206 945077110 -1303636422 143750280 1511845660 -16066749 305912160 1993335156 137417284
REM
CELL 1.54180   50.00000   50.00000   50.00000   90.00000   90.00000   90.00000
LATT -1
SFAC C  
C      1  0.4890350000000  0.4520120000000  0.5844960000000 1.0
C      1  0.3955240000000  0.5399350000000  0.5620850000000 1.0
C      1  0.5819100000000  0.5323890000000  0.5738660000000 1.0
C      1  0.5115870000000  0.5254310000000  0.5663560000000 1.0
C      1  0.4426300000000  0.4860180000000  0.5889360000000 1.0
C      1  0.5306770000000  0.5112860000000  0.3979340000000 1.0
C      1  0.4466760000000  0.5361600000000  0.5114560000000 1.0
C      1  0.5098330000000  0.5925410000000  0.4483080000000 1.0
C      1  0.5129210000000  0.5192120000000  0.4682840000000 1.0
C      1  0.4223110000000  0.5303460000000  0.6024650000000 1.0
C      1  0.4864220000000  0.4519530000000  0.5173960000000 1.0
C      1  0.6083550000000  0.5200350000000  0.5337520000000 1.0
C      1  0.5262340000000  0.5026220000000  0.5116670000000 1.0
C      1  0.5123190000000  0.4871280000000  0.5777650000000 1.0
C      1  0.6118160000000  0.4352000000000  0.4994820000000 1.0
C      1  0.5614940000000  0.4110480000000  0.5319450000000 1.0
C      1  0.4356980000000  0.5379610000000  0.4380440000000 1.0
C      1  0.4935490000000  0.5321080000000  0.4435190000000 1.0
C      1  0.4769370000000  0.5486230000000  0.5771030000000 1.0
C      1  0.4942520000000  0.4093250000000  0.4285040000000 1.0
C      1  0.6139200000000  0.4042320000000  0.4901150000000 1.0
C      1  0.4603020000000  0.4903250000000  0.4411940000000 1.0
C      1  0.5967590000000  0.5324240000000  0.4871340000000 1.0
C      1  0.5500600000000  0.4219780000000  0.4453660000000 1.0
C      1  0.5213620000000  0.4513930000000  0.4989620000000 1.0
C      1  0.5314710000000  0.5672710000000  0.5170960000000 1.0
C      1  0.5102560000000  0.5852610000000  0.5367440000000 1.0
C      1  0.5094990000000  0.4391840000000  0.4693470000000 1.0
C      1  0.5403310000000  0.5819610000000  0.4900640000000 1.0
C      1  0.5439970000000  0.3912190000000  0.5198180000000 1.0
C      1  0.4951900000000  0.4709360000000  0.4403470000000 1.0
C      1  0.4557900000000  0.5998640000000  0.5474940000000 1.0
C      1  0.4205580000000  0.4581980000000  0.4227090000000 1.0
C      1  0.4825360000000  0.5930050000000  0.4921840000000 1.0
C      1  0.4515130000000  0.5041080000000  0.5083580000000 1.0
C      1  0.4809030000000  0.4470430000000  0.4551460000000 1.0
C      1  0.4846860000000  0.5537510000000  0.4026130000000 1.0
C      1  0.5040580000000  0.4899630000000  0.4671770000000 1.0
C      1  0.4314470000000  0.5600500000000  0.4921500000000 1.0
C      1  0.5244380000000  0.5684240000000  0.4674270000000 1.0
C      1  0.3752390000000  0.5001080000000  0.5475730000000 1.0
C      1  0.4873640000000  0.5013500000000  0.5615810000000 1.0
C      1  0.4852030000000  0.5632820000000  0.4989990000000 1.0
C      1  0.5967690000000  0.4577820000000  0.5156240000000 1.0
C      1  0.5470640000000  0.5851080000000  0.4367100000000 1.0
C      1  0.5412240000000  0.5526500000000  0.5522840000000 1.0
C      1  0.4429480000000  0.5879120000000  0.4928600000000 1.0
C      1  0.4003820000000  0.4849390000000  0.5486620000000 1.0
C      1  0.4211610000000  0.4240210000000  0.5257760000000 1.0
C      1  0.4870800000000  0.5382340000000  0.5463110000000 1.0
C      1  0.4649290000000  0.4412260000000  0.5387430000000 1.0
C      1  0.4739230000000  0.4946650000000  0.6122710000000 1.0
C      1  0.5102820000000  0.3901770000000  0.4483820000000 1.0
C      1  0.5896040000000  0.5573670000000  0.4463030000000 1.0
C      1  0.3864590000000  0.4499750000000  0.5012480000000 1.0
C      1  0.5781370000000  0.5678670000000  0.5055340000000 1.0
C      1  0.5129400000000  0.5628920000000  0.4022560000000 1.0
C      1  0.4494370000000  0.4702680000000  0.5297430000000 1.0
C      1  0.4991330000000  0.4147610000000  0.5746710000000 1.0
C      1  0.5600540000000  0.4473480000000  0.4807760000000 1.0
C      1  0.4674890000000  0.4742420000000  0.4685550000000 1.0
C      1  0.3951360000000  0.4322510000000  0.5201120000000 1.0
C      1  0.4658250000000  0.5222510000000  0.4351170000000 1.0
C      1  0.4499740000000  0.5738180000000  0.4481640000000 1.0
C      1  0.5175610000000  0.6184210000000  0.4638410000000 1.0
C      1  0.4366790000000  0.4156780000000  0.5513400000000 1.0
C      1  0.4345460000000  0.4538200000000  0.4621640000000 1.0
C      1  0.4274470000000  0.4812340000000  0.5060990000000 1.0
C      1  0.4509900000000  0.5962850000000  0.5185130000000 1.0
C      1  0.5402810000000  0.5181650000000  0.6056080000000 1.0
C      1  0.4046840000000  0.4655770000000  0.4858670000000 1.0
C      1  0.5296660000000  0.5367520000000  0.5152910000000 1.0
C      1  0.5809490000000  0.5142380000000  0.4220930000000 1.0
C      1  0.5703660000000  0.4466180000000  0.5567130000000 1.0
C      1  0.4320320000000  0.5147360000000  0.4731900000000 1.0
C      1  0.4495330000000  0.5426460000000  0.5875230000000 1.0
C      1  0.4267830000000  0.5527480000000  0.4620780000000 1.0
C      1  0.4974160000000  0.5716740000000  0.5654730000000 1.0
C      1  0.5611140000000  0.4952270000000  0.4181000000000 1.0
C      1  0.4207810000000  0.4970070000000  0.5667250000000 1.0
C      1  0.5227480000000  0.4956180000000  0.6017920000000 1.0
C      1  0.5186550000000  0.4365960000000  0.5785020000000 1.0
C      1  0.5156560000000  0.3833460000000  0.4753690000000 1.0
C      1  0.4681560000000  0.3976190000000  0.4883360000000 1.0
C      1  0.4348880000000  0.5868600000000  0.5616890000000 1.0
C      1  0.4073640000000  0.5204450000000  0.5807080000000 1.0
C      1  0.5241240000000  0.4547680000000  0.3919470000000 1.0
C      1  0.5258690000000  0.4725230000000  0.4471120000000 1.0
C      1  0.5445820000000  0.4818950000000  0.3937800000000 1.0
C      1  0.4759310000000  0.4897720000000  0.5239320000000 1.0
C      1  0.5584000000000  0.5879760000000  0.5250390000000 1.0
C      1  0.5041720000000  0.4789340000000  0.5082270000000 1.0
C      1  0.4012130000000  0.4933410000000  0.5179580000000 1.0
C      1  0.4926610000000  0.5374900000000  0.5994540000000 1.0
C      1  0.5287110000000  0.4648940000000  0.5656370000000 1.0
C      1  0.5955310000000  0.4842250000000  0.4951630000000 1.0
C      1  0.5732550000000  0.4936870000000  0.5763040000000 1.0
C      1  0.4569120000000  0.4948130000000  0.5604240000000 1.0
C      1  0.5393040000000  0.4985830000000  0.4372000000000 1.0
C      1  0.4880550000000  0.4769730000000  0.4127290000000 1.0
C      1  0.4733980000000  0.5518040000000  0.5241600000000 1.0
C      1  0.4853630000000  0.4746060000000  0.6043490000000 1.0
C      1  0.5384570000000  0.4007350000000  0.4901690000000 1.0
C      1  0.5587200000000  0.5887020000000  0.4621910000000 1.0
C      1  0.5256550000000  0.5651980000000  0.5757840000000 1.0
C      1  0.4282340000000  0.4875930000000  0.4645090000000 1.0
C      1  0.5409260000000  0.4609430000000  0.4207220000000 1.0
C      1  0.4751040000000  0.5234390000000  0.3960200000000 1.0
C      1  0.4565350000000  0.4468740000000  0.4864980000000 1.0
C      1  0.5240240000000  0.4163710000000  0.5435650000000 1.0
C      1  0.4424850000000  0.4638740000000  0.5626140000000 1.0
C      1  0.4831090000000  0.5978000000000  0.5530100000000 1.0
C      1  0.4443740000000  0.4252080000000  0.5052640000000 1.0
C      1  0.5357170000000  0.5215060000000  0.5452070000000 1.0
C      1  0.5640210000000  0.5329360000000  0.4637220000000 1.0
C      1  0.4762540000000  0.4986870000000  0.4850880000000 1.0
C      1  0.5049800000000  0.5485840000000  0.4780740000000 1.0
C      1  0.5738950000000  0.5634990000000  0.4759040000000 1.0
C      1  0.5202970000000  0.4213500000000  0.4461090000000 1.0
C      1  0.5304700000000  0.6068340000000  0.5196460000000 1.0
C      1  0.5387440000000  0.5415090000000  0.4093180000000 1.0
C      1  0.4100360000000  0.5546190000000  0.5137820000000 1.0
C      1  0.5205370000000  0.4219450000000  0.5107340000000 1.0
C      1  0.5800050000000  0.5565570000000  0.5592490000000 1.0
C      1  0.4599460000000  0.5926030000000  0.4689600000000 1.0
C      1  0.5305340000000  0.5564480000000  0.4372410000000 1.0
C      1  0.4835120000000  0.3926720000000  0.5333190000000 1.0
C      1  0.5853570000000  0.5093820000000  0.5505290000000 1.0
C      1  0.4207930000000  0.5133990000000  0.4199960000000 1.0
C      1  0.4530070000000  0.4056570000000  0.4705500000000 1.0
C      1  0.5670050000000  0.5295870000000  0.5034270000000 1.0
C      1  0.4864970000000  0.4329010000000  0.4925540000000 1.0
C      1  0.5129630000000  0.3887280000000  0.5315760000000 1.0
C      1  0.5149770000000  0.5161490000000  0.4284890000000 1.0
C      1  0.5603400000000  0.4154230000000  0.4736060000000 1.0
C      1  0.5667910000000  0.5832700000000  0.5548020000000 1.0
C      1  0.4997700000000  0.5108050000000  0.5314040000000 1.0
C      1  0.4549460000000  0.4030160000000  0.5256240000000 1.0
C      1  0.5234310000000  0.5402710000000  0.5944420000000 1.0
C      1  0.5733980000000  0.5021890000000  0.4753510000000 1.0
C      1  0.4465410000000  0.5315650000000  0.4075600000000 1.0
C      1  0.4989050000000  0.4013580000000  0.4960570000000 1.0
C      1  0.4707120000000  0.4233850000000  0.4245730000000 1.0
C      1  0.5529430000000  0.4441330000000  0.5281640000000 1.0
C      1  0.5666610000000  0.5164820000000  0.5957900000000 1.0
C      1  0.5977580000000  0.4533770000000  0.5438020000000 1.0
C      1  0.5390530000000  0.5278880000000  0.4838550000000 1.0
C      1  0.4652250000000  0.4312810000000  0.5881000000000 1.0
C      1  0.5329460000000  0.6142480000000  0.4867310000000 1.0
C      1  0.6035840000000  0.5328530000000  0.4585130000000 1.0
C      1  0.4720950000000  0.5472740000000  0.4736640000000 1.0
C      1  0.4585670000000  0.5233090000000  0.4743530000000 1.0
C      1  0.5650020000000  0.4607530000000  0.5053770000000 1.0
C      1  0.3794030000000  0.5138840000000  0.4785570000000 1.0
C      1  0.4987070000000  0.5046070000000  0.4026730000000 1.0
C      1  0.3966610000000  0.5267530000000  0.5122010000000 1.0
C      1  0.5472400000000  0.5882530000000  0.5736200000000 1.0
C      1  0.5910330000000  0.4228650000000  0.4757480000000 1.0
C      1  0.4434350000000  0.4348520000000  0.5715710000000 1.0
C      1  0.4792970000000  0.4149430000000  0.5544180000000 1.0
C      1  0.4154990000000  0.5673740000000  0.5417590000000 1.0
C      1  0.5586620000000  0.4701510000000  0.5714150000000 1.0
C      1  0.4970900000000  0.5627590000000  0.4392220000000 1.0
C      1  0.5924400000000  0.4815590000000  0.4558640000000 1.0
C      1  0.4957660000000  0.4536310000000  0.3939800000000 1.0
C      1  0.5613440000000  0.5096690000000  0.5305130000000 1.0
C      1  0.4989450000000  0.6090040000000  0.5067130000000 1.0
C      1  0.4604460000000  0.4943150000000  0.4070300000000 1.0
C      1  0.5991480000000  0.4561160000000  0.4758880000000 1.0
C      1  0.5569510000000  0.4909140000000  0.5029590000000 1.0
C      1  0.4281840000000  0.4870500000000  0.4324830000000 1.0
C      1  0.4540180000000  0.4291600000000  0.4508590000000 1.0
C      1  0.3773030000000  0.4957010000000  0.4961750000000 1.0
C      1  0.4678200000000  0.5664330000000  0.4273350000000 1.0
C      1  0.5231070000000  0.4547320000000  0.5334920000000 1.0
C      1  0.5620120000000  0.4431610000000  0.4312050000000 1.0
C      1  0.5658900000000  0.5400820000000  0.4299610000000 1.0
C      1  0.4450000000000  0.5658180000000  0.5292200000000 1.0
C      1  0.6086440000000  0.5094900000000  0.5055890000000 1.0
C      1  0.4940510000000  0.4519050000000  0.5510690000000 1.0
C      1  0.4060310000000  0.5320440000000  0.4796680000000 1.0
C      1  0.5493660000000  0.4212580000000  0.5605120000000 1.0
C      1  0.5654340000000  0.5493330000000  0.5305130000000 1.0
C      1  0.4476570000000  0.4627900000000  0.4074110000000 1.0
C      1  0.5848300000000  0.4557090000000  0.4385650000000 1.0
C      1  0.3816760000000  0.5273530000000  0.5407310000000 1.0
C      1  0.6026010000000  0.5470590000000  0.5172020000000 1.0
C      1  0.5992870000000  0.5091550000000  0.4431250000000 1.0
C      1  0.4499060000000  0.5137610000000  0.6060080000000 1.0
C      1  0.5201570000000  0.5883700000000  0.4161210000000 1.0
C      1  0.4234610000000  0.5567620000000  0.5726970000000 1.0
C      1  0.4686910000000  0.4430730000000  0.4043310000000 1.0
C      1  0.4041780000000  0.4589700000000  0.4525180000000 1.0
END
