TITL C-2782231-7322-1041 -0.00240360011886249 125000 -808.078695868726 0 0 141 (C1) n - 1
REM
REM in /home/nfs/bkarasulu/CARBON/AIRSS/Generating-Clusters/REBO/Higher-Symm/SD-CG/HFTN-CG
REM
REM
REM
REM
REM
REM ./C.cell (12c818d87b63d06a65506943cc24bca4)
REM
REM compiler GCC version 9.2.1 20190827 (Red Hat 9.2.1-1)
REM options -cpp -mtune=generic -march=x86-64 -g -O0 -fpre-include=/usr/include/finclude/math-vector-fortran.h
REM seed -277020213 1568350996 295853224 1069035088 -1916771247 -799024146 1093625524 1231137207 -342979299 -1390339064 14372735 229896185 -327679204 1831427676 -1260310047 1445386192 452441483 -154525835 793086360 1803065709 1575122014 97054456 -942198874 488646783 -1629519320 2115831507 -373994080 -1485806988 -1186706504 -1647027827 -24397483 -840529364 -230691643
REM
CELL 1.54180   50.00000   50.00000   50.00000   90.00000   90.00000   90.00000
LATT -1
SFAC C  
C      1  0.4929640000000  0.5120830000000  0.4466690000000 1.0
C      1  0.4127280000000  0.4639070000000  0.4620330000000 1.0
C      1  0.5413870000000  0.5115640000000  0.5113850000000 1.0
C      1  0.4691040000000  0.4974440000000  0.4267490000000 1.0
C      1  0.5342950000000  0.5365250000000  0.4918360000000 1.0
C      1  0.4145980000000  0.4543430000000  0.5171810000000 1.0
C      1  0.4996470000000  0.5581100000000  0.5384680000000 1.0
C      1  0.5170820000000  0.5233220000000  0.5475570000000 1.0
C      1  0.5709700000000  0.5728640000000  0.4789830000000 1.0
C      1  0.5552490000000  0.5499630000000  0.4139180000000 1.0
C      1  0.5976800000000  0.4907000000000  0.4848880000000 1.0
C      1  0.5758630000000  0.5476780000000  0.5245190000000 1.0
C      1  0.5060170000000  0.4645890000000  0.5559020000000 1.0
C      1  0.5164230000000  0.4756570000000  0.4385910000000 1.0
C      1  0.4353410000000  0.4343920000000  0.5045000000000 1.0
C      1  0.5042170000000  0.5309580000000  0.5195880000000 1.0
C      1  0.5211450000000  0.5090740000000  0.4079470000000 1.0
C      1  0.4739820000000  0.5842960000000  0.5225000000000 1.0
C      1  0.4854310000000  0.5369710000000  0.4247510000000 1.0
C      1  0.4030050000000  0.5637230000000  0.4976070000000 1.0
C      1  0.4790520000000  0.5760880000000  0.4492570000000 1.0
C      1  0.4624770000000  0.5386280000000  0.4833420000000 1.0
C      1  0.5490690000000  0.4825740000000  0.4392850000000 1.0
C      1  0.4785170000000  0.4901610000000  0.4648690000000 1.0
C      1  0.4569150000000  0.4311720000000  0.5306790000000 1.0
C      1  0.4639080000000  0.4624120000000  0.4564750000000 1.0
C      1  0.4423010000000  0.4018210000000  0.4979540000000 1.0
C      1  0.5530050000000  0.5016580000000  0.4124550000000 1.0
C      1  0.3960540000000  0.4785090000000  0.5108210000000 1.0
C      1  0.3761820000000  0.5462630000000  0.5094100000000 1.0
C      1  0.5475280000000  0.4777590000000  0.5875080000000 1.0
C      1  0.5036320000000  0.4195230000000  0.4357070000000 1.0
C      1  0.4024430000000  0.5305070000000  0.5194180000000 1.0
C      1  0.5745450000000  0.4894390000000  0.5744330000000 1.0
C      1  0.5561830000000  0.4313290000000  0.4951080000000 1.0
C      1  0.5857300000000  0.5423510000000  0.4741250000000 1.0
C      1  0.4326420000000  0.5304540000000  0.4688770000000 1.0
C      1  0.5137460000000  0.4446110000000  0.5825150000000 1.0
C      1  0.4702090000000  0.4149040000000  0.5047340000000 1.0
C      1  0.4348060000000  0.4559860000000  0.4401010000000 1.0
C      1  0.4083490000000  0.5032480000000  0.5307690000000 1.0
C      1  0.4610320000000  0.5068200000000  0.4836890000000 1.0
C      1  0.5799130000000  0.4478730000000  0.4568480000000 1.0
C      1  0.5454760000000  0.4621030000000  0.5597320000000 1.0
C      1  0.5218660000000  0.4669800000000  0.5259490000000 1.0
C      1  0.5818630000000  0.4742100000000  0.4420580000000 1.0
C      1  0.5018320000000  0.5413840000000  0.4896300000000 1.0
C      1  0.4339900000000  0.4822200000000  0.5223540000000 1.0
C      1  0.4908450000000  0.4656070000000  0.4845720000000 1.0
C      1  0.4830830000000  0.5628250000000  0.4763660000000 1.0
C      1  0.5515230000000  0.5130110000000  0.4539450000000 1.0
C      1  0.4691600000000  0.5630450000000  0.5469730000000 1.0
C      1  0.4909980000000  0.5238410000000  0.5927790000000 1.0
C      1  0.5625120000000  0.5473600000000  0.4975790000000 1.0
C      1  0.4352970000000  0.4848040000000  0.4875590000000 1.0
C      1  0.4520470000000  0.4675750000000  0.5459240000000 1.0
C      1  0.4264800000000  0.5433570000000  0.5577640000000 1.0
C      1  0.5353800000000  0.4266250000000  0.4748740000000 1.0
C      1  0.5227050000000  0.4062170000000  0.4522980000000 1.0
C      1  0.5669680000000  0.4428090000000  0.5417320000000 1.0
C      1  0.4794800000000  0.4847890000000  0.5564670000000 1.0
C      1  0.4575230000000  0.4374270000000  0.4267010000000 1.0
C      1  0.5019400000000  0.5034040000000  0.5676940000000 1.0
C      1  0.4249310000000  0.5386290000000  0.4967040000000 1.0
C      1  0.5086030000000  0.5841670000000  0.5240630000000 1.0
C      1  0.5609020000000  0.5131300000000  0.5370150000000 1.0
C      1  0.4808010000000  0.4334410000000  0.4782100000000 1.0
C      1  0.5160660000000  0.4509390000000  0.4716740000000 1.0
C      1  0.5949080000000  0.4947640000000  0.4565850000000 1.0
C      1  0.4821450000000  0.4484930000000  0.5835940000000 1.0
C      1  0.4543660000000  0.5445250000000  0.4220540000000 1.0
C      1  0.4429900000000  0.5148010000000  0.4339110000000 1.0
C      1  0.5117490000000  0.5488370000000  0.4407300000000 1.0
C      1  0.4511910000000  0.5469910000000  0.5121900000000 1.0
C      1  0.5925680000000  0.5195930000000  0.5306620000000 1.0
C      1  0.5299350000000  0.5568240000000  0.4010970000000 1.0
C      1  0.5057800000000  0.4157620000000  0.4870440000000 1.0
C      1  0.5214770000000  0.5154710000000  0.6003540000000 1.0
C      1  0.5305330000000  0.4717490000000  0.4931720000000 1.0
C      1  0.5181910000000  0.5702860000000  0.4550620000000 1.0
C      1  0.4267760000000  0.5012700000000  0.4607510000000 1.0
C      1  0.5212150000000  0.5840260000000  0.4790690000000 1.0
C      1  0.5150810000000  0.5204750000000  0.4685850000000 1.0
C      1  0.5927330000000  0.4669520000000  0.5000130000000 1.0
C      1  0.4536310000000  0.5363670000000  0.5401800000000 1.0
C      1  0.4176140000000  0.5599940000000  0.5293770000000 1.0
C      1  0.4946890000000  0.4507450000000  0.4449340000000 1.0
C      1  0.4598540000000  0.5063990000000  0.5421680000000 1.0
C      1  0.4914160000000  0.4084420000000  0.4135130000000 1.0
C      1  0.4529890000000  0.5554620000000  0.5750970000000 1.0
C      1  0.5832000000000  0.5233780000000  0.4497520000000 1.0
C      1  0.4637140000000  0.4412560000000  0.5627540000000 1.0
C      1  0.4722530000000  0.4976190000000  0.5935950000000 1.0
C      1  0.3955070000000  0.4839130000000  0.4837880000000 1.0
C      1  0.3956170000000  0.4915740000000  0.4520850000000 1.0
C      1  0.5214390000000  0.4902210000000  0.4671110000000 1.0
C      1  0.5403220000000  0.5850080000000  0.5249450000000 1.0
C      1  0.5623680000000  0.5094510000000  0.4850240000000 1.0
C      1  0.5305200000000  0.3871610000000  0.4747860000000 1.0
C      1  0.4486820000000  0.4984490000000  0.5797900000000 1.0
C      1  0.4289480000000  0.5463600000000  0.4425690000000 1.0
C      1  0.5867070000000  0.4677330000000  0.5295750000000 1.0
C      1  0.4815480000000  0.5515540000000  0.5856510000000 1.0
C      1  0.5027430000000  0.4335430000000  0.5366220000000 1.0
C      1  0.4637300000000  0.4970090000000  0.5126390000000 1.0
C      1  0.5326550000000  0.5286420000000  0.4336010000000 1.0
C      1  0.5455800000000  0.5843760000000  0.4937980000000 1.0
C      1  0.5428950000000  0.5304090000000  0.5878480000000 1.0
C      1  0.4924080000000  0.4758500000000  0.5950690000000 1.0
C      1  0.4791700000000  0.4554410000000  0.5289980000000 1.0
C      1  0.5622980000000  0.5354230000000  0.5599650000000 1.0
C      1  0.5415810000000  0.4456720000000  0.5213030000000 1.0
C      1  0.5918740000000  0.4929050000000  0.5518820000000 1.0
C      1  0.5921590000000  0.5191160000000  0.4983900000000 1.0
C      1  0.5005150000000  0.4098020000000  0.5185220000000 1.0
C      1  0.4939490000000  0.5858450000000  0.4955010000000 1.0
C      1  0.5528290000000  0.4649870000000  0.4683200000000 1.0
C      1  0.4286410000000  0.5094680000000  0.5555190000000 1.0
C      1  0.4331600000000  0.5865560000000  0.4848120000000 1.0
C      1  0.4421430000000  0.5779570000000  0.5136520000000 1.0
C      1  0.4869110000000  0.4782050000000  0.5111660000000 1.0
C      1  0.4679750000000  0.5727850000000  0.4273010000000 1.0
C      1  0.5818350000000  0.4445440000000  0.4863880000000 1.0
C      1  0.4665610000000  0.4230260000000  0.4502060000000 1.0
C      1  0.5302070000000  0.5762880000000  0.5565690000000 1.0
C      1  0.5551560000000  0.4151570000000  0.5247690000000 1.0
C      1  0.5007110000000  0.5668970000000  0.5709250000000 1.0
C      1  0.4757360000000  0.4649770000000  0.4184090000000 1.0
C      1  0.5313140000000  0.4932360000000  0.5544960000000 1.0
C      1  0.5307700000000  0.4002900000000  0.5061990000000 1.0
C      1  0.5574690000000  0.4812410000000  0.5360950000000 1.0
C      1  0.5607600000000  0.5661960000000  0.5447810000000 1.0
C      1  0.5317070000000  0.5446790000000  0.5612480000000 1.0
C      1  0.5698120000000  0.5249370000000  0.4198290000000 1.0
C      1  0.5096540000000  0.5383080000000  0.4023680000000 1.0
C      1  0.5001220000000  0.4886530000000  0.4152030000000 1.0
C      1  0.5127280000000  0.4978870000000  0.5173250000000 1.0
C      1  0.4402340000000  0.4535730000000  0.4793430000000 1.0
C      1  0.5217110000000  0.4281810000000  0.5598840000000 1.0
C      1  0.4181340000000  0.5674810000000  0.4670110000000 1.0
C      1  0.5218770000000  0.4863980000000  0.5979050000000 1.0
END
