TITL C-2782238-9940-125 0.00656826744875054 125000 -868.50601855934 0 0 152 (C1) n - 1
REM
REM in /home/nfs/bkarasulu/CARBON/AIRSS/Generating-Clusters/REBO/Higher-Symm/SD-CG/HFTN-CG
REM
REM
REM
REM
REM
REM ./C.cell (12c818d87b63d06a65506943cc24bca4)
REM
REM compiler GCC version 9.2.1 20190827 (Red Hat 9.2.1-1)
REM options -cpp -mtune=generic -march=x86-64 -g -O0 -fpre-include=/usr/include/finclude/math-vector-fortran.h
REM seed 1390661206 1300733856 1829003938 338273585 721355995 8599232 -1702520176 -1514461244 -1012607686 34472036 -1827519963 -697523856 2141726884 -1928266312 -1159863811 859987119 1661131469 2051217855 -613532688 -970155200 -1653998800 -1029406262 362744299 -205314012 2116340594 1215503925 -667186814 -120367843 1093044308 -1741371972 1831223032 -1587107166 341788323
REM
CELL 1.54180   50.00000   50.00000   50.00000   90.00000   90.00000   90.00000
LATT -1
SFAC C  
C      1  0.4843960000000  0.5031350000000  0.4443920000000 1.0
C      1  0.5523720000000  0.4980350000000  0.5114810000000 1.0
C      1  0.4762590000000  0.5077170000000  0.5494450000000 1.0
C      1  0.4832350000000  0.6296340000000  0.5787190000000 1.0
C      1  0.4325410000000  0.6246550000000  0.4380810000000 1.0
C      1  0.5913890000000  0.5783960000000  0.4583540000000 1.0
C      1  0.4944100000000  0.4915850000000  0.4666260000000 1.0
C      1  0.5420940000000  0.4688060000000  0.5152060000000 1.0
C      1  0.4747170000000  0.4754250000000  0.5436770000000 1.0
C      1  0.5735410000000  0.4392870000000  0.4757640000000 1.0
C      1  0.4864310000000  0.4374260000000  0.5783030000000 1.0
C      1  0.4411050000000  0.4380230000000  0.4465830000000 1.0
C      1  0.4287820000000  0.5747750000000  0.4640780000000 1.0
C      1  0.5476330000000  0.5487730000000  0.4800030000000 1.0
C      1  0.4839120000000  0.5555040000000  0.5777610000000 1.0
C      1  0.5495950000000  0.5816300000000  0.5505160000000 1.0
C      1  0.4310550000000  0.5737930000000  0.4961000000000 1.0
C      1  0.5200810000000  0.5706800000000  0.4279840000000 1.0
C      1  0.5128210000000  0.5367720000000  0.4953440000000 1.0
C      1  0.4968720000000  0.5589480000000  0.5495220000000 1.0
C      1  0.4734880000000  0.5356840000000  0.4892060000000 1.0
C      1  0.5746070000000  0.4785010000000  0.4384130000000 1.0
C      1  0.5169150000000  0.4648740000000  0.6025010000000 1.0
C      1  0.4125020000000  0.4789430000000  0.4630730000000 1.0
C      1  0.4832290000000  0.6110530000000  0.4972250000000 1.0
C      1  0.5082100000000  0.6096490000000  0.4766720000000 1.0
C      1  0.5136330000000  0.6119750000000  0.5081480000000 1.0
C      1  0.4645300000000  0.5363300000000  0.4162720000000 1.0
C      1  0.5892940000000  0.5304010000000  0.5057010000000 1.0
C      1  0.4383560000000  0.5298760000000  0.5732180000000 1.0
C      1  0.4570640000000  0.4384410000000  0.4714310000000 1.0
C      1  0.5448010000000  0.4367210000000  0.4719520000000 1.0
C      1  0.4987270000000  0.4398280000000  0.5501450000000 1.0
C      1  0.4684920000000  0.4807820000000  0.5892620000000 1.0
C      1  0.4365390000000  0.5097140000000  0.4122060000000 1.0
C      1  0.6022340000000  0.5017230000000  0.4927750000000 1.0
C      1  0.4388450000000  0.4442390000000  0.4150820000000 1.0
C      1  0.6008130000000  0.4460200000000  0.4903340000000 1.0
C      1  0.4629800000000  0.4528510000000  0.5837120000000 1.0
C      1  0.5840130000000  0.5308110000000  0.4571580000000 1.0
C      1  0.4914290000000  0.5353140000000  0.6018610000000 1.0
C      1  0.4236780000000  0.5553130000000  0.4417780000000 1.0
C      1  0.5282520000000  0.5934890000000  0.5302260000000 1.0
C      1  0.4557010000000  0.5941540000000  0.5043410000000 1.0
C      1  0.5152620000000  0.5864560000000  0.4546970000000 1.0
C      1  0.4339210000000  0.5406500000000  0.4203550000000 1.0
C      1  0.5980280000000  0.5392820000000  0.4763400000000 1.0
C      1  0.4586390000000  0.5426140000000  0.5961550000000 1.0
C      1  0.5782660000000  0.5361710000000  0.5498600000000 1.0
C      1  0.4204150000000  0.5328280000000  0.5453000000000 1.0
C      1  0.4994280000000  0.5309510000000  0.3981270000000 1.0
C      1  0.6028940000000  0.5070720000000  0.5265780000000 1.0
C      1  0.4484850000000  0.4974870000000  0.5758180000000 1.0
C      1  0.4659160000000  0.5095650000000  0.3947220000000 1.0
C      1  0.5331160000000  0.5196730000000  0.5692330000000 1.0
C      1  0.4264430000000  0.5162100000000  0.4990060000000 1.0
C      1  0.5332520000000  0.5134770000000  0.4470440000000 1.0
C      1  0.4278070000000  0.4937030000000  0.4358150000000 1.0
C      1  0.5901240000000  0.4923580000000  0.4661610000000 1.0
C      1  0.4963870000000  0.4851260000000  0.6013860000000 1.0
C      1  0.4178360000000  0.5507980000000  0.5166130000000 1.0
C      1  0.5201440000000  0.5473340000000  0.4119900000000 1.0
C      1  0.5520680000000  0.5535130000000  0.5597530000000 1.0
C      1  0.3984600000000  0.5228050000000  0.5134770000000 1.0
C      1  0.5324500000000  0.5198380000000  0.4172000000000 1.0
C      1  0.5630650000000  0.5262070000000  0.5781230000000 1.0
C      1  0.5585670000000  0.5308470000000  0.5042500000000 1.0
C      1  0.4665030000000  0.5347160000000  0.5579640000000 1.0
C      1  0.4782170000000  0.5317690000000  0.4404280000000 1.0
C      1  0.4177030000000  0.4687180000000  0.5272480000000 1.0
C      1  0.5089780000000  0.4680080000000  0.4161480000000 1.0
C      1  0.5703390000000  0.4740070000000  0.5562030000000 1.0
C      1  0.4688160000000  0.5505230000000  0.5306630000000 1.0
C      1  0.4906310000000  0.5452860000000  0.4632520000000 1.0
C      1  0.5336670000000  0.5448530000000  0.5172600000000 1.0
C      1  0.4905700000000  0.6117380000000  0.5620710000000 1.0
C      1  0.4383820000000  0.6043770000000  0.4527630000000 1.0
C      1  0.5684190000000  0.5721060000000  0.4677360000000 1.0
C      1  0.4518230000000  0.4187400000000  0.5343770000000 1.0
C      1  0.4926080000000  0.4136200000000  0.4303490000000 1.0
C      1  0.5534930000000  0.4494680000000  0.5297020000000 1.0
C      1  0.5658560000000  0.4414810000000  0.5589500000000 1.0
C      1  0.4263830000000  0.4357270000000  0.5272620000000 1.0
C      1  0.5070690000000  0.4351550000000  0.4145720000000 1.0
C      1  0.5114960000000  0.5057470000000  0.4873370000000 1.0
C      1  0.5134840000000  0.5078580000000  0.5357040000000 1.0
C      1  0.4615560000000  0.5035550000000  0.5193080000000 1.0
C      1  0.4364310000000  0.4477660000000  0.5761840000000 1.0
C      1  0.4590070000000  0.4490960000000  0.3970090000000 1.0
C      1  0.6037180000000  0.4490890000000  0.5174890000000 1.0
C      1  0.4204900000000  0.4519210000000  0.5553580000000 1.0
C      1  0.4850730000000  0.4536510000000  0.3983610000000 1.0
C      1  0.5916710000000  0.4537790000000  0.5403860000000 1.0
C      1  0.3937090000000  0.4888300000000  0.5133330000000 1.0
C      1  0.5263870000000  0.4926850000000  0.4018180000000 1.0
C      1  0.5711850000000  0.4935450000000  0.5830960000000 1.0
C      1  0.4326700000000  0.5052620000000  0.4674220000000 1.0
C      1  0.5616890000000  0.5074880000000  0.4596730000000 1.0
C      1  0.5084870000000  0.5129640000000  0.5917830000000 1.0
C      1  0.5377600000000  0.5809790000000  0.4765610000000 1.0
C      1  0.4992280000000  0.5906120000000  0.5424190000000 1.0
C      1  0.4605640000000  0.5899900000000  0.4719610000000 1.0
C      1  0.5245320000000  0.4172940000000  0.5702470000000 1.0
C      1  0.3947880000000  0.4167830000000  0.4910570000000 1.0
C      1  0.5485450000000  0.4189440000000  0.4365720000000 1.0
C      1  0.4036140000000  0.4665410000000  0.4901230000000 1.0
C      1  0.5485140000000  0.4714580000000  0.4181330000000 1.0
C      1  0.5460910000000  0.4702500000000  0.5876060000000 1.0
C      1  0.4856800000000  0.4434600000000  0.4863270000000 1.0
C      1  0.5159400000000  0.4287320000000  0.4881510000000 1.0
C      1  0.4991980000000  0.4355460000000  0.5164010000000 1.0
C      1  0.5256670000000  0.5740570000000  0.5047090000000 1.0
C      1  0.4778820000000  0.5797810000000  0.5214480000000 1.0
C      1  0.4872280000000  0.5769250000000  0.4679040000000 1.0
C      1  0.4041870000000  0.5036840000000  0.5410140000000 1.0
C      1  0.4977260000000  0.4999950000000  0.3838020000000 1.0
C      1  0.5924850000000  0.5066130000000  0.5594940000000 1.0
C      1  0.4614580000000  0.5041220000000  0.4852660000000 1.0
C      1  0.5404110000000  0.4953100000000  0.4819490000000 1.0
C      1  0.5013540000000  0.4968720000000  0.5639340000000 1.0
C      1  0.4375230000000  0.5029160000000  0.5438260000000 1.0
C      1  0.4903870000000  0.5028780000000  0.4158030000000 1.0
C      1  0.5703400000000  0.5070220000000  0.5338010000000 1.0
C      1  0.4067460000000  0.4379600000000  0.5012800000000 1.0
C      1  0.5381920000000  0.4397030000000  0.4207330000000 1.0
C      1  0.5425670000000  0.4372260000000  0.5786180000000 1.0
C      1  0.5060820000000  0.4072630000000  0.5433260000000 1.0
C      1  0.4712470000000  0.4081830000000  0.4750300000000 1.0
C      1  0.5391460000000  0.4048680000000  0.4660130000000 1.0
C      1  0.4869920000000  0.4745660000000  0.4919270000000 1.0
C      1  0.5239460000000  0.4602820000000  0.4961450000000 1.0
C      1  0.4939840000000  0.4671120000000  0.5215530000000 1.0
C      1  0.5397950000000  0.4880590000000  0.5592640000000 1.0
C      1  0.4310960000000  0.4833540000000  0.5006400000000 1.0
C      1  0.5263190000000  0.4828150000000  0.4405420000000 1.0
C      1  0.5063180000000  0.4388020000000  0.5986340000000 1.0
C      1  0.4206620000000  0.4616220000000  0.4364300000000 1.0
C      1  0.5927900000000  0.4606590000000  0.4607140000000 1.0
C      1  0.5128890000000  0.3870620000000  0.4636810000000 1.0
C      1  0.5243460000000  0.3968020000000  0.5194720000000 1.0
C      1  0.4762450000000  0.3989210000000  0.5012230000000 1.0
C      1  0.5139510000000  0.4702220000000  0.5486410000000 1.0
C      1  0.4556740000000  0.4697190000000  0.4851800000000 1.0
C      1  0.5315590000000  0.4673270000000  0.4659470000000 1.0
C      1  0.4753290000000  0.4061380000000  0.5286710000000 1.0
C      1  0.4893490000000  0.4002050000000  0.4547590000000 1.0
C      1  0.5339230000000  0.3941940000000  0.4970030000000 1.0
C      1  0.5226480000000  0.5358270000000  0.4636560000000 1.0
C      1  0.5235830000000  0.5429440000000  0.5467830000000 1.0
C      1  0.4486280000000  0.5396060000000  0.5088000000000 1.0
C      1  0.4934210000000  0.5635120000000  0.4985940000000 1.0
C      1  0.4954010000000  0.5064210000000  0.5144140000000 1.0
END
