TITL C-2782230-7391-1153 0.000111376786888361 125000 -345.01158567782 0 0 61 (C1) n - 1
REM
REM in /home/nfs/bkarasulu/CARBON/AIRSS/Generating-Clusters/REBO/Higher-Symm/SD-CG/HFTN-CG
REM
REM
REM
REM
REM
REM ./C.cell (12c818d87b63d06a65506943cc24bca4)
REM
REM compiler GCC version 9.2.1 20190827 (Red Hat 9.2.1-1)
REM options -cpp -mtune=generic -march=x86-64 -g -O0 -fpre-include=/usr/include/finclude/math-vector-fortran.h
REM seed 525618988 -56347823 -1290220433 -1981322473 931712706 1021797831 75544003 18824718 -1914249624 -2080401445 802419580 -1290775786 -538090771 1715634480 866755804 2144632237 1550326366 -159288583 2055656327 -1068036493 -575539791 -291657791 -241830516 -702807119 -1027584983 784797945 1518224139 -989729994 1335387140 498010143 1580671323 798885913 -511768286
REM
CELL 1.54180   50.00000   50.00000   50.00000   90.00000   90.00000   90.00000
LATT -1
SFAC C  
C      1  0.4883040000000  0.4326980000000  0.4602910000000 1.0
C      1  0.5402030000000  0.4373000000000  0.5121830000000 1.0
C      1  0.4699860000000  0.4316570000000  0.5332770000000 1.0
C      1  0.5370890000000  0.5180630000000  0.4570980000000 1.0
C      1  0.5208990000000  0.5195760000000  0.5558620000000 1.0
C      1  0.4461050000000  0.5177140000000  0.4926300000000 1.0
C      1  0.5158450000000  0.4276900000000  0.5232500000000 1.0
C      1  0.4682190000000  0.4170360000000  0.5063740000000 1.0
C      1  0.5124700000000  0.4182510000000  0.4731540000000 1.0
C      1  0.4280580000000  0.5041970000000  0.5161780000000 1.0
C      1  0.5253240000000  0.5050350000000  0.4294890000000 1.0
C      1  0.5496590000000  0.5043240000000  0.5584240000000 1.0
C      1  0.5210860000000  0.4890570000000  0.5681040000000 1.0
C      1  0.4365220000000  0.4864960000000  0.4898610000000 1.0
C      1  0.5435490000000  0.4867710000000  0.4496800000000 1.0
C      1  0.5083810000000  0.5070520000000  0.4022410000000 1.0
C      1  0.5817840000000  0.5037410000000  0.5583510000000 1.0
C      1  0.4131650000000  0.5046830000000  0.5446580000000 1.0
C      1  0.4631130000000  0.4365740000000  0.4789230000000 1.0
C      1  0.5390300000000  0.4382350000000  0.4804670000000 1.0
C      1  0.4970260000000  0.4361910000000  0.5437200000000 1.0
C      1  0.5580480000000  0.5403270000000  0.4531850000000 1.0
C      1  0.5124630000000  0.5421360000000  0.5748840000000 1.0
C      1  0.4322740000000  0.5396520000000  0.4760090000000 1.0
C      1  0.4738790000000  0.5138220000000  0.5413540000000 1.0
C      1  0.4808890000000  0.5142730000000  0.4568570000000 1.0
C      1  0.5517250000000  0.5153740000000  0.5052190000000 1.0
C      1  0.4924930000000  0.5020340000000  0.4297310000000 1.0
C      1  0.5664490000000  0.5015220000000  0.5302050000000 1.0
C      1  0.4450180000000  0.5003600000000  0.5441370000000 1.0
C      1  0.4485190000000  0.5528350000000  0.4581790000000 1.0
C      1  0.5651800000000  0.5540000000000  0.4759520000000 1.0
C      1  0.4884090000000  0.5539420000000  0.5686800000000 1.0
C      1  0.4491010000000  0.4587880000000  0.5007550000000 1.0
C      1  0.5272880000000  0.4596170000000  0.4566360000000 1.0
C      1  0.5328970000000  0.4685820000000  0.5455060000000 1.0
C      1  0.5529920000000  0.4692920000000  0.4770490000000 1.0
C      1  0.4997120000000  0.4668720000000  0.5536610000000 1.0
C      1  0.4565130000000  0.4686710000000  0.4689240000000 1.0
C      1  0.4762370000000  0.5460330000000  0.4585910000000 1.0
C      1  0.5515100000000  0.5471060000000  0.5000640000000 1.0
C      1  0.4764420000000  0.5461240000000  0.5439190000000 1.0
C      1  0.5010140000000  0.5886710000000  0.4619780000000 1.0
C      1  0.5352110000000  0.5893370000000  0.5200220000000 1.0
C      1  0.4680710000000  0.5888210000000  0.5206180000000 1.0
C      1  0.4783370000000  0.4807920000000  0.4513080000000 1.0
C      1  0.5589500000000  0.4821920000000  0.5036090000000 1.0
C      1  0.4718680000000  0.4800380000000  0.5451360000000 1.0
C      1  0.5483990000000  0.4610640000000  0.5241690000000 1.0
C      1  0.4573430000000  0.4569580000000  0.5291540000000 1.0
C      1  0.4985210000000  0.4574320000000  0.4502600000000 1.0
C      1  0.5272420000000  0.5186150000000  0.4860110000000 1.0
C      1  0.5028570000000  0.5190290000000  0.5311220000000 1.0
C      1  0.4761680000000  0.5183070000000  0.4874040000000 1.0
C      1  0.4935710000000  0.5640850000000  0.4722360000000 1.0
C      1  0.5305650000000  0.5647020000000  0.5083260000000 1.0
C      1  0.4803840000000  0.5640770000000  0.5220890000000 1.0
C      1  0.5016720000000  0.5567540000000  0.5010010000000 1.0
C      1  0.4969780000000  0.4300400000000  0.4991240000000 1.0
C      1  0.4929540000000  0.4583330000000  0.4941370000000 1.0
C      1  0.5021360000000  0.5261910000000  0.5014470000000 1.0
END
