TITL C-2782236-320-671 4.77141548153319e-08 125000 -19.0187538210902 0 0 4 (D(inf)h) n - 1
REM
REM in /home/nfs/bkarasulu/CARBON/AIRSS/Generating-Clusters/REBO/Higher-Symm/SD-CG/HFTN-CG
REM
REM
REM
REM
REM
REM ./C.cell (12c818d87b63d06a65506943cc24bca4)
REM
REM compiler GCC version 9.2.1 20190827 (Red Hat 9.2.1-1)
REM options -cpp -mtune=generic -march=x86-64 -g -O0 -fpre-include=/usr/include/finclude/math-vector-fortran.h
REM seed -536527129 1300213805 -532120745 1175345283 -53756302 1956675321 755654176 -1644819378 1751789586 -1421897496 -878127229 94578565 1931691830 -846014604 1538635231 500567874 -258371469 1348906178 -549049280 1217493337 -179686347 -538902110 1848389882 1672691637 -2035014565 461400756 -126151446 532250636 122894124 -2026744039 -1686618357 -2109233338 -936717181
REM
CELL 1.54180   50.00000   50.00000   50.00000   90.00000   90.00000   90.00000
LATT -1
SFAC C  
C      1  0.5015220000000  0.4986770000000  0.5133150000000 1.0
C      1  0.5015220000000  0.4986770000000  0.5395230000000 1.0
C      1  0.5015220000000  0.4986770000000  0.4604770000000 1.0
C      1  0.5015220000000  0.4986770000000  0.4866850000000 1.0
END
