TITL C-2782237-5345-1133 -0.00126538564008599 125000 -405.816541290277 0 0 71 (C1) n - 1
REM
REM in /home/nfs/bkarasulu/CARBON/AIRSS/Generating-Clusters/REBO/Higher-Symm/SD-CG/HFTN-CG
REM
REM
REM
REM
REM
REM ./C.cell (12c818d87b63d06a65506943cc24bca4)
REM
REM compiler GCC version 9.2.1 20190827 (Red Hat 9.2.1-1)
REM options -cpp -mtune=generic -march=x86-64 -g -O0 -fpre-include=/usr/include/finclude/math-vector-fortran.h
REM seed -570001785 1777453744 1666194502 -1538221406 -1248173965 84929315 -1073396218 1396253173 1740935782 -982823123 2020333123 -1483504120 768334890 -684160257 -657701077 1636408215 -1897511152 1144452211 -1914999320 -1136044479 -973472004 1755168628 441917258 478843017 -702080659 -787724701 -1782630050 1403811768 168785229 -217532925 1692469154 754498427 1699271352
REM
CELL 1.54180   50.00000   50.00000   50.00000   90.00000   90.00000   90.00000
LATT -1
SFAC C  
C      1  0.4984430000000  0.5242090000000  0.5184410000000 1.0
C      1  0.5220710000000  0.4925950000000  0.5147550000000 1.0
C      1  0.4836310000000  0.4844720000000  0.5076920000000 1.0
C      1  0.5027400000000  0.4781480000000  0.4830750000000 1.0
C      1  0.5218890000000  0.5126080000000  0.4884950000000 1.0
C      1  0.4827320000000  0.5195790000000  0.4885750000000 1.0
C      1  0.4691600000000  0.5174120000000  0.5573460000000 1.0
C      1  0.5224880000000  0.5099300000000  0.5613740000000 1.0
C      1  0.4995200000000  0.4625540000000  0.5562510000000 1.0
C      1  0.4694420000000  0.4812220000000  0.4425430000000 1.0
C      1  0.5279390000000  0.4798250000000  0.4412100000000 1.0
C      1  0.4983660000000  0.5339820000000  0.4378020000000 1.0
C      1  0.5670720000000  0.5178070000000  0.5301290000000 1.0
C      1  0.4750740000000  0.4279730000000  0.5256650000000 1.0
C      1  0.4517510000000  0.5569010000000  0.5274160000000 1.0
C      1  0.5696940000000  0.4827810000000  0.4727710000000 1.0
C      1  0.4755750000000  0.5695740000000  0.4694890000000 1.0
C      1  0.4498760000000  0.4427410000000  0.4710890000000 1.0
C      1  0.4703480000000  0.5509350000000  0.5515300000000 1.0
C      1  0.5526950000000  0.5033640000000  0.5505530000000 1.0
C      1  0.4703310000000  0.4469420000000  0.5491150000000 1.0
C      1  0.4670130000000  0.4474450000000  0.4461660000000 1.0
C      1  0.5567610000000  0.4965780000000  0.4488090000000 1.0
C      1  0.4697410000000  0.5506710000000  0.4460110000000 1.0
C      1  0.4340030000000  0.5260020000000  0.4722480000000 1.0
C      1  0.5547940000000  0.5424040000000  0.4689700000000 1.0
C      1  0.5079550000000  0.4275550000000  0.4684150000000 1.0
C      1  0.4361710000000  0.4737840000000  0.5229850000000 1.0
C      1  0.5543130000000  0.4567370000000  0.5282670000000 1.0
C      1  0.5114180000000  0.5700600000000  0.5302740000000 1.0
C      1  0.5013270000000  0.5281600000000  0.5610510000000 1.0
C      1  0.5239830000000  0.4787920000000  0.5626470000000 1.0
C      1  0.4741410000000  0.4856290000000  0.5573830000000 1.0
C      1  0.5001210000000  0.4670290000000  0.4381050000000 1.0
C      1  0.5228330000000  0.5136970000000  0.4374050000000 1.0
C      1  0.4727960000000  0.5114730000000  0.4405470000000 1.0
C      1  0.4422700000000  0.4739270000000  0.4624740000000 1.0
C      1  0.5063050000000  0.5600860000000  0.4581600000000 1.0
C      1  0.5493210000000  0.4589820000000  0.4585120000000 1.0
C      1  0.4432280000000  0.5261030000000  0.5365880000000 1.0
C      1  0.5060010000000  0.4357890000000  0.5355700000000 1.0
C      1  0.5605560000000  0.5478310000000  0.5264490000000 1.0
C      1  0.4606000000000  0.4968330000000  0.4782850000000 1.0
C      1  0.5139980000000  0.5439700000000  0.4853160000000 1.0
C      1  0.5329620000000  0.4702680000000  0.4835500000000 1.0
C      1  0.4603150000000  0.5050930000000  0.5176730000000 1.0
C      1  0.5145400000000  0.4618690000000  0.5177020000000 1.0
C      1  0.5294950000000  0.5346640000000  0.5207090000000 1.0
C      1  0.4556480000000  0.4698090000000  0.4997700000000 1.0
C      1  0.4961200000000  0.5548320000000  0.5077080000000 1.0
C      1  0.5504670000000  0.4787360000000  0.5074990000000 1.0
C      1  0.4524340000000  0.5312420000000  0.4968590000000 1.0
C      1  0.4977120000000  0.4462170000000  0.4922460000000 1.0
C      1  0.5506610000000  0.5260210000000  0.4947620000000 1.0
C      1  0.4258140000000  0.5038590000000  0.5172210000000 1.0
C      1  0.5375070000000  0.5659840000000  0.5089810000000 1.0
C      1  0.5337780000000  0.4343590000000  0.5152680000000 1.0
C      1  0.4271830000000  0.4960850000000  0.4840160000000 1.0
C      1  0.5351740000000  0.4374620000000  0.4813140000000 1.0
C      1  0.5352910000000  0.5670980000000  0.4750260000000 1.0
C      1  0.4960260000000  0.4367190000000  0.4443210000000 1.0
C      1  0.4475880000000  0.5300270000000  0.4480670000000 1.0
C      1  0.5515110000000  0.5261720000000  0.4461610000000 1.0
C      1  0.5001240000000  0.5589250000000  0.5541160000000 1.0
C      1  0.4483810000000  0.4676190000000  0.5480630000000 1.0
C      1  0.5519990000000  0.4708280000000  0.5531290000000 1.0
C      1  0.4671110000000  0.5606350000000  0.4987350000000 1.0
C      1  0.4671840000000  0.4398580000000  0.4977780000000 1.0
C      1  0.5708220000000  0.5016290000000  0.5007570000000 1.0
C      1  0.4999070000000  0.5040220000000  0.4641430000000 1.0
C      1  0.4952440000000  0.4967680000000  0.5352690000000 1.0
END
