TITL C-2782234-8014-302 -0.0778234887852754 125000 -543.632822843188 0 0 94 (C1) n - 1
REM
REM in /home/nfs/bkarasulu/CARBON/AIRSS/Generating-Clusters/REBO/Higher-Symm/SD-CG/HFTN-CG
REM
REM
REM
REM
REM
REM ./C.cell (12c818d87b63d06a65506943cc24bca4)
REM
REM compiler GCC version 9.2.1 20190827 (Red Hat 9.2.1-1)
REM options -cpp -mtune=generic -march=x86-64 -g -O0 -fpre-include=/usr/include/finclude/math-vector-fortran.h
REM seed -1056695153 1370459975 1673493442 -1921875545 -1947237315 -463352537 325144173 -553617426 741374778 -872825026 -1104699412 1215506047 -659652238 1808367793 -69350876 -1777986252 991129876 -622890915 1551696858 -2115183316 1768225231 1922465112 1329614481 -926973508 1619153332 857340094 -1972976316 -1572522904 -1553959030 -790072214 536415807 2067767903 1217519973
REM
CELL 1.54180   50.00000   50.00000   50.00000   90.00000   90.00000   90.00000
LATT -1
SFAC C  
C      1  0.5132890000000  0.5776330000000  0.5099710000000 1.0
C      1  0.4860990000000  0.5770240000000  0.4809590000000 1.0
C      1  0.4825980000000  0.5701250000000  0.5146500000000 1.0
C      1  0.5188740000000  0.5795760000000  0.4763960000000 1.0
C      1  0.5222740000000  0.4952270000000  0.5862800000000 1.0
C      1  0.4900570000000  0.4967420000000  0.4187140000000 1.0
C      1  0.4888060000000  0.4891350000000  0.5885220000000 1.0
C      1  0.5222950000000  0.4880540000000  0.4158310000000 1.0
C      1  0.5168460000000  0.4977040000000  0.5467740000000 1.0
C      1  0.4828230000000  0.5120290000000  0.4576380000000 1.0
C      1  0.4856810000000  0.5087390000000  0.5540390000000 1.0
C      1  0.5159900000000  0.5092380000000  0.4503890000000 1.0
C      1  0.5403600000000  0.4467630000000  0.5580960000000 1.0
C      1  0.4645300000000  0.4534970000000  0.4406830000000 1.0
C      1  0.4593790000000  0.4506550000000  0.5612040000000 1.0
C      1  0.5444550000000  0.4452480000000  0.4500400000000 1.0
C      1  0.4945160000000  0.4695260000000  0.4377670000000 1.0
C      1  0.5152940000000  0.4656220000000  0.5703890000000 1.0
C      1  0.5207330000000  0.4562350000000  0.4288210000000 1.0
C      1  0.4877570000000  0.4693360000000  0.5598900000000 1.0
C      1  0.4574310000000  0.4764250000000  0.5833980000000 1.0
C      1  0.5489360000000  0.4739580000000  0.4322400000000 1.0
C      1  0.5460650000000  0.4706070000000  0.5823670000000 1.0
C      1  0.4599290000000  0.4810730000000  0.4229380000000 1.0
C      1  0.5320410000000  0.5683380000000  0.5297930000000 1.0
C      1  0.4715940000000  0.5699290000000  0.4512950000000 1.0
C      1  0.4742950000000  0.5601560000000  0.5462470000000 1.0
C      1  0.5338540000000  0.5641670000000  0.4518560000000 1.0
C      1  0.4763940000000  0.4650200000000  0.5280920000000 1.0
C      1  0.5104800000000  0.4631150000000  0.4851760000000 1.0
C      1  0.5055510000000  0.4541700000000  0.5165460000000 1.0
C      1  0.4833820000000  0.4738130000000  0.4693400000000 1.0
C      1  0.5210290000000  0.5219900000000  0.4192680000000 1.0
C      1  0.4933840000000  0.5226570000000  0.5831630000000 1.0
C      1  0.4887620000000  0.5281470000000  0.4281280000000 1.0
C      1  0.5239900000000  0.5239460000000  0.5678270000000 1.0
C      1  0.4349780000000  0.5084650000000  0.4720480000000 1.0
C      1  0.5664110000000  0.4849590000000  0.5124650000000 1.0
C      1  0.5602730000000  0.5059790000000  0.4878370000000 1.0
C      1  0.4322860000000  0.5039330000000  0.5252760000000 1.0
C      1  0.5121030000000  0.5466520000000  0.4819560000000 1.0
C      1  0.4697550000000  0.5386300000000  0.5130340000000 1.0
C      1  0.4777930000000  0.5450950000000  0.4819660000000 1.0
C      1  0.5036620000000  0.5362800000000  0.5108770000000 1.0
C      1  0.4428730000000  0.4477350000000  0.4632760000000 1.0
C      1  0.5652380000000  0.4441550000000  0.5396250000000 1.0
C      1  0.5692110000000  0.4378820000000  0.4663740000000 1.0
C      1  0.4356190000000  0.4487690000000  0.5410080000000 1.0
C      1  0.4857780000000  0.4401910000000  0.4639370000000 1.0
C      1  0.5156870000000  0.4335870000000  0.5417130000000 1.0
C      1  0.5187840000000  0.4371510000000  0.4671790000000 1.0
C      1  0.4825240000000  0.4340860000000  0.5422050000000 1.0
C      1  0.4490560000000  0.5471390000000  0.5477700000000 1.0
C      1  0.5531980000000  0.5462550000000  0.4614920000000 1.0
C      1  0.5548510000000  0.5269420000000  0.5324380000000 1.0
C      1  0.4474400000000  0.5555220000000  0.4523050000000 1.0
C      1  0.5384770000000  0.4825170000000  0.4842750000000 1.0
C      1  0.4574300000000  0.4875230000000  0.5144210000000 1.0
C      1  0.4577660000000  0.4896140000000  0.4810930000000 1.0
C      1  0.5364490000000  0.4685030000000  0.5147880000000 1.0
C      1  0.5630630000000  0.5250330000000  0.4455790000000 1.0
C      1  0.4383770000000  0.5180270000000  0.5550610000000 1.0
C      1  0.4367460000000  0.5271990000000  0.4431010000000 1.0
C      1  0.5639730000000  0.5013700000000  0.5378910000000 1.0
C      1  0.4846770000000  0.5036980000000  0.5240630000000 1.0
C      1  0.5136940000000  0.5026880000000  0.4808260000000 1.0
C      1  0.5135450000000  0.4930360000000  0.5134820000000 1.0
C      1  0.4835340000000  0.5070730000000  0.4913770000000 1.0
C      1  0.5257740000000  0.4174130000000  0.4906700000000 1.0
C      1  0.4723290000000  0.4238080000000  0.5131450000000 1.0
C      1  0.4732410000000  0.4255350000000  0.4886200000000 1.0
C      1  0.5250450000000  0.4173400000000  0.5153210000000 1.0
C      1  0.5826740000000  0.5289050000000  0.4831740000000 1.0
C      1  0.4070580000000  0.4966830000000  0.5094510000000 1.0
C      1  0.4080900000000  0.4998310000000  0.4843160000000 1.0
C      1  0.5803300000000  0.5511880000000  0.4951560000000 1.0
C      1  0.5457970000000  0.4884600000000  0.5551630000000 1.0
C      1  0.4573280000000  0.5063490000000  0.4392070000000 1.0
C      1  0.4578210000000  0.5031510000000  0.5681580000000 1.0
C      1  0.5470560000000  0.5032770000000  0.4429120000000 1.0
C      1  0.4301790000000  0.4472990000000  0.5148060000000 1.0
C      1  0.5781080000000  0.4411270000000  0.4916170000000 1.0
C      1  0.5738330000000  0.4545440000000  0.5158890000000 1.0
C      1  0.4332910000000  0.4467110000000  0.4881300000000 1.0
C      1  0.5234190000000  0.5553880000000  0.5544700000000 1.0
C      1  0.4890970000000  0.5598920000000  0.4320530000000 1.0
C      1  0.4946950000000  0.5504430000000  0.5633080000000 1.0
C      1  0.5186680000000  0.5542830000000  0.4301450000000 1.0
C      1  0.5257370000000  0.5292800000000  0.5245290000000 1.0
C      1  0.4442870000000  0.5391380000000  0.4799970000000 1.0
C      1  0.4400140000000  0.5347970000000  0.5193570000000 1.0
C      1  0.5438450000000  0.5358950000000  0.4895030000000 1.0
C      1  0.5555720000000  0.5542900000000  0.5156080000000 1.0
C      1  0.4216880000000  0.5522590000000  0.4998300000000 1.0
END
