TITL C-2782227-3064-1379 0.00366965466509513 125000 -283.176432826338 0 0 47 (S4) n - 1
REM
REM in /home/nfs/bkarasulu/CARBON/AIRSS/Generating-Clusters/REBO/Higher-Symm/SD-CG/HFTN-CG
REM
REM
REM
REM
REM
REM ./C.cell (12c818d87b63d06a65506943cc24bca4)
REM
REM compiler GCC version 9.2.1 20190827 (Red Hat 9.2.1-1)
REM options -cpp -mtune=generic -march=x86-64 -g -O0 -fpre-include=/usr/include/finclude/math-vector-fortran.h
REM seed 1966354027 -1741600430 -397107850 -527343589 139846600 -388687472 -634580823 77415264 -1378612813 982701248 311725746 1653255022 -249889558 -608268354 1011373762 185888281 731086498 195439787 -1690326965 49243278 1571718488 -1014305586 90179475 -1178254785 37489597 -1880729570 1087373549 -746967175 -1940247897 -2100653133 -259297108 -1742311902 -1846064383
REM
CELL 1.54180   50.00000   50.00000   50.00000   90.00000   90.00000   90.00000
LATT -1
SFAC C  
C      1  0.4726800000000  0.4426320000000  0.5133650000000 1.0
C      1  0.4726800000000  0.5557640000000  0.4867170000000 1.0
C      1  0.5286840000000  0.5557640000000  0.5133660000000 1.0
C      1  0.5286840000000  0.4426320000000  0.4867160000000 1.0
C      1  0.4726800000000  0.5125230000000  0.4434750000000 1.0
C      1  0.4726790000000  0.4858730000000  0.5566070000000 1.0
C      1  0.5286840000000  0.5125220000000  0.5566070000000 1.0
C      1  0.5286840000000  0.4858730000000  0.4434760000000 1.0
C      1  0.4723800000000  0.4861370000000  0.4533070000000 1.0
C      1  0.4723800000000  0.5122590000000  0.5467750000000 1.0
C      1  0.5289840000000  0.5122590000000  0.4533080000000 1.0
C      1  0.5289830000000  0.4861370000000  0.5467750000000 1.0
C      1  0.4723800000000  0.4524640000000  0.4869800000000 1.0
C      1  0.4723800000000  0.5459310000000  0.5131020000000 1.0
C      1  0.5289830000000  0.4524640000000  0.5131020000000 1.0
C      1  0.5289840000000  0.5459310000000  0.4869800000000 1.0
C      1  0.5536260000000  0.4466830000000  0.4700670000000 1.0
C      1  0.5536260000000  0.5517130000000  0.5300150000000 1.0
C      1  0.4477370000000  0.5517130000000  0.4700670000000 1.0
C      1  0.4477370000000  0.4466820000000  0.5300150000000 1.0
C      1  0.5536270000000  0.4692240000000  0.4475260000000 1.0
C      1  0.5536260000000  0.5291720000000  0.5525570000000 1.0
C      1  0.4477370000000  0.4692240000000  0.5525560000000 1.0
C      1  0.4477370000000  0.5291720000000  0.4475260000000 1.0
C      1  0.5001320000000  0.4494990000000  0.4734210000000 1.0
C      1  0.5001320000000  0.5488970000000  0.5266610000000 1.0
C      1  0.5012320000000  0.5488970000000  0.4734220000000 1.0
C      1  0.5012320000000  0.4494990000000  0.5266610000000 1.0
C      1  0.5001320000000  0.4725790000000  0.4503420000000 1.0
C      1  0.5001320000000  0.5258170000000  0.5497400000000 1.0
C      1  0.5012320000000  0.4725780000000  0.5497400000000 1.0
C      1  0.5012320000000  0.5258180000000  0.4503420000000 1.0
C      1  0.4567580000000  0.5198520000000  0.4793870000000 1.0
C      1  0.5446060000000  0.4785440000000  0.4793870000000 1.0
C      1  0.4567580000000  0.4785440000000  0.5206950000000 1.0
C      1  0.5446060000000  0.5198520000000  0.5206960000000 1.0
C      1  0.5417540000000  0.5214860000000  0.4777530000000 1.0
C      1  0.5417530000000  0.4769090000000  0.5223300000000 1.0
C      1  0.4596100000000  0.5214860000000  0.5223290000000 1.0
C      1  0.4596100000000  0.4769100000000  0.4777520000000 1.0
C      1  0.5149510000000  0.4796330000000  0.4804760000000 1.0
C      1  0.4864130000000  0.5187630000000  0.4804760000000 1.0
C      1  0.4864120000000  0.4796330000000  0.5196060000000 1.0
C      1  0.5149510000000  0.5187630000000  0.5196060000000 1.0
C      1  0.5550600000000  0.4991980000000  0.5000410000000 1.0
C      1  0.4463030000000  0.4991980000000  0.5000410000000 1.0
C      1  0.5006820000000  0.4991980000000  0.5000410000000 1.0
END
