TITL C-2782228-2999-846 -0.000412378102020146 125000 -888.011604616844 0 0 147 (C1) n - 1
REM
REM in /home/nfs/bkarasulu/CARBON/AIRSS/Generating-Clusters/REBO/Higher-Symm/SD-CG/HFTN-CG
REM
REM
REM
REM
REM
REM ./C.cell (12c818d87b63d06a65506943cc24bca4)
REM
REM compiler GCC version 9.2.1 20190827 (Red Hat 9.2.1-1)
REM options -cpp -mtune=generic -march=x86-64 -g -O0 -fpre-include=/usr/include/finclude/math-vector-fortran.h
REM seed 1446047425 1443875092 28714239 1938072805 -1749261658 274742995 -879769898 -221224205 2146492633 2046808642 1601418677 -1460066852 -726036886 2001850746 -1273406005 1227382081 1622068473 -529578840 -805284496 -483294702 778701020 1900711629 -535092923 799383431 2142961779 -1033994743 -327419115 1218567337 -249364501 553744972 683864644 1520497429 -1150347593
REM
CELL 1.54180   50.00000   50.00000   50.00000   90.00000   90.00000   90.00000
LATT -1
SFAC C  
C      1  0.5519010000000  0.5333820000000  0.4200020000000 1.0
C      1  0.5091830000000  0.4298560000000  0.4308440000000 1.0
C      1  0.4402110000000  0.5259650000000  0.4295130000000 1.0
C      1  0.5308670000000  0.5143240000000  0.5671850000000 1.0
C      1  0.4966920000000  0.4809290000000  0.5576860000000 1.0
C      1  0.4761100000000  0.5192070000000  0.5695180000000 1.0
C      1  0.4601350000000  0.5096590000000  0.4097380000000 1.0
C      1  0.5230410000000  0.5262480000000  0.4052200000000 1.0
C      1  0.5083970000000  0.4542770000000  0.4109280000000 1.0
C      1  0.4331020000000  0.4559620000000  0.5578010000000 1.0
C      1  0.4986280000000  0.5814620000000  0.5622100000000 1.0
C      1  0.5795430000000  0.4622610000000  0.5588580000000 1.0
C      1  0.4820300000000  0.4891300000000  0.4728040000000 1.0
C      1  0.4969350000000  0.5173240000000  0.4689420000000 1.0
C      1  0.5154460000000  0.4911810000000  0.4716270000000 1.0
C      1  0.4942130000000  0.5308460000000  0.4439020000000 1.0
C      1  0.5287490000000  0.4848260000000  0.4444570000000 1.0
C      1  0.4614680000000  0.4713690000000  0.4546660000000 1.0
C      1  0.4033510000000  0.4969910000000  0.4909520000000 1.0
C      1  0.5449410000000  0.6247120000000  0.5204500000000 1.0
C      1  0.5454470000000  0.4089050000000  0.5067640000000 1.0
C      1  0.5227940000000  0.4186740000000  0.5248090000000 1.0
C      1  0.4234500000000  0.5361580000000  0.5261400000000 1.0
C      1  0.5606000000000  0.5477180000000  0.5321830000000 1.0
C      1  0.5643060000000  0.4293880000000  0.4528830000000 1.0
C      1  0.4116290000000  0.4793480000000  0.4308830000000 1.0
C      1  0.5253590000000  0.5842610000000  0.4533280000000 1.0
C      1  0.5126090000000  0.5753330000000  0.4255890000000 1.0
C      1  0.5590600000000  0.4475320000000  0.4256320000000 1.0
C      1  0.4282260000000  0.4731540000000  0.4054160000000 1.0
C      1  0.4839880000000  0.4249780000000  0.4432400000000 1.0
C      1  0.4449540000000  0.5520840000000  0.4447870000000 1.0
C      1  0.5805840000000  0.5363980000000  0.4348460000000 1.0
C      1  0.5018600000000  0.5506670000000  0.4160200000000 1.0
C      1  0.5397550000000  0.4673110000000  0.4168200000000 1.0
C      1  0.4547300000000  0.4795640000000  0.4010620000000 1.0
C      1  0.4754110000000  0.5572420000000  0.4450050000000 1.0
C      1  0.5558580000000  0.5019540000000  0.4441410000000 1.0
C      1  0.4629060000000  0.4445890000000  0.4349370000000 1.0
C      1  0.4377890000000  0.4207810000000  0.5151550000000 1.0
C      1  0.4702570000000  0.5979870000000  0.5162250000000 1.0
C      1  0.6011290000000  0.4899450000000  0.5114150000000 1.0
C      1  0.5107420000000  0.5153620000000  0.5133430000000 1.0
C      1  0.4944560000000  0.4902180000000  0.5247760000000 1.0
C      1  0.4625590000000  0.5001910000000  0.5184340000000 1.0
C      1  0.5389450000000  0.5137260000000  0.5104100000000 1.0
C      1  0.4906760000000  0.4610610000000  0.5071010000000 1.0
C      1  0.4594560000000  0.5302540000000  0.5098310000000 1.0
C      1  0.4479920000000  0.4995140000000  0.5493720000000 1.0
C      1  0.5172690000000  0.5334030000000  0.5483830000000 1.0
C      1  0.5303770000000  0.4615970000000  0.5504110000000 1.0
C      1  0.4959160000000  0.6046730000000  0.4948850000000 1.0
C      1  0.6220420000000  0.4778200000000  0.4979600000000 1.0
C      1  0.4159560000000  0.4069280000000  0.5056430000000 1.0
C      1  0.4977480000000  0.4426710000000  0.4865440000000 1.0
C      1  0.4413640000000  0.5329350000000  0.4880620000000 1.0
C      1  0.5495410000000  0.5248660000000  0.4869130000000 1.0
C      1  0.5725370000000  0.4765770000000  0.5135010000000 1.0
C      1  0.4400420000000  0.4522870000000  0.5104190000000 1.0
C      1  0.4906810000000  0.5731310000000  0.5186680000000 1.0
C      1  0.5766720000000  0.5130160000000  0.5765610000000 1.0
C      1  0.4805450000000  0.4362370000000  0.5720390000000 1.0
C      1  0.4559510000000  0.5535460000000  0.5731030000000 1.0
C      1  0.6043130000000  0.4760720000000  0.4537610000000 1.0
C      1  0.4189010000000  0.4215310000000  0.4523720000000 1.0
C      1  0.4657360000000  0.5967700000000  0.4700330000000 1.0
C      1  0.5918910000000  0.5481210000000  0.4583690000000 1.0
C      1  0.4842390000000  0.4213350000000  0.4714550000000 1.0
C      1  0.4349720000000  0.5551680000000  0.4711050000000 1.0
C      1  0.5360070000000  0.4702080000000  0.4807940000000 1.0
C      1  0.4544570000000  0.4899820000000  0.4892110000000 1.0
C      1  0.4985740000000  0.5326040000000  0.4936630000000 1.0
C      1  0.5821400000000  0.4879150000000  0.4493590000000 1.0
C      1  0.4371550000000  0.4402460000000  0.4548800000000 1.0
C      1  0.4801240000000  0.5728620000000  0.4697380000000 1.0
C      1  0.4690140000000  0.5412970000000  0.4151140000000 1.0
C      1  0.5448370000000  0.5008110000000  0.4118680000000 1.0
C      1  0.4746830000000  0.4596510000000  0.4092360000000 1.0
C      1  0.5911130000000  0.5138980000000  0.5523870000000 1.0
C      1  0.4728150000000  0.4213870000000  0.5500260000000 1.0
C      1  0.4487980000000  0.5711020000000  0.5528910000000 1.0
C      1  0.4663700000000  0.4607460000000  0.5243240000000 1.0
C      1  0.4764880000000  0.5458190000000  0.5261590000000 1.0
C      1  0.5523890000000  0.4953720000000  0.5266960000000 1.0
C      1  0.5546550000000  0.5305480000000  0.5780740000000 1.0
C      1  0.5062220000000  0.4499200000000  0.5688450000000 1.0
C      1  0.4445470000000  0.5251910000000  0.5712360000000 1.0
C      1  0.5105010000000  0.5980700000000  0.4760920000000 1.0
C      1  0.5727170000000  0.4408490000000  0.4801040000000 1.0
C      1  0.4023330000000  0.4570140000000  0.4446620000000 1.0
C      1  0.4233040000000  0.5073720000000  0.4457160000000 1.0
C      1  0.5428030000000  0.5535890000000  0.4449450000000 1.0
C      1  0.5310330000000  0.4294650000000  0.4508980000000 1.0
C      1  0.3922660000000  0.5061770000000  0.4338080000000 1.0
C      1  0.5575840000000  0.5800910000000  0.4559880000000 1.0
C      1  0.5464770000000  0.4013540000000  0.4588530000000 1.0
C      1  0.5388160000000  0.4883680000000  0.5507140000000 1.0
C      1  0.4669170000000  0.4750460000000  0.5490190000000 1.0
C      1  0.4892730000000  0.5325340000000  0.5484570000000 1.0
C      1  0.5632590000000  0.4675360000000  0.4858280000000 1.0
C      1  0.4413630000000  0.4605000000000  0.4801150000000 1.0
C      1  0.4914120000000  0.5590860000000  0.4915150000000 1.0
C      1  0.4985850000000  0.5113460000000  0.4189050000000 1.0
C      1  0.5038220000000  0.4812150000000  0.4260200000000 1.0
C      1  0.4744460000000  0.4912340000000  0.4336810000000 1.0
C      1  0.5842660000000  0.5316350000000  0.5302370000000 1.0
C      1  0.4936840000000  0.4141490000000  0.5290450000000 1.0
C      1  0.4341770000000  0.5636520000000  0.5290600000000 1.0
C      1  0.5089910000000  0.5170690000000  0.5921360000000 1.0
C      1  0.5140410000000  0.4843110000000  0.5870720000000 1.0
C      1  0.4823870000000  0.4962490000000  0.5915480000000 1.0
C      1  0.5702060000000  0.4859290000000  0.5817540000000 1.0
C      1  0.4589280000000  0.4514550000000  0.5802550000000 1.0
C      1  0.4815200000000  0.5594480000000  0.5819600000000 1.0
C      1  0.4675520000000  0.4071600000000  0.5130400000000 1.0
C      1  0.4417240000000  0.5838870000000  0.5092350000000 1.0
C      1  0.5957910000000  0.5205300000000  0.5060540000000 1.0
C      1  0.5509610000000  0.5273410000000  0.4601280000000 1.0
C      1  0.5231900000000  0.4458860000000  0.4754650000000 1.0
C      1  0.4288930000000  0.5063400000000  0.4759710000000 1.0
C      1  0.5969990000000  0.4869750000000  0.5432800000000 1.0
C      1  0.4458760000000  0.4282380000000  0.5441860000000 1.0
C      1  0.4699670000000  0.5902820000000  0.5480980000000 1.0
C      1  0.4731410000000  0.4005220000000  0.4862830000000 1.0
C      1  0.4318900000000  0.5802540000000  0.4834010000000 1.0
C      1  0.5978960000000  0.5327980000000  0.4812350000000 1.0
C      1  0.5027820000000  0.5453890000000  0.5971740000000 1.0
C      1  0.5428240000000  0.4761350000000  0.5905330000000 1.0
C      1  0.4597640000000  0.4773030000000  0.5954820000000 1.0
C      1  0.5683980000000  0.4269320000000  0.5054930000000 1.0
C      1  0.3992070000000  0.4836060000000  0.5116020000000 1.0
C      1  0.5319920000000  0.6037410000000  0.5270640000000 1.0
C      1  0.5166010000000  0.5788170000000  0.5349260000000 1.0
C      1  0.5713460000000  0.4483950000000  0.5294080000000 1.0
C      1  0.4235510000000  0.4741080000000  0.5306500000000 1.0
C      1  0.4311590000000  0.4793320000000  0.5825110000000 1.0
C      1  0.5205780000000  0.5663850000000  0.5835350000000 1.0
C      1  0.5551790000000  0.4495560000000  0.5793220000000 1.0
C      1  0.4248970000000  0.5085570000000  0.5291030000000 1.0
C      1  0.5332180000000  0.5534070000000  0.5369810000000 1.0
C      1  0.5407740000000  0.4412830000000  0.5344520000000 1.0
C      1  0.5333410000000  0.4323430000000  0.5772810000000 1.0
C      1  0.4221900000000  0.5047610000000  0.5794710000000 1.0
C      1  0.5476560000000  0.5578790000000  0.5814990000000 1.0
C      1  0.3697380000000  0.5176530000000  0.4297990000000 1.0
C      1  0.5834360000000  0.5752920000000  0.4622800000000 1.0
C      1  0.5428280000000  0.3917160000000  0.4841360000000 1.0
END
