TITL C-2782225-7408-138 0.000272225360876945 125000 -799.467068925377 0 0 137 (C1) n - 1
REM
REM in /home/nfs/bkarasulu/CARBON/AIRSS/Generating-Clusters/REBO/Higher-Symm/SD-CG/HFTN-CG
REM
REM
REM
REM
REM
REM ./C.cell (12c818d87b63d06a65506943cc24bca4)
REM
REM compiler GCC version 9.2.1 20190827 (Red Hat 9.2.1-1)
REM options -cpp -mtune=generic -march=x86-64 -g -O0 -fpre-include=/usr/include/finclude/math-vector-fortran.h
REM seed -256425043 1653788173 -884180744 -385030601 730044518 -347229024 1323028497 74150270 336522969 1909601038 -373077027 808975011 -1986600803 -1597263196 -1978867128 51815840 1011343906 -1300632031 -611697868 1965872151 1377122544 1475534654 851217853 -589394115 1396626777 1223892547 -1615630083 -1270213440 -250123470 386621360 1217251653 -296803609 773374490
REM
CELL 1.54180   50.00000   50.00000   50.00000   90.00000   90.00000   90.00000
LATT -1
SFAC C  
C      1  0.4524330000000  0.5428050000000  0.5159580000000 1.0
C      1  0.4537230000000  0.4897470000000  0.4530880000000 1.0
C      1  0.4506440000000  0.4603560000000  0.5382890000000 1.0
C      1  0.5474350000000  0.5428940000000  0.4832830000000 1.0
C      1  0.5458350000000  0.4863170000000  0.5492330000000 1.0
C      1  0.5505460000000  0.4630840000000  0.4615910000000 1.0
C      1  0.5572430000000  0.5542040000000  0.5606490000000 1.0
C      1  0.5576510000000  0.5278270000000  0.4205990000000 1.0
C      1  0.5585980000000  0.4224470000000  0.5097540000000 1.0
C      1  0.4428820000000  0.5531050000000  0.4364190000000 1.0
C      1  0.4413240000000  0.5284860000000  0.5798100000000 1.0
C      1  0.4391940000000  0.4199730000000  0.4895280000000 1.0
C      1  0.4271910000000  0.5545740000000  0.4667560000000 1.0
C      1  0.4238220000000  0.4422820000000  0.4685580000000 1.0
C      1  0.4223980000000  0.5033010000000  0.5667690000000 1.0
C      1  0.5762890000000  0.5576850000000  0.5325640000000 1.0
C      1  0.5761470000000  0.4431900000000  0.5305530000000 1.0
C      1  0.5786900000000  0.5040100000000  0.4328080000000 1.0
C      1  0.5160070000000  0.5010810000000  0.5500700000000 1.0
C      1  0.5177740000000  0.5370810000000  0.4749520000000 1.0
C      1  0.5217990000000  0.4570890000000  0.4783250000000 1.0
C      1  0.4860170000000  0.5001730000000  0.4505660000000 1.0
C      1  0.4809600000000  0.5333590000000  0.5244100000000 1.0
C      1  0.4798180000000  0.4525980000000  0.5225000000000 1.0
C      1  0.5152130000000  0.4973860000000  0.4396180000000 1.0
C      1  0.5072700000000  0.4528490000000  0.5349070000000 1.0
C      1  0.5069510000000  0.5496820000000  0.5230710000000 1.0
C      1  0.4874260000000  0.4982710000000  0.5619190000000 1.0
C      1  0.4954960000000  0.4546170000000  0.4653500000000 1.0
C      1  0.4904240000000  0.5517900000000  0.4692410000000 1.0
C      1  0.4436970000000  0.5101700000000  0.5121180000000 1.0
C      1  0.4522040000000  0.5034700000000  0.4842040000000 1.0
C      1  0.4387580000000  0.4785020000000  0.5121470000000 1.0
C      1  0.5608390000000  0.5133460000000  0.4910570000000 1.0
C      1  0.5529660000000  0.5013740000000  0.5195670000000 1.0
C      1  0.5639350000000  0.4811200000000  0.4871420000000 1.0
C      1  0.5766130000000  0.5507410000000  0.4990850000000 1.0
C      1  0.5807760000000  0.4756880000000  0.4515210000000 1.0
C      1  0.5773720000000  0.4748740000000  0.5432640000000 1.0
C      1  0.4242070000000  0.5517600000000  0.5005680000000 1.0
C      1  0.4211650000000  0.4751620000000  0.5477010000000 1.0
C      1  0.4240690000000  0.4737820000000  0.4553670000000 1.0
C      1  0.5346620000000  0.5740820000000  0.4504850000000 1.0
C      1  0.5366320000000  0.4228340000000  0.4626430000000 1.0
C      1  0.5331850000000  0.5074810000000  0.5873100000000 1.0
C      1  0.4652530000000  0.5764500000000  0.5537390000000 1.0
C      1  0.4607160000000  0.4184550000000  0.5371450000000 1.0
C      1  0.4633020000000  0.5025540000000  0.4077110000000 1.0
C      1  0.4601200000000  0.4047560000000  0.4776190000000 1.0
C      1  0.4581300000000  0.5253980000000  0.6010980000000 1.0
C      1  0.4593890000000  0.5729490000000  0.4272920000000 1.0
C      1  0.5377800000000  0.4069990000000  0.5210560000000 1.0
C      1  0.5391610000000  0.5248670000000  0.4004980000000 1.0
C      1  0.5417450000000  0.5738530000000  0.5719560000000 1.0
C      1  0.5570150000000  0.4274750000000  0.4821380000000 1.0
C      1  0.5472080000000  0.5234930000000  0.5660510000000 1.0
C      1  0.5500600000000  0.5491500000000  0.4438830000000 1.0
C      1  0.4408000000000  0.4245330000000  0.5174330000000 1.0
C      1  0.4513600000000  0.5229150000000  0.4269380000000 1.0
C      1  0.4505930000000  0.5504690000000  0.5576130000000 1.0
C      1  0.5073970000000  0.5121260000000  0.5978900000000 1.0
C      1  0.5090120000000  0.5799060000000  0.4403710000000 1.0
C      1  0.5086580000000  0.4167990000000  0.4649090000000 1.0
C      1  0.4908670000000  0.5041920000000  0.4003770000000 1.0
C      1  0.4906010000000  0.5822810000000  0.5651880000000 1.0
C      1  0.4880080000000  0.4108240000000  0.5336270000000 1.0
C      1  0.5212470000000  0.4948770000000  0.5190180000000 1.0
C      1  0.5128890000000  0.5124510000000  0.4915570000000 1.0
C      1  0.5316220000000  0.4862250000000  0.4880790000000 1.0
C      1  0.4824390000000  0.4892160000000  0.4805160000000 1.0
C      1  0.4859970000000  0.5098100000000  0.5076020000000 1.0
C      1  0.4713420000000  0.4813890000000  0.5114630000000 1.0
C      1  0.4706190000000  0.5227780000000  0.5531910000000 1.0
C      1  0.4734250000000  0.5317410000000  0.4517200000000 1.0
C      1  0.4741250000000  0.4487000000000  0.4891200000000 1.0
C      1  0.5312730000000  0.5210200000000  0.4497450000000 1.0
C      1  0.5271710000000  0.5315500000000  0.5394300000000 1.0
C      1  0.5266680000000  0.4540650000000  0.5110020000000 1.0
C      1  0.5729330000000  0.5060330000000  0.5561570000000 1.0
C      1  0.5753510000000  0.5502630000000  0.4650840000000 1.0
C      1  0.5799530000000  0.4470570000000  0.4687990000000 1.0
C      1  0.4267810000000  0.5036240000000  0.4391340000000 1.0
C      1  0.4260330000000  0.5507580000000  0.5346770000000 1.0
C      1  0.4202090000000  0.4465760000000  0.5303880000000 1.0
C      1  0.4700240000000  0.4809810000000  0.5854560000000 1.0
C      1  0.4716290000000  0.5799190000000  0.4731950000000 1.0
C      1  0.4677550000000  0.4431170000000  0.4488080000000 1.0
C      1  0.5333900000000  0.4809700000000  0.4160430000000 1.0
C      1  0.5221230000000  0.5773100000000  0.5294450000000 1.0
C      1  0.5245560000000  0.4358540000000  0.5576310000000 1.0
C      1  0.4143320000000  0.4492540000000  0.5005130000000 1.0
C      1  0.4088760000000  0.5268890000000  0.5461280000000 1.0
C      1  0.4121140000000  0.5261220000000  0.4554080000000 1.0
C      1  0.5858460000000  0.4497580000000  0.4985680000000 1.0
C      1  0.5929500000000  0.5267790000000  0.4538230000000 1.0
C      1  0.5903980000000  0.5279590000000  0.5425810000000 1.0
C      1  0.5581010000000  0.5307250000000  0.5284370000000 1.0
C      1  0.5603660000000  0.5138070000000  0.4590630000000 1.0
C      1  0.5557290000000  0.4621460000000  0.5123370000000 1.0
C      1  0.4454040000000  0.5266620000000  0.4659880000000 1.0
C      1  0.4418080000000  0.5148640000000  0.5424150000000 1.0
C      1  0.4455460000000  0.4592530000000  0.4869220000000 1.0
C      1  0.4810160000000  0.5808370000000  0.4434680000000 1.0
C      1  0.4800590000000  0.4179390000000  0.4621980000000 1.0
C      1  0.4795910000000  0.5071830000000  0.6000080000000 1.0
C      1  0.5182240000000  0.5818830000000  0.5585850000000 1.0
C      1  0.5159370000000  0.4139090000000  0.5373200000000 1.0
C      1  0.5196270000000  0.5037750000000  0.4004540000000 1.0
C      1  0.4568430000000  0.5889510000000  0.5297020000000 1.0
C      1  0.4473780000000  0.4784420000000  0.4089930000000 1.0
C      1  0.4539290000000  0.4290680000000  0.5628880000000 1.0
C      1  0.5434510000000  0.5845980000000  0.4752250000000 1.0
C      1  0.5438390000000  0.4813020000000  0.5888480000000 1.0
C      1  0.5453050000000  0.4320040000000  0.4370230000000 1.0
C      1  0.5926470000000  0.4770130000000  0.5145820000000 1.0
C      1  0.5934860000000  0.5256490000000  0.5105860000000 1.0
C      1  0.5955380000000  0.4985560000000  0.4700280000000 1.0
C      1  0.4099230000000  0.4769570000000  0.4845630000000 1.0
C      1  0.4096680000000  0.5255660000000  0.4878630000000 1.0
C      1  0.4079020000000  0.4987640000000  0.5290440000000 1.0
C      1  0.4593120000000  0.5905490000000  0.5031940000000 1.0
C      1  0.4561600000000  0.4544930000000  0.4219750000000 1.0
C      1  0.4572000000000  0.4499850000000  0.5791570000000 1.0
C      1  0.5394680000000  0.5865940000000  0.5014860000000 1.0
C      1  0.5406040000000  0.4566010000000  0.5794200000000 1.0
C      1  0.5397260000000  0.4519110000000  0.4183010000000 1.0
C      1  0.4838840000000  0.4516830000000  0.4135530000000 1.0
C      1  0.4862420000000  0.4539530000000  0.5933910000000 1.0
C      1  0.4880570000000  0.6008690000000  0.4917080000000 1.0
C      1  0.5132210000000  0.4411180000000  0.5874830000000 1.0
C      1  0.5123190000000  0.4488690000000  0.4059930000000 1.0
C      1  0.5121890000000  0.6014610000000  0.5102870000000 1.0
C      1  0.5026010000000  0.4659060000000  0.4361350000000 1.0
C      1  0.5013050000000  0.4671300000000  0.5652480000000 1.0
C      1  0.5025040000000  0.5696890000000  0.4958270000000 1.0
C      1  0.5976970000000  0.5000740000000  0.4986180000000 1.0
C      1  0.4067440000000  0.5002910000000  0.5005180000000 1.0
END
