TITL C-2782225-7408-61 -0.00295782986557276 125000 -958.689738474321 0 0 165 (C1) n - 1
REM
REM in /home/nfs/bkarasulu/CARBON/AIRSS/Generating-Clusters/REBO/Higher-Symm/SD-CG/HFTN-CG
REM
REM
REM
REM
REM
REM ./C.cell (12c818d87b63d06a65506943cc24bca4)
REM
REM compiler GCC version 9.2.1 20190827 (Red Hat 9.2.1-1)
REM options -cpp -mtune=generic -march=x86-64 -g -O0 -fpre-include=/usr/include/finclude/math-vector-fortran.h
REM seed -568247271 987387710 -1402000882 645621104 -1751742398 1745150550 -604048200 946474408 1269722915 -934793228 1922295096 -20406844 -1316047615 -26177302 1969763073 -909414410 654515382 912681175 178692811 366053480 -963557301 1416845065 2146035891 -1158724362 1673455376 271928504 -1709382436 -1608496614 1977003843 -1873732572 2044717587 73857298 -777456935
REM
CELL 1.54180   50.00000   50.00000   50.00000   90.00000   90.00000   90.00000
LATT -1
SFAC C  
C      1  0.4946580000000  0.4271270000000  0.5000140000000 1.0
C      1  0.5468080000000  0.5311610000000  0.4481170000000 1.0
C      1  0.4878340000000  0.4191890000000  0.4216940000000 1.0
C      1  0.5510650000000  0.5514030000000  0.5164930000000 1.0
C      1  0.4446460000000  0.5954030000000  0.4499520000000 1.0
C      1  0.5996110000000  0.5289570000000  0.4714730000000 1.0
C      1  0.5362270000000  0.4461160000000  0.5454200000000 1.0
C      1  0.4779110000000  0.4758390000000  0.4901840000000 1.0
C      1  0.5927900000000  0.5214290000000  0.5460530000000 1.0
C      1  0.5787410000000  0.4975480000000  0.4329280000000 1.0
C      1  0.4559990000000  0.4141150000000  0.5533850000000 1.0
C      1  0.5246350000000  0.5264050000000  0.5785660000000 1.0
C      1  0.4261540000000  0.5413280000000  0.5559780000000 1.0
C      1  0.4568120000000  0.4288450000000  0.4873700000000 1.0
C      1  0.4408760000000  0.4327860000000  0.4510240000000 1.0
C      1  0.5304060000000  0.4963060000000  0.4076170000000 1.0
C      1  0.5559130000000  0.5835830000000  0.4648370000000 1.0
C      1  0.4866790000000  0.4686840000000  0.4273780000000 1.0
C      1  0.6000770000000  0.5356620000000  0.5218660000000 1.0
C      1  0.5145560000000  0.4245210000000  0.4202920000000 1.0
C      1  0.5656320000000  0.4995470000000  0.5268490000000 1.0
C      1  0.5125690000000  0.5470480000000  0.4610100000000 1.0
C      1  0.4287430000000  0.4824800000000  0.4023330000000 1.0
C      1  0.5123650000000  0.5826780000000  0.4221070000000 1.0
C      1  0.4092860000000  0.4774210000000  0.4612990000000 1.0
C      1  0.4472270000000  0.5550650000000  0.4423710000000 1.0
C      1  0.5567240000000  0.4493750000000  0.4410210000000 1.0
C      1  0.4811250000000  0.4964260000000  0.3902080000000 1.0
C      1  0.6070580000000  0.4817830000000  0.4696500000000 1.0
C      1  0.5255460000000  0.5590970000000  0.5314250000000 1.0
C      1  0.4288190000000  0.4963060000000  0.5068090000000 1.0
C      1  0.5545380000000  0.5417940000000  0.4858210000000 1.0
C      1  0.4793060000000  0.5622350000000  0.5573310000000 1.0
C      1  0.4996580000000  0.4758630000000  0.5157060000000 1.0
C      1  0.4984060000000  0.5151770000000  0.5597260000000 1.0
C      1  0.4261970000000  0.4687390000000  0.4884640000000 1.0
C      1  0.5309270000000  0.5301820000000  0.4114730000000 1.0
C      1  0.4375260000000  0.4643240000000  0.4504600000000 1.0
C      1  0.5049070000000  0.4950240000000  0.4711690000000 1.0
C      1  0.5491320000000  0.4863710000000  0.4882310000000 1.0
C      1  0.5682820000000  0.4468020000000  0.4741800000000 1.0
C      1  0.5300800000000  0.4152890000000  0.4645380000000 1.0
C      1  0.4592910000000  0.5796260000000  0.5513600000000 1.0
C      1  0.5720750000000  0.5766950000000  0.4940650000000 1.0
C      1  0.5005000000000  0.5606090000000  0.5119650000000 1.0
C      1  0.5397380000000  0.4774500000000  0.4638320000000 1.0
C      1  0.4768550000000  0.4236570000000  0.5773360000000 1.0
C      1  0.4821480000000  0.5864400000000  0.5176270000000 1.0
C      1  0.5071680000000  0.4833730000000  0.5933420000000 1.0
C      1  0.5269500000000  0.4769240000000  0.5521030000000 1.0
C      1  0.4631810000000  0.4510170000000  0.5666590000000 1.0
C      1  0.5377040000000  0.5320040000000  0.5487050000000 1.0
C      1  0.5164450000000  0.4468980000000  0.4938560000000 1.0
C      1  0.4935560000000  0.3833860000000  0.5172220000000 1.0
C      1  0.4901190000000  0.5060830000000  0.6073350000000 1.0
C      1  0.4898530000000  0.4967490000000  0.4420320000000 1.0
C      1  0.4795580000000  0.5030390000000  0.5098470000000 1.0
C      1  0.4865160000000  0.5528670000000  0.5955240000000 1.0
C      1  0.5692550000000  0.4534570000000  0.5061030000000 1.0
C      1  0.4515350000000  0.5200450000000  0.5782410000000 1.0
C      1  0.4114840000000  0.5045500000000  0.4787590000000 1.0
C      1  0.5401740000000  0.5866250000000  0.5010460000000 1.0
C      1  0.5009610000000  0.4052640000000  0.5617020000000 1.0
C      1  0.5175900000000  0.5531950000000  0.4304650000000 1.0
C      1  0.4978330000000  0.5288040000000  0.5128830000000 1.0
C      1  0.4803060000000  0.4117870000000  0.4744630000000 1.0
C      1  0.5614880000000  0.5638370000000  0.5526790000000 1.0
C      1  0.5526450000000  0.4777430000000  0.4262110000000 1.0
C      1  0.5821050000000  0.5507890000000  0.4740740000000 1.0
C      1  0.5008870000000  0.4870370000000  0.5540700000000 1.0
C      1  0.4137430000000  0.4649620000000  0.5261640000000 1.0
C      1  0.4806120000000  0.5399380000000  0.4661380000000 1.0
C      1  0.5252530000000  0.6053110000000  0.5131360000000 1.0
C      1  0.4870220000000  0.5693430000000  0.4819740000000 1.0
C      1  0.4198120000000  0.5662190000000  0.4848790000000 1.0
C      1  0.4599140000000  0.5421200000000  0.5918650000000 1.0
C      1  0.4187070000000  0.4835630000000  0.5617690000000 1.0
C      1  0.4263560000000  0.4209700000000  0.4785100000000 1.0
C      1  0.4593910000000  0.5688120000000  0.5128840000000 1.0
C      1  0.4770710000000  0.5236980000000  0.4385470000000 1.0
C      1  0.4478870000000  0.5018680000000  0.4585910000000 1.0
C      1  0.4974270000000  0.4452760000000  0.5287690000000 1.0
C      1  0.5089110000000  0.3993110000000  0.4751340000000 1.0
C      1  0.4588160000000  0.4300240000000  0.5174800000000 1.0
C      1  0.5976020000000  0.5042790000000  0.4533070000000 1.0
C      1  0.4705900000000  0.4252050000000  0.4483310000000 1.0
C      1  0.4830450000000  0.4647630000000  0.5506450000000 1.0
C      1  0.5992270000000  0.4555550000000  0.4635130000000 1.0
C      1  0.4753110000000  0.4870710000000  0.5847750000000 1.0
C      1  0.3846510000000  0.5064400000000  0.5232200000000 1.0
C      1  0.4670710000000  0.5404980000000  0.5037240000000 1.0
C      1  0.5056240000000  0.5913870000000  0.4700350000000 1.0
C      1  0.5113250000000  0.4616040000000  0.4679930000000 1.0
C      1  0.4675320000000  0.5621080000000  0.4160220000000 1.0
C      1  0.3896110000000  0.4770580000000  0.5231020000000 1.0
C      1  0.5803820000000  0.5628950000000  0.5240770000000 1.0
C      1  0.5695330000000  0.5333320000000  0.5563480000000 1.0
C      1  0.4862750000000  0.4706070000000  0.3992720000000 1.0
C      1  0.5105590000000  0.4152970000000  0.5342690000000 1.0
C      1  0.5288200000000  0.5986630000000  0.4646700000000 1.0
C      1  0.5547420000000  0.4911940000000  0.5571840000000 1.0
C      1  0.4210080000000  0.5091880000000  0.4402040000000 1.0
C      1  0.4096310000000  0.5287440000000  0.5218560000000 1.0
C      1  0.4578090000000  0.5721630000000  0.4699970000000 1.0
C      1  0.5529400000000  0.5194120000000  0.5103350000000 1.0
C      1  0.5295390000000  0.5680580000000  0.5638760000000 1.0
C      1  0.5745160000000  0.4171230000000  0.5667640000000 1.0
C      1  0.5367080000000  0.4089820000000  0.5145600000000 1.0
C      1  0.5386610000000  0.4566720000000  0.5151740000000 1.0
C      1  0.4511100000000  0.5150310000000  0.5168670000000 1.0
C      1  0.5248280000000  0.5170440000000  0.4655640000000 1.0
C      1  0.5306110000000  0.5620990000000  0.4807470000000 1.0
C      1  0.4334440000000  0.5924940000000  0.4810080000000 1.0
C      1  0.5476690000000  0.4234260000000  0.4857530000000 1.0
C      1  0.5062690000000  0.4349470000000  0.5872350000000 1.0
C      1  0.4147460000000  0.5575730000000  0.5350120000000 1.0
C      1  0.5648680000000  0.4420090000000  0.5601460000000 1.0
C      1  0.4442200000000  0.4788630000000  0.5319790000000 1.0
C      1  0.4989700000000  0.6086640000000  0.5209440000000 1.0
C      1  0.4884890000000  0.5876330000000  0.4147680000000 1.0
C      1  0.4506010000000  0.5238710000000  0.5450390000000 1.0
C      1  0.5531060000000  0.5585450000000  0.4479560000000 1.0
C      1  0.6075470000000  0.5197950000000  0.4986580000000 1.0
C      1  0.4497410000000  0.4838620000000  0.4296250000000 1.0
C      1  0.5926880000000  0.4886080000000  0.5454290000000 1.0
C      1  0.4790710000000  0.5343060000000  0.5531690000000 1.0
C      1  0.4514830000000  0.4890070000000  0.5638870000000 1.0
C      1  0.4330960000000  0.5744010000000  0.5216300000000 1.0
C      1  0.5042600000000  0.5151160000000  0.3962180000000 1.0
C      1  0.5644990000000  0.4095860000000  0.5281230000000 1.0
C      1  0.5462340000000  0.5512460000000  0.5874190000000 1.0
C      1  0.4338900000000  0.4534240000000  0.5607760000000 1.0
C      1  0.4205960000000  0.4399100000000  0.5058500000000 1.0
C      1  0.6071550000000  0.4906000000000  0.4968310000000 1.0
C      1  0.5232830000000  0.5178490000000  0.5228450000000 1.0
C      1  0.5286380000000  0.4879620000000  0.5137820000000 1.0
C      1  0.4314720000000  0.4312190000000  0.5370460000000 1.0
C      1  0.5768010000000  0.4677680000000  0.5646090000000 1.0
C      1  0.4556250000000  0.4586370000000  0.4776130000000 1.0
C      1  0.4469390000000  0.5249800000000  0.4264250000000 1.0
C      1  0.4503340000000  0.5903850000000  0.4238830000000 1.0
C      1  0.5341060000000  0.4287140000000  0.4399050000000 1.0
C      1  0.5865690000000  0.4777550000000  0.5143570000000 1.0
C      1  0.5590980000000  0.5172000000000  0.4250540000000 1.0
C      1  0.5011350000000  0.5714630000000  0.5754480000000 1.0
C      1  0.5799190000000  0.4285500000000  0.5220090000000 1.0
C      1  0.4190390000000  0.5533300000000  0.4585680000000 1.0
C      1  0.4544810000000  0.5039880000000  0.4023490000000 1.0
C      1  0.5289930000000  0.4462740000000  0.5777200000000 1.0
C      1  0.5033770000000  0.5311950000000  0.6026250000000 1.0
C      1  0.4530100000000  0.5244730000000  0.4780830000000 1.0
C      1  0.5426960000000  0.4654430000000  0.5917470000000 1.0
C      1  0.5369240000000  0.4970760000000  0.5849520000000 1.0
C      1  0.4074270000000  0.5043850000000  0.5461470000000 1.0
C      1  0.5147380000000  0.3899710000000  0.5013140000000 1.0
C      1  0.4920160000000  0.4494270000000  0.4474380000000 1.0
C      1  0.4050330000000  0.5290640000000  0.4573140000000 1.0
C      1  0.4771850000000  0.4073190000000  0.5297890000000 1.0
C      1  0.4235600000000  0.5333810000000  0.4929300000000 1.0
C      1  0.4922800000000  0.5392280000000  0.4153360000000 1.0
C      1  0.5656840000000  0.5550070000000  0.6040240000000 1.0
C      1  0.4097220000000  0.4816800000000  0.4275320000000 1.0
C      1  0.5880360000000  0.4423890000000  0.4399040000000 1.0
C      1  0.4631160000000  0.4610590000000  0.5166870000000 1.0
C      1  0.5215670000000  0.4856740000000  0.4365110000000 1.0
END
