TITL C-2782225-7408-787 -0.00116495776656047 125000 -1005.49698980281 0 0 172 (C1) n - 1
REM
REM in /home/nfs/bkarasulu/CARBON/AIRSS/Generating-Clusters/REBO/Higher-Symm/SD-CG/HFTN-CG
REM
REM
REM
REM
REM
REM ./C.cell (12c818d87b63d06a65506943cc24bca4)
REM
REM compiler GCC version 9.2.1 20190827 (Red Hat 9.2.1-1)
REM options -cpp -mtune=generic -march=x86-64 -g -O0 -fpre-include=/usr/include/finclude/math-vector-fortran.h
REM seed -2134271967 590888626 1712725138 -16329889 1229097361 -1228902473 510716002 -982001730 -137575790 -1680957496 1945631814 1923782893 -2047739581 -962586217 -1131790899 996427637 1416934766 1494842094 -1019381954 1782779194 -1990487177 567709742 973639376 2142307252 -42234779 -1495433967 -133171665 1852405294 865229402 117078514 -328113576 -2138187547 -234919302
REM
CELL 1.54180   50.00000   50.00000   50.00000   90.00000   90.00000   90.00000
LATT -1
SFAC C  
C      1  0.4799890000000  0.4832430000000  0.4288670000000 1.0
C      1  0.5195070000000  0.4806760000000  0.5713840000000 1.0
C      1  0.4803620000000  0.5153100000000  0.4288000000000 1.0
C      1  0.5199370000000  0.5122250000000  0.5732170000000 1.0
C      1  0.5443260000000  0.4319030000000  0.5642080000000 1.0
C      1  0.4596890000000  0.4301620000000  0.4423220000000 1.0
C      1  0.5451320000000  0.5658620000000  0.5570890000000 1.0
C      1  0.4493480000000  0.5690610000000  0.4474140000000 1.0
C      1  0.4371770000000  0.4708090000000  0.4955770000000 1.0
C      1  0.5608640000000  0.4677240000000  0.5031010000000 1.0
C      1  0.4375590000000  0.5304810000000  0.4971610000000 1.0
C      1  0.5594680000000  0.5287070000000  0.5008360000000 1.0
C      1  0.4184990000000  0.4821010000000  0.4423670000000 1.0
C      1  0.5816680000000  0.4780710000000  0.5550270000000 1.0
C      1  0.4179370000000  0.5098830000000  0.4403330000000 1.0
C      1  0.5791470000000  0.5071230000000  0.5560790000000 1.0
C      1  0.5224920000000  0.4367720000000  0.4990380000000 1.0
C      1  0.4794930000000  0.4380480000000  0.4935440000000 1.0
C      1  0.5197460000000  0.5643240000000  0.5067260000000 1.0
C      1  0.4781560000000  0.5657180000000  0.5016000000000 1.0
C      1  0.5434520000000  0.5961130000000  0.5047870000000 1.0
C      1  0.4499340000000  0.5977790000000  0.4929300000000 1.0
C      1  0.5542420000000  0.4103720000000  0.5167030000000 1.0
C      1  0.4592740000000  0.4039280000000  0.4951350000000 1.0
C      1  0.4723090000000  0.4447700000000  0.3941700000000 1.0
C      1  0.5283990000000  0.4402270000000  0.6033690000000 1.0
C      1  0.4677610000000  0.5556860000000  0.4015260000000 1.0
C      1  0.5292310000000  0.5510530000000  0.6060440000000 1.0
C      1  0.5750070000000  0.4367350000000  0.5235070000000 1.0
C      1  0.4224590000000  0.4412930000000  0.4734670000000 1.0
C      1  0.5738020000000  0.5573100000000  0.5233790000000 1.0
C      1  0.4283080000000  0.5605100000000  0.4730160000000 1.0
C      1  0.4956160000000  0.6109660000000  0.4712100000000 1.0
C      1  0.4981410000000  0.6123020000000  0.5108270000000 1.0
C      1  0.5067300000000  0.3924690000000  0.4927370000000 1.0
C      1  0.5054260000000  0.3918770000000  0.5323350000000 1.0
C      1  0.5849480000000  0.4461960000000  0.4923530000000 1.0
C      1  0.4186960000000  0.4439660000000  0.5062830000000 1.0
C      1  0.5800190000000  0.5545650000000  0.4906120000000 1.0
C      1  0.4170560000000  0.5565630000000  0.5049450000000 1.0
C      1  0.4735090000000  0.5138630000000  0.3773580000000 1.0
C      1  0.5215580000000  0.5079520000000  0.6252800000000 1.0
C      1  0.4755990000000  0.4892920000000  0.3767340000000 1.0
C      1  0.5241670000000  0.4834810000000  0.6240310000000 1.0
C      1  0.4656290000000  0.4133200000000  0.4654220000000 1.0
C      1  0.5311160000000  0.4132050000000  0.5404130000000 1.0
C      1  0.4677120000000  0.5907420000000  0.4662460000000 1.0
C      1  0.5385750000000  0.5856240000000  0.5349110000000 1.0
C      1  0.5538850000000  0.4854220000000  0.5272740000000 1.0
C      1  0.4457000000000  0.4885260000000  0.4712370000000 1.0
C      1  0.5531430000000  0.5105850000000  0.5258900000000 1.0
C      1  0.4460000000000  0.5138410000000  0.4725910000000 1.0
C      1  0.4469030000000  0.4876630000000  0.5533220000000 1.0
C      1  0.5582280000000  0.4851760000000  0.4445220000000 1.0
C      1  0.4448090000000  0.5184770000000  0.5566800000000 1.0
C      1  0.5502320000000  0.5154940000000  0.4416300000000 1.0
C      1  0.4826420000000  0.4428430000000  0.4325890000000 1.0
C      1  0.5165300000000  0.4408120000000  0.5652910000000 1.0
C      1  0.4797180000000  0.5645230000000  0.4387780000000 1.0
C      1  0.5199760000000  0.5577960000000  0.5679300000000 1.0
C      1  0.5543830000000  0.4306150000000  0.4901140000000 1.0
C      1  0.4501600000000  0.4311850000000  0.5103530000000 1.0
C      1  0.5488930000000  0.5685180000000  0.4889310000000 1.0
C      1  0.4458920000000  0.5725220000000  0.5099930000000 1.0
C      1  0.4616790000000  0.4514060000000  0.5622690000000 1.0
C      1  0.5378390000000  0.4518110000000  0.4381200000000 1.0
C      1  0.4692370000000  0.5493130000000  0.5586760000000 1.0
C      1  0.5319350000000  0.5505320000000  0.4385440000000 1.0
C      1  0.5637030000000  0.5140760000000  0.4042960000000 1.0
C      1  0.4317380000000  0.5173700000000  0.5942460000000 1.0
C      1  0.5659810000000  0.4831710000000  0.4054000000000 1.0
C      1  0.4369780000000  0.4868790000000  0.5920050000000 1.0
C      1  0.4557290000000  0.4504860000000  0.4760950000000 1.0
C      1  0.5424750000000  0.4476320000000  0.5242240000000 1.0
C      1  0.4603040000000  0.5500140000000  0.4803760000000 1.0
C      1  0.5410190000000  0.5479880000000  0.5221340000000 1.0
C      1  0.4750180000000  0.5217660000000  0.5080500000000 1.0
C      1  0.5224330000000  0.5131210000000  0.4920320000000 1.0
C      1  0.4774880000000  0.4897570000000  0.5077360000000 1.0
C      1  0.5257080000000  0.4812150000000  0.4897780000000 1.0
C      1  0.4987160000000  0.5324190000000  0.5580390000000 1.0
C      1  0.5006340000000  0.5379950000000  0.4429580000000 1.0
C      1  0.4930370000000  0.4644030000000  0.5600950000000 1.0
C      1  0.5070320000000  0.4662440000000  0.4392020000000 1.0
C      1  0.5674910000000  0.5397140000000  0.5564970000000 1.0
C      1  0.4326870000000  0.5401650000000  0.4395050000000 1.0
C      1  0.5644930000000  0.4551010000000  0.5684990000000 1.0
C      1  0.4330260000000  0.4509630000000  0.4433010000000 1.0
C      1  0.5945340000000  0.5264860000000  0.4818900000000 1.0
C      1  0.4027250000000  0.5293370000000  0.5166540000000 1.0
C      1  0.6007480000000  0.4709720000000  0.4795230000000 1.0
C      1  0.4033750000000  0.4725030000000  0.5167520000000 1.0
C      1  0.5191890000000  0.4178780000000  0.4519040000000 1.0
C      1  0.4781130000000  0.4183250000000  0.5454040000000 1.0
C      1  0.5211600000000  0.5856370000000  0.4541880000000 1.0
C      1  0.4843910000000  0.5854140000000  0.5505490000000 1.0
C      1  0.5200490000000  0.5607330000000  0.4108130000000 1.0
C      1  0.4772370000000  0.5565140000000  0.5895700000000 1.0
C      1  0.5252030000000  0.4441140000000  0.4098290000000 1.0
C      1  0.4743330000000  0.4407140000000  0.5895440000000 1.0
C      1  0.5886980000000  0.5279240000000  0.5318160000000 1.0
C      1  0.4111090000000  0.5319290000000  0.4653830000000 1.0
C      1  0.5907540000000  0.4664350000000  0.5294330000000 1.0
C      1  0.4083700000000  0.4705980000000  0.4679000000000 1.0
C      1  0.4832310000000  0.5331850000000  0.6038470000000 1.0
C      1  0.5130800000000  0.5378790000000  0.3960870000000 1.0
C      1  0.4839820000000  0.4624860000000  0.6040890000000 1.0
C      1  0.5165060000000  0.4669330000000  0.3961670000000 1.0
C      1  0.5333750000000  0.5185640000000  0.3938630000000 1.0
C      1  0.4619990000000  0.5145850000000  0.6056200000000 1.0
C      1  0.5360780000000  0.4872510000000  0.3944800000000 1.0
C      1  0.4657180000000  0.4835090000000  0.6052760000000 1.0
C      1  0.4066230000000  0.4869780000000  0.5419250000000 1.0
C      1  0.5966890000000  0.4849170000000  0.4549630000000 1.0
C      1  0.4044690000000  0.5162510000000  0.5426630000000 1.0
C      1  0.5932580000000  0.5137310000000  0.4559210000000 1.0
C      1  0.4908220000000  0.5455020000000  0.5231510000000 1.0
C      1  0.5052070000000  0.5413460000000  0.4863040000000 1.0
C      1  0.4936750000000  0.4603330000000  0.5122230000000 1.0
C      1  0.5094850000000  0.4566850000000  0.4761020000000 1.0
C      1  0.5650070000000  0.5569490000000  0.4392140000000 1.0
C      1  0.4366290000000  0.5589700000000  0.5591770000000 1.0
C      1  0.5691390000000  0.4385240000000  0.4393380000000 1.0
C      1  0.4296950000000  0.4399690000000  0.5595240000000 1.0
C      1  0.5314240000000  0.3879750000000  0.5100540000000 1.0
C      1  0.4806950000000  0.3900360000000  0.5086070000000 1.0
C      1  0.5224940000000  0.6120690000000  0.4927310000000 1.0
C      1  0.4727290000000  0.6171090000000  0.4957960000000 1.0
C      1  0.4981840000000  0.4160830000000  0.4750610000000 1.0
C      1  0.5031610000000  0.4253850000000  0.5239240000000 1.0
C      1  0.4975230000000  0.5774440000000  0.4764350000000 1.0
C      1  0.5051550000000  0.5873740000000  0.5273440000000 1.0
C      1  0.5780780000000  0.5295650000000  0.4298890000000 1.0
C      1  0.4187090000000  0.5330950000000  0.5686910000000 1.0
C      1  0.5807710000000  0.4681950000000  0.4299430000000 1.0
C      1  0.4232960000000  0.4711530000000  0.5669800000000 1.0
C      1  0.5989650000000  0.4835250000000  0.5070960000000 1.0
C      1  0.4008240000000  0.4867190000000  0.4907740000000 1.0
C      1  0.5975860000000  0.5121010000000  0.5069110000000 1.0
C      1  0.4011310000000  0.5153690000000  0.4906790000000 1.0
C      1  0.5146020000000  0.4860540000000  0.5201720000000 1.0
C      1  0.4882900000000  0.4822210000000  0.4764420000000 1.0
C      1  0.5116590000000  0.5186060000000  0.5228080000000 1.0
C      1  0.4856010000000  0.5147340000000  0.4778000000000 1.0
C      1  0.5574640000000  0.5140480000000  0.4737340000000 1.0
C      1  0.4396150000000  0.5158880000000  0.5239490000000 1.0
C      1  0.5628500000000  0.4830170000000  0.4763910000000 1.0
C      1  0.4411680000000  0.4840020000000  0.5220420000000 1.0
C      1  0.4466740000000  0.4532310000000  0.5330430000000 1.0
C      1  0.5549950000000  0.4521350000000  0.4667360000000 1.0
C      1  0.4498470000000  0.5480570000000  0.5307150000000 1.0
C      1  0.5492680000000  0.5464880000000  0.4666110000000 1.0
C      1  0.4912570000000  0.4257630000000  0.5702030000000 1.0
C      1  0.5076550000000  0.4279240000000  0.4277820000000 1.0
C      1  0.4962700000000  0.5741140000000  0.5741850000000 1.0
C      1  0.5047820000000  0.5784770000000  0.4302710000000 1.0
C      1  0.4830490000000  0.5316440000000  0.4002260000000 1.0
C      1  0.5139010000000  0.5271520000000  0.6027960000000 1.0
C      1  0.4855060000000  0.4697680000000  0.3981310000000 1.0
C      1  0.5149220000000  0.4652080000000  0.6013250000000 1.0
C      1  0.4561170000000  0.5857980000000  0.5503440000000 1.0
C      1  0.5486390000000  0.5840210000000  0.4520810000000 1.0
C      1  0.4507620000000  0.4161020000000  0.5472610000000 1.0
C      1  0.5470180000000  0.4157610000000  0.4521490000000 1.0
C      1  0.5207890000000  0.5180310000000  0.4583270000000 1.0
C      1  0.4752330000000  0.5140870000000  0.5415300000000 1.0
C      1  0.5276270000000  0.4858680000000  0.4561170000000 1.0
C      1  0.4764000000000  0.4815460000000  0.5407800000000 1.0
C      1  0.4594560000000  0.4710300000000  0.4486680000000 1.0
C      1  0.5406870000000  0.4691930000000  0.5508290000000 1.0
C      1  0.4622610000000  0.5315150000000  0.4514490000000 1.0
C      1  0.5376130000000  0.5273560000000  0.5494800000000 1.0
END
