TITL C-2782233-7966-142 -0.000703765102198372 125000 -337.136284197256 0 0 61 (C2) n - 1
REM
REM in /home/nfs/bkarasulu/CARBON/AIRSS/Generating-Clusters/REBO/Higher-Symm/SD-CG/HFTN-CG
REM
REM
REM
REM
REM
REM ./C.cell (12c818d87b63d06a65506943cc24bca4)
REM
REM compiler GCC version 9.2.1 20190827 (Red Hat 9.2.1-1)
REM options -cpp -mtune=generic -march=x86-64 -g -O0 -fpre-include=/usr/include/finclude/math-vector-fortran.h
REM seed -167128835 700633119 -1756466703 -179587460 -1967801608 -642063145 279121720 494098503 1884084280 -1929179731 -1774429671 -863179863 717160450 708562808 882992696 -1965193537 177049907 -1479839740 171419926 482918373 -410174589 1747644544 1918249309 -482693125 -1216785200 116106695 1382098318 1360007378 1097937710 -1887185112 -951891280 1590117788 -1642320362
REM
CELL 1.54180   50.00000   50.00000   50.00000   90.00000   90.00000   90.00000
LATT -1
SFAC C  
C      1  0.4821440000000  0.4924660000000  0.4891590000000 1.0
C      1  0.4821420000000  0.5076240000000  0.5122270000000 1.0
C      1  0.4587560000000  0.4080700000000  0.5654440000000 1.0
C      1  0.4587350000000  0.5920150000000  0.4359420000000 1.0
C      1  0.4835590000000  0.4402980000000  0.5298600000000 1.0
C      1  0.4835460000000  0.5597920000000  0.4715250000000 1.0
C      1  0.5127450000000  0.5469770000000  0.5295530000000 1.0
C      1  0.5127540000000  0.4531190000000  0.4718310000000 1.0
C      1  0.5603860000000  0.5408630000000  0.5119260000000 1.0
C      1  0.5603940000000  0.4592440000000  0.4894580000000 1.0
C      1  0.4699440000000  0.4441960000000  0.5028750000000 1.0
C      1  0.4699320000000  0.5558910000000  0.4985100000000 1.0
C      1  0.5245610000000  0.5049100000000  0.4613220000000 1.0
C      1  0.5245630000000  0.4951890000000  0.5400620000000 1.0
C      1  0.4497680000000  0.4491450000000  0.4755660000000 1.0
C      1  0.4497570000000  0.5509380000000  0.5258200000000 1.0
C      1  0.4707850000000  0.4237000000000  0.5481870000000 1.0
C      1  0.4707680000000  0.5763870000000  0.4531990000000 1.0
C      1  0.5330520000000  0.5455360000000  0.5081840000000 1.0
C      1  0.5330610000000  0.4545650000000  0.4932010000000 1.0
C      1  0.4405970000000  0.4616460000000  0.5050090000000 1.0
C      1  0.4405880000000  0.5384350000000  0.4963770000000 1.0
C      1  0.4606700000000  0.4546260000000  0.4473810000000 1.0
C      1  0.4606610000000  0.5454600000000  0.5540050000000 1.0
C      1  0.4743190000000  0.4808580000000  0.4450300000000 1.0
C      1  0.4743160000000  0.5192300000000  0.5563550000000 1.0
C      1  0.4763190000000  0.5705850000000  0.5480290000000 1.0
C      1  0.4763320000000  0.4295040000000  0.4533560000000 1.0
C      1  0.4251100000000  0.4879910000000  0.4898010000000 1.0
C      1  0.4251080000000  0.5120870000000  0.5115850000000 1.0
C      1  0.5781120000000  0.5013830000000  0.5434200000000 1.0
C      1  0.5781110000000  0.4987280000000  0.4579630000000 1.0
C      1  0.5078760000000  0.4517130000000  0.5360420000000 1.0
C      1  0.5078650000000  0.5483830000000  0.4653430000000 1.0
C      1  0.5694920000000  0.5153740000000  0.4932120000000 1.0
C      1  0.5694960000000  0.4847340000000  0.5081710000000 1.0
C      1  0.4896480000000  0.5655270000000  0.5241040000000 1.0
C      1  0.4896620000000  0.4345650000000  0.4772810000000 1.0
C      1  0.5228130000000  0.5402920000000  0.5594220000000 1.0
C      1  0.5228200000000  0.4598070000000  0.4419630000000 1.0
C      1  0.5326870000000  0.5028380000000  0.5902700000000 1.0
C      1  0.5326860000000  0.4972630000000  0.4111150000000 1.0
C      1  0.5813060000000  0.5209890000000  0.5249130000000 1.0
C      1  0.5813100000000  0.4791220000000  0.4764700000000 1.0
C      1  0.5010870000000  0.5168470000000  0.5354570000000 1.0
C      1  0.5010900000000  0.4832470000000  0.4659280000000 1.0
C      1  0.5215410000000  0.5280800000000  0.4861980000000 1.0
C      1  0.5215470000000  0.4720180000000  0.5151860000000 1.0
C      1  0.4528500000000  0.4962440000000  0.5502900000000 1.0
C      1  0.4528480000000  0.5038400000000  0.4510960000000 1.0
C      1  0.5269900000000  0.5139690000000  0.5657120000000 1.0
C      1  0.5269910000000  0.4861310000000  0.4356720000000 1.0
C      1  0.5335820000000  0.4576340000000  0.5502710000000 1.0
C      1  0.5335720000000  0.5424670000000  0.4511130000000 1.0
C      1  0.4312280000000  0.4828210000000  0.5286200000000 1.0
C      1  0.4312230000000  0.5172580000000  0.4727670000000 1.0
C      1  0.5543870000000  0.5194990000000  0.4642900000000 1.0
C      1  0.5543920000000  0.4806060000000  0.5370940000000 1.0
C      1  0.4561890000000  0.5118670000000  0.5217820000000 1.0
C      1  0.4561910000000  0.4882170000000  0.4796040000000 1.0
C      1  0.5195870000000  0.5000490000000  0.5006920000000 1.0
END
