TITL C-2782233-7966-153 0.00514662936540444 125000 -470.453157375375 0 0 82 (C1) n - 1
REM
REM in /home/nfs/bkarasulu/CARBON/AIRSS/Generating-Clusters/REBO/Higher-Symm/SD-CG/HFTN-CG
REM
REM
REM
REM
REM
REM ./C.cell (12c818d87b63d06a65506943cc24bca4)
REM
REM compiler GCC version 9.2.1 20190827 (Red Hat 9.2.1-1)
REM options -cpp -mtune=generic -march=x86-64 -g -O0 -fpre-include=/usr/include/finclude/math-vector-fortran.h
REM seed -1518708337 -376596082 1511607883 1786888059 -1237654872 1027473591 67164710 1000543944 1721855939 2005002997 -1987502164 1633074605 -1303148104 -736270546 1848436246 1991245429 640232790 -1306481084 -1244616855 1089365859 1743934955 122914162 535197491 693971764 1053858756 -1157968856 816342933 -1295063374 1566752979 88914203 1689916591 554646018 2046074026
REM
CELL 1.54180   50.00000   50.00000   50.00000   90.00000   90.00000   90.00000
LATT -1
SFAC C  
C      1  0.5138290000000  0.5264020000000  0.4221730000000 1.0
C      1  0.4873060000000  0.5276340000000  0.5829960000000 1.0
C      1  0.4851880000000  0.5218490000000  0.5140450000000 1.0
C      1  0.5107160000000  0.5287510000000  0.4923920000000 1.0
C      1  0.4581190000000  0.5675580000000  0.4993600000000 1.0
C      1  0.5460470000000  0.5758660000000  0.5023560000000 1.0
C      1  0.4551660000000  0.5580070000000  0.5257820000000 1.0
C      1  0.5530800000000  0.5763730000000  0.4744740000000 1.0
C      1  0.4278330000000  0.5253370000000  0.4802630000000 1.0
C      1  0.5710480000000  0.5286370000000  0.5135180000000 1.0
C      1  0.4973380000000  0.5829310000000  0.5303390000000 1.0
C      1  0.5033210000000  0.5799280000000  0.4727850000000 1.0
C      1  0.5009110000000  0.4951690000000  0.5641180000000 1.0
C      1  0.5024940000000  0.4911040000000  0.4428520000000 1.0
C      1  0.5358340000000  0.4295480000000  0.4875390000000 1.0
C      1  0.4643410000000  0.4321500000000  0.5142420000000 1.0
C      1  0.4709150000000  0.5547840000000  0.5697380000000 1.0
C      1  0.5298000000000  0.5524720000000  0.4377890000000 1.0
C      1  0.4838270000000  0.5101510000000  0.4514560000000 1.0
C      1  0.5202120000000  0.5137650000000  0.5520910000000 1.0
C      1  0.5588580000000  0.5003420000000  0.4477900000000 1.0
C      1  0.4429460000000  0.5050750000000  0.5422680000000 1.0
C      1  0.4524250000000  0.4171430000000  0.5424380000000 1.0
C      1  0.5486230000000  0.4141890000000  0.4599500000000 1.0
C      1  0.4975550000000  0.4738540000000  0.4072160000000 1.0
C      1  0.4968980000000  0.4653290000000  0.5898510000000 1.0
C      1  0.4938160000000  0.4983690000000  0.5975240000000 1.0
C      1  0.5085950000000  0.5005490000000  0.4035950000000 1.0
C      1  0.5098490000000  0.5659380000000  0.5545530000000 1.0
C      1  0.4891410000000  0.5643070000000  0.4492040000000 1.0
C      1  0.4879490000000  0.4617720000000  0.4375570000000 1.0
C      1  0.5047600000000  0.4619780000000  0.5579650000000 1.0
C      1  0.5620290000000  0.5357030000000  0.5438120000000 1.0
C      1  0.4419670000000  0.5341200000000  0.4526820000000 1.0
C      1  0.5365010000000  0.4954080000000  0.5116940000000 1.0
C      1  0.4620710000000  0.4915560000000  0.4793710000000 1.0
C      1  0.4461590000000  0.4476070000000  0.5378250000000 1.0
C      1  0.5540920000000  0.4449890000000  0.4634640000000 1.0
C      1  0.4366920000000  0.4723740000000  0.5398980000000 1.0
C      1  0.5634170000000  0.4695360000000  0.4572240000000 1.0
C      1  0.5213560000000  0.4528690000000  0.4177190000000 1.0
C      1  0.4695040000000  0.4545260000000  0.5751580000000 1.0
C      1  0.4938080000000  0.4380700000000  0.5131680000000 1.0
C      1  0.5062530000000  0.4349260000000  0.4879230000000 1.0
C      1  0.4455700000000  0.5528760000000  0.4795680000000 1.0
C      1  0.5578350000000  0.5576660000000  0.5195210000000 1.0
C      1  0.5541260000000  0.3978260000000  0.5208500000000 1.0
C      1  0.4469010000000  0.3991840000000  0.4817270000000 1.0
C      1  0.5286350000000  0.4693940000000  0.5176000000000 1.0
C      1  0.4719700000000  0.4693290000000  0.4667210000000 1.0
C      1  0.4907060000000  0.5463260000000  0.4324360000000 1.0
C      1  0.5101220000000  0.5475320000000  0.5709790000000 1.0
C      1  0.4594830000000  0.5012560000000  0.5942110000000 1.0
C      1  0.5411970000000  0.4998360000000  0.4108060000000 1.0
C      1  0.5284750000000  0.4802470000000  0.4315570000000 1.0
C      1  0.4688640000000  0.4850060000000  0.5696570000000 1.0
C      1  0.5613260000000  0.4655280000000  0.5479700000000 1.0
C      1  0.4354950000000  0.4643260000000  0.4512610000000 1.0
C      1  0.5480060000000  0.5151780000000  0.5584520000000 1.0
C      1  0.4569850000000  0.5122140000000  0.4409570000000 1.0
C      1  0.5700150000000  0.4942920000000  0.4769730000000 1.0
C      1  0.4293740000000  0.4914020000000  0.5156400000000 1.0
C      1  0.5604480000000  0.4896050000000  0.5603610000000 1.0
C      1  0.4429120000000  0.4873450000000  0.4386780000000 1.0
C      1  0.4362790000000  0.4995460000000  0.4899270000000 1.0
C      1  0.5610680000000  0.5051100000000  0.5012350000000 1.0
C      1  0.5568780000000  0.4447540000000  0.5314990000000 1.0
C      1  0.4402010000000  0.4453060000000  0.4700670000000 1.0
C      1  0.4619090000000  0.5288270000000  0.5299290000000 1.0
C      1  0.5295120000000  0.5334800000000  0.4729520000000 1.0
C      1  0.4835970000000  0.5830470000000  0.4990170000000 1.0
C      1  0.5172550000000  0.5834830000000  0.5038130000000 1.0
C      1  0.5166440000000  0.5166440000000  0.5228040000000 1.0
C      1  0.4830090000000  0.5148560000000  0.4821470000000 1.0
C      1  0.5085960000000  0.4543280000000  0.5311380000000 1.0
C      1  0.4934870000000  0.4461090000000  0.4666870000000 1.0
C      1  0.5389370000000  0.5211350000000  0.4445490000000 1.0
C      1  0.4604370000000  0.5234600000000  0.5631120000000 1.0
C      1  0.4501450000000  0.4260940000000  0.4880690000000 1.0
C      1  0.5492800000000  0.4243030000000  0.5139960000000 1.0
C      1  0.4710850000000  0.5712130000000  0.5461770000000 1.0
C      1  0.5306480000000  0.5729920000000  0.4568040000000 1.0
END
