TITL C-2782240-8521-1314 -0.034083526462375 125000 -293.594071083213 0 0 53 (C1) n - 1
REM
REM in /home/nfs/bkarasulu/CARBON/AIRSS/Generating-Clusters/REBO/Higher-Symm/SD-CG/HFTN-CG
REM
REM
REM
REM
REM
REM ./C.cell (12c818d87b63d06a65506943cc24bca4)
REM
REM compiler GCC version 9.2.1 20190827 (Red Hat 9.2.1-1)
REM options -cpp -mtune=generic -march=x86-64 -g -O0 -fpre-include=/usr/include/finclude/math-vector-fortran.h
REM seed 350299183 -555222199 -2038181683 354425755 -315468095 -1318167490 -66805024 1320993336 -1121888196 1195375418 195462217 -361497056 -2111960461 -1514169161 -1729566867 -123666307 1402970783 -1845098085 1108711424 1921139341 -1175939921 157200534 -260167451 -457374203 -1496878149 991122337 -949559128 1155994799 1501089278 -1887303580 -2136046048 582541507 -386265673
REM
CELL 1.54180   50.00000   50.00000   50.00000   90.00000   90.00000   90.00000
LATT -1
SFAC C  
C      1  0.5549520000000  0.4914510000000  0.4849600000000 1.0
C      1  0.4425400000000  0.5092210000000  0.4730630000000 1.0
C      1  0.5427710000000  0.4924120000000  0.5244440000000 1.0
C      1  0.4547620000000  0.5117390000000  0.5284910000000 1.0
C      1  0.5570470000000  0.5195640000000  0.4726670000000 1.0
C      1  0.4404590000000  0.4788680000000  0.4752870000000 1.0
C      1  0.5444610000000  0.5217300000000  0.5259180000000 1.0
C      1  0.4507200000000  0.4824020000000  0.5304130000000 1.0
C      1  0.5137210000000  0.4815410000000  0.5144660000000 1.0
C      1  0.4771560000000  0.5216170000000  0.5108580000000 1.0
C      1  0.5272310000000  0.4821510000000  0.4854210000000 1.0
C      1  0.4696320000000  0.5180290000000  0.4805030000000 1.0
C      1  0.5098730000000  0.5221130000000  0.5136680000000 1.0
C      1  0.4840840000000  0.4824820000000  0.5153480000000 1.0
C      1  0.5250210000000  0.5217650000000  0.4841090000000 1.0
C      1  0.4718370000000  0.4787090000000  0.4864170000000 1.0
C      1  0.4249830000000  0.4717860000000  0.5206640000000 1.0
C      1  0.5691560000000  0.5350100000000  0.5163700000000 1.0
C      1  0.4390570000000  0.4629530000000  0.4471640000000 1.0
C      1  0.5651740000000  0.5199180000000  0.4459100000000 1.0
C      1  0.4377850000000  0.5287570000000  0.5403170000000 1.0
C      1  0.5624710000000  0.4754030000000  0.5304730000000 1.0
C      1  0.4227690000000  0.5248490000000  0.4655570000000 1.0
C      1  0.5759890000000  0.4777730000000  0.4929050000000 1.0
C      1  0.5226840000000  0.4593680000000  0.4653090000000 1.0
C      1  0.4804630000000  0.5413900000000  0.4628240000000 1.0
C      1  0.5267080000000  0.4572890000000  0.5344450000000 1.0
C      1  0.4753660000000  0.5414110000000  0.5455040000000 1.0
C      1  0.5324690000000  0.5421440000000  0.4506900000000 1.0
C      1  0.4680110000000  0.4616510000000  0.4506280000000 1.0
C      1  0.5226760000000  0.5423980000000  0.5370970000000 1.0
C      1  0.4727470000000  0.4602750000000  0.5376650000000 1.0
C      1  0.4826400000000  0.5538370000000  0.5158400000000 1.0
C      1  0.5142010000000  0.4396370000000  0.5126420000000 1.0
C      1  0.4929580000000  0.5605650000000  0.4840070000000 1.0
C      1  0.5083000000000  0.4400810000000  0.4809500000000 1.0
C      1  0.4834410000000  0.4427910000000  0.5117330000000 1.0
C      1  0.5143150000000  0.5618060000000  0.5114440000000 1.0
C      1  0.4769990000000  0.4468090000000  0.4784980000000 1.0
C      1  0.5253310000000  0.5550830000000  0.4799520000000 1.0
C      1  0.4845680000000  0.5160230000000  0.5547760000000 1.0
C      1  0.5188800000000  0.4802150000000  0.5540050000000 1.0
C      1  0.4905590000000  0.5160540000000  0.4465830000000 1.0
C      1  0.5143990000000  0.4841520000000  0.4476630000000 1.0
C      1  0.4879610000000  0.4844020000000  0.5550180000000 1.0
C      1  0.5156450000000  0.5125620000000  0.5520330000000 1.0
C      1  0.4832020000000  0.4849840000000  0.4443230000000 1.0
C      1  0.5215520000000  0.5163530000000  0.4446310000000 1.0
C      1  0.4202090000000  0.4693080000000  0.4961160000000 1.0
C      1  0.5743760000000  0.5366050000000  0.4917140000000 1.0
C      1  0.4211770000000  0.5454050000000  0.5518860000000 1.0
C      1  0.5817950000000  0.4587180000000  0.5363870000000 1.0
C      1  0.4984410000000  0.5001000000000  0.4825550000000 1.0
END
