TITL C-2782240-8521-516 -0.00516955985736751 125000 -221.502975415512 0 0 40 (C3) n - 1
REM
REM in /home/nfs/bkarasulu/CARBON/AIRSS/Generating-Clusters/REBO/Higher-Symm/SD-CG/HFTN-CG
REM
REM
REM
REM
REM
REM ./C.cell (12c818d87b63d06a65506943cc24bca4)
REM
REM compiler GCC version 9.2.1 20190827 (Red Hat 9.2.1-1)
REM options -cpp -mtune=generic -march=x86-64 -g -O0 -fpre-include=/usr/include/finclude/math-vector-fortran.h
REM seed 504484759 -1860864825 -971054719 -866726264 -19241155 -152402437 787030791 1651626011 221194880 -2067815071 637015617 -1275289602 -573840614 1725024961 1784460664 1185893271 -970635685 -1914011777 -1963477356 242509405 1699301768 341492797 1499708600 1707742211 1504076968 1901159431 1512557041 -1876533282 1807940526 -860921870 855632606 1243501986 1113178866
REM
CELL 1.54180   50.00000   50.00000   50.00000   90.00000   90.00000   90.00000
LATT -1
SFAC C  
C      1  0.5553890000000  0.5347650000000  0.5106610000000 1.0
C      1  0.5553810000000  0.4753250000000  0.5255950000000 1.0
C      1  0.5553720000000  0.4921120000000  0.4666520000000 1.0
C      1  0.4809170000000  0.4689720000000  0.5395190000000 1.0
C      1  0.4809020000000  0.4832630000000  0.4541980000000 1.0
C      1  0.4809250000000  0.5500070000000  0.5092350000000 1.0
C      1  0.4544660000000  0.4797340000000  0.5253840000000 1.0
C      1  0.4544570000000  0.4901350000000  0.4705910000000 1.0
C      1  0.4544720000000  0.5323870000000  0.5069940000000 1.0
C      1  0.5326030000000  0.4768050000000  0.5468390000000 1.0
C      1  0.5325840000000  0.4729840000000  0.4573150000000 1.0
C      1  0.5326070000000  0.5524250000000  0.4987680000000 1.0
C      1  0.4529450000000  0.4697790000000  0.4972970000000 1.0
C      1  0.4529490000000  0.5194370000000  0.4760130000000 1.0
C      1  0.4529590000000  0.5130410000000  0.5296590000000 1.0
C      1  0.4766350000000  0.5315980000000  0.4621490000000 1.0
C      1  0.4766500000000  0.5189560000000  0.5471200000000 1.0
C      1  0.4766270000000  0.4516900000000  0.4936860000000 1.0
C      1  0.5168970000000  0.4401250000000  0.5110390000000 1.0
C      1  0.5168980000000  0.5223340000000  0.4434510000000 1.0
C      1  0.5169220000000  0.5397630000000  0.5484400000000 1.0
C      1  0.5112090000000  0.4603020000000  0.5496560000000 1.0
C      1  0.5111910000000  0.4788060000000  0.4416170000000 1.0
C      1  0.5112200000000  0.5631180000000  0.5116610000000 1.0
C      1  0.4286560000000  0.4920020000000  0.5407790000000 1.0
C      1  0.4286390000000  0.4706800000000  0.4735200000000 1.0
C      1  0.4286540000000  0.5395880000000  0.4886850000000 1.0
C      1  0.4945560000000  0.5468220000000  0.4792000000000 1.0
C      1  0.4945620000000  0.4965690000000  0.5517760000000 1.0
C      1  0.4945390000000  0.4588430000000  0.4719680000000 1.0
C      1  0.5262220000000  0.5413950000000  0.4680330000000 1.0
C      1  0.5262330000000  0.5089400000000  0.5526550000000 1.0
C      1  0.5262090000000  0.4518830000000  0.4822370000000 1.0
C      1  0.5502670000000  0.5229200000000  0.4788240000000 1.0
C      1  0.5502750000000  0.5088210000000  0.5312560000000 1.0
C      1  0.5502600000000  0.4704630000000  0.4928310000000 1.0
C      1  0.4911170000000  0.4472720000000  0.5176530000000 1.0
C      1  0.4911150000000  0.5130450000000  0.4463370000000 1.0
C      1  0.4911390000000  0.5419190000000  0.5389560000000 1.0
C      1  0.5399660000000  0.5007370000000  0.5009720000000 1.0
END
