TITL C-2782232-2968-1185 -0.00192766004608041 125000 -678.169744568051 0 0 117 (C1) n - 1
REM
REM in /home/nfs/bkarasulu/CARBON/AIRSS/Generating-Clusters/REBO/Higher-Symm/SD-CG/HFTN-CG
REM
REM
REM
REM
REM
REM ./C.cell (12c818d87b63d06a65506943cc24bca4)
REM
REM compiler GCC version 9.2.1 20190827 (Red Hat 9.2.1-1)
REM options -cpp -mtune=generic -march=x86-64 -g -O0 -fpre-include=/usr/include/finclude/math-vector-fortran.h
REM seed 1355680557 1361973854 -1850317764 400698667 1206438362 -601819072 -1117014965 -542832684 1041339256 243405108 -1890835541 -1971171688 -1188239985 1809450106 1868439242 -1107975534 -2054213510 389881233 403212021 -830851301 -280781247 -1118963724 286826302 -799379813 834376252 1914925940 -11209345 -1914020239 425466067 526430464 767559582 -1630145524 2034307234
REM
CELL 1.54180   50.00000   50.00000   50.00000   90.00000   90.00000   90.00000
LATT -1
SFAC C  
C      1  0.4899520000000  0.5020670000000  0.4630420000000 1.0
C      1  0.4821900000000  0.5495410000000  0.4955830000000 1.0
C      1  0.4838230000000  0.5146380000000  0.5240720000000 1.0
C      1  0.4818510000000  0.4699150000000  0.5308350000000 1.0
C      1  0.4880840000000  0.4663330000000  0.4845980000000 1.0
C      1  0.4309710000000  0.5642920000000  0.4875930000000 1.0
C      1  0.4379180000000  0.5357070000000  0.5444980000000 1.0
C      1  0.4359030000000  0.4570490000000  0.5527810000000 1.0
C      1  0.4374800000000  0.4389470000000  0.4744750000000 1.0
C      1  0.4421900000000  0.4995460000000  0.4488070000000 1.0
C      1  0.4709770000000  0.5404760000000  0.4389490000000 1.0
C      1  0.4750630000000  0.5885680000000  0.5296490000000 1.0
C      1  0.4685140000000  0.5092740000000  0.5791130000000 1.0
C      1  0.4715030000000  0.4246710000000  0.5322560000000 1.0
C      1  0.4705980000000  0.4442520000000  0.4394640000000 1.0
C      1  0.4931090000000  0.5658730000000  0.4396160000000 1.0
C      1  0.5007470000000  0.5866630000000  0.5414370000000 1.0
C      1  0.4845650000000  0.4929670000000  0.6045690000000 1.0
C      1  0.4935780000000  0.4047970000000  0.5157460000000 1.0
C      1  0.4888360000000  0.4544770000000  0.4136380000000 1.0
C      1  0.3933500000000  0.5307450000000  0.5081370000000 1.0
C      1  0.4137020000000  0.5141860000000  0.5378460000000 1.0
C      1  0.4153570000000  0.4582080000000  0.5261160000000 1.0
C      1  0.4159550000000  0.4643870000000  0.4668350000000 1.0
C      1  0.4089080000000  0.5118760000000  0.4765980000000 1.0
C      1  0.5376150000000  0.4502160000000  0.4326240000000 1.0
C      1  0.5400110000000  0.5416050000000  0.4419720000000 1.0
C      1  0.5538100000000  0.5853860000000  0.5206740000000 1.0
C      1  0.5286530000000  0.5013220000000  0.5749730000000 1.0
C      1  0.5401040000000  0.4291810000000  0.5258550000000 1.0
C      1  0.5175610000000  0.5559630000000  0.4566080000000 1.0
C      1  0.5102710000000  0.5613640000000  0.5440080000000 1.0
C      1  0.5017370000000  0.4875050000000  0.5765810000000 1.0
C      1  0.5169600000000  0.4238000000000  0.5060970000000 1.0
C      1  0.5134540000000  0.4686660000000  0.4255680000000 1.0
C      1  0.4543160000000  0.5218790000000  0.5186730000000 1.0
C      1  0.4508720000000  0.4763150000000  0.5290430000000 1.0
C      1  0.4540610000000  0.4660420000000  0.4859210000000 1.0
C      1  0.4594790000000  0.5081460000000  0.4728000000000 1.0
C      1  0.4552010000000  0.5377060000000  0.4822590000000 1.0
C      1  0.4759070000000  0.4327870000000  0.5609880000000 1.0
C      1  0.4756420000000  0.4197350000000  0.4554420000000 1.0
C      1  0.4732210000000  0.5183830000000  0.4194300000000 1.0
C      1  0.4783270000000  0.5819800000000  0.4997770000000 1.0
C      1  0.4721540000000  0.5397680000000  0.5772880000000 1.0
C      1  0.4898670000000  0.4439980000000  0.5107350000000 1.0
C      1  0.4898380000000  0.4702600000000  0.4503530000000 1.0
C      1  0.4915690000000  0.5360230000000  0.4659270000000 1.0
C      1  0.5031860000000  0.5409610000000  0.5208280000000 1.0
C      1  0.4818720000000  0.4970930000000  0.5515090000000 1.0
C      1  0.5026990000000  0.4321260000000  0.5688320000000 1.0
C      1  0.5022560000000  0.4128020000000  0.4574660000000 1.0
C      1  0.4986100000000  0.5154900000000  0.4092160000000 1.0
C      1  0.5044070000000  0.5944330000000  0.4893800000000 1.0
C      1  0.4986760000000  0.5480280000000  0.5819050000000 1.0
C      1  0.4562720000000  0.4963010000000  0.4247690000000 1.0
C      1  0.4556370000000  0.5775260000000  0.4785420000000 1.0
C      1  0.4540190000000  0.5535050000000  0.5605620000000 1.0
C      1  0.4582700000000  0.4524540000000  0.5711730000000 1.0
C      1  0.4569840000000  0.4169570000000  0.4761800000000 1.0
C      1  0.5697080000000  0.5263310000000  0.5653340000000 1.0
C      1  0.5687000000000  0.4539210000000  0.5387440000000 1.0
C      1  0.5750520000000  0.4489700000000  0.4761700000000 1.0
C      1  0.5727140000000  0.5024880000000  0.4259520000000 1.0
C      1  0.5763810000000  0.5511970000000  0.4827060000000 1.0
C      1  0.5534860000000  0.4976730000000  0.4073240000000 1.0
C      1  0.5603510000000  0.5707320000000  0.4724630000000 1.0
C      1  0.5571730000000  0.5503170000000  0.5561100000000 1.0
C      1  0.5486260000000  0.4513780000000  0.5580180000000 1.0
C      1  0.5585510000000  0.4273030000000  0.4773110000000 1.0
C      1  0.4231100000000  0.4568570000000  0.4989730000000 1.0
C      1  0.4167850000000  0.4912200000000  0.4581640000000 1.0
C      1  0.4220330000000  0.5367920000000  0.4743800000000 1.0
C      1  0.4236070000000  0.5390640000000  0.5142500000000 1.0
C      1  0.4214540000000  0.4862330000000  0.5439290000000 1.0
C      1  0.5216150000000  0.4583260000000  0.4859700000000 1.0
C      1  0.5217150000000  0.4901720000000  0.4618860000000 1.0
C      1  0.5394170000000  0.5244080000000  0.4890620000000 1.0
C      1  0.5337960000000  0.5409720000000  0.5110620000000 1.0
C      1  0.5123110000000  0.4743470000000  0.5403600000000 1.0
C      1  0.5271510000000  0.5246870000000  0.4211060000000 1.0
C      1  0.5312090000000  0.5901340000000  0.5058970000000 1.0
C      1  0.5255780000000  0.5308230000000  0.5901160000000 1.0
C      1  0.5296460000000  0.4255390000000  0.5559110000000 1.0
C      1  0.5290780000000  0.4255460000000  0.4461430000000 1.0
C      1  0.5291820000000  0.5544780000000  0.5675530000000 1.0
C      1  0.5180810000000  0.4608340000000  0.5696380000000 1.0
C      1  0.5273490000000  0.4189920000000  0.4791310000000 1.0
C      1  0.5220610000000  0.4927590000000  0.4114820000000 1.0
C      1  0.5290460000000  0.5762010000000  0.4751510000000 1.0
C      1  0.4614240000000  0.4695770000000  0.4181930000000 1.0
C      1  0.4645630000000  0.5706590000000  0.4533590000000 1.0
C      1  0.4557480000000  0.5791380000000  0.5481700000000 1.0
C      1  0.4647740000000  0.4752950000000  0.5852820000000 1.0
C      1  0.4652550000000  0.4102030000000  0.5017190000000 1.0
C      1  0.5686990000000  0.5053950000000  0.5443840000000 1.0
C      1  0.5678770000000  0.4790240000000  0.5189620000000 1.0
C      1  0.5685320000000  0.4748100000000  0.4669540000000 1.0
C      1  0.5697090000000  0.5030280000000  0.4543680000000 1.0
C      1  0.5733780000000  0.5377750000000  0.5062710000000 1.0
C      1  0.5449560000000  0.4566910000000  0.5067700000000 1.0
C      1  0.5420880000000  0.4741830000000  0.4527950000000 1.0
C      1  0.5532840000000  0.5243560000000  0.4641790000000 1.0
C      1  0.5570600000000  0.5559040000000  0.5268780000000 1.0
C      1  0.5398870000000  0.4940860000000  0.5457370000000 1.0
C      1  0.5552900000000  0.5165370000000  0.5887480000000 1.0
C      1  0.5741160000000  0.4283400000000  0.5243360000000 1.0
C      1  0.5570600000000  0.4468760000000  0.4127950000000 1.0
C      1  0.5587020000000  0.5597670000000  0.4306950000000 1.0
C      1  0.5713040000000  0.6040100000000  0.5309760000000 1.0
C      1  0.6105450000000  0.5063050000000  0.5115420000000 1.0
C      1  0.5299770000000  0.4837530000000  0.5155860000000 1.0
C      1  0.5225200000000  0.5003690000000  0.4911160000000 1.0
C      1  0.4447330000000  0.4949910000000  0.5011950000000 1.0
C      1  0.4933960000000  0.4951060000000  0.5020420000000 1.0
C      1  0.4117340000000  0.5017220000000  0.5062460000000 1.0
C      1  0.5827930000000  0.5094580000000  0.5155410000000 1.0
END
