TITL C-2782227-3064-236 0.521669234713906 125000 -964.639487641448 0 0 164 (C1) n - 1
REM
REM in /home/nfs/bkarasulu/CARBON/AIRSS/Generating-Clusters/REBO/Higher-Symm/SD-CG/HFTN-CG
REM
REM
REM
REM
REM
REM ./C.cell (12c818d87b63d06a65506943cc24bca4)
REM
REM compiler GCC version 9.2.1 20190827 (Red Hat 9.2.1-1)
REM options -cpp -mtune=generic -march=x86-64 -g -O0 -fpre-include=/usr/include/finclude/math-vector-fortran.h
REM seed 1501903208 -1714943185 -640152095 -451103090 2099716057 -454904087 875190814 951706044 1920939432 -1636759625 333629504 -1036016173 1334651951 409121556 1143144325 -1757416308 -1419430806 -1609758936 1579048013 2025266846 -2126682992 1418770432 -173517568 -1871416196 1130806704 -1067040002 1871909332 -1116907132 947712274 1758511652 -1403629372 1976321667 -2036128936
REM
CELL 1.54180   50.00000   50.00000   50.00000   90.00000   90.00000   90.00000
LATT -1
SFAC C  
C      1  0.5392900000000  0.5208480000000  0.4777950000000 1.0
C      1  0.5081890000000  0.5688940000000  0.4721550000000 1.0
C      1  0.4357990000000  0.5133940000000  0.4242780000000 1.0
C      1  0.5717210000000  0.5209140000000  0.5558440000000 1.0
C      1  0.4716200000000  0.4572860000000  0.4646190000000 1.0
C      1  0.4438050000000  0.5058560000000  0.5016700000000 1.0
C      1  0.4778380000000  0.5071900000000  0.4702090000000 1.0
C      1  0.4420980000000  0.5420390000000  0.5639360000000 1.0
C      1  0.4988420000000  0.5245110000000  0.5419260000000 1.0
C      1  0.4868410000000  0.4436850000000  0.5367350000000 1.0
C      1  0.5222500000000  0.5618950000000  0.5159020000000 1.0
C      1  0.5819950000000  0.4771830000000  0.5369310000000 1.0
C      1  0.5417970000000  0.4394760000000  0.5392690000000 1.0
C      1  0.4845720000000  0.4947060000000  0.6074860000000 1.0
C      1  0.4424340000000  0.4866390000000  0.5848390000000 1.0
C      1  0.3990290000000  0.4919480000000  0.5188060000000 1.0
C      1  0.5314130000000  0.5668030000000  0.4893120000000 1.0
C      1  0.4039530000000  0.5391910000000  0.4791140000000 1.0
C      1  0.5002770000000  0.4242190000000  0.5881980000000 1.0
C      1  0.3841160000000  0.4911500000000  0.4956680000000 1.0
C      1  0.4923260000000  0.3889460000000  0.5149050000000 1.0
C      1  0.5584150000000  0.4953650000000  0.4180800000000 1.0
C      1  0.5714720000000  0.4744050000000  0.4600520000000 1.0
C      1  0.6019460000000  0.4889410000000  0.4658050000000 1.0
C      1  0.5055970000000  0.5321800000000  0.4348200000000 1.0
C      1  0.5463910000000  0.4352670000000  0.5720060000000 1.0
C      1  0.4921630000000  0.4695810000000  0.5773590000000 1.0
C      1  0.4178140000000  0.4680340000000  0.5291500000000 1.0
C      1  0.5743950000000  0.4368110000000  0.5646290000000 1.0
C      1  0.4715720000000  0.4791410000000  0.4421850000000 1.0
C      1  0.5136370000000  0.6116380000000  0.4732320000000 1.0
C      1  0.4578700000000  0.5793220000000  0.4721030000000 1.0
C      1  0.5167300000000  0.4883390000000  0.4830930000000 1.0
C      1  0.5446610000000  0.4085420000000  0.5144730000000 1.0
C      1  0.4885700000000  0.4426190000000  0.6066370000000 1.0
C      1  0.4540580000000  0.4111190000000  0.4582030000000 1.0
C      1  0.5043580000000  0.3891600000000  0.4863920000000 1.0
C      1  0.4605310000000  0.5474400000000  0.4755680000000 1.0
C      1  0.5286670000000  0.5137470000000  0.5290700000000 1.0
C      1  0.5274720000000  0.4207610000000  0.4303460000000 1.0
C      1  0.4173560000000  0.4485800000000  0.4471500000000 1.0
C      1  0.4918350000000  0.4651650000000  0.4869800000000 1.0
C      1  0.4160150000000  0.4973830000000  0.5734410000000 1.0
C      1  0.5930340000000  0.5605960000000  0.4668860000000 1.0
C      1  0.5096960000000  0.5213580000000  0.4880700000000 1.0
C      1  0.5389270000000  0.6064610000000  0.4818770000000 1.0
C      1  0.4506810000000  0.5440960000000  0.4244120000000 1.0
C      1  0.4917800000000  0.5399510000000  0.4646700000000 1.0
C      1  0.4752830000000  0.5749050000000  0.5453520000000 1.0
C      1  0.4224810000000  0.4761980000000  0.4294760000000 1.0
C      1  0.4843190000000  0.4124790000000  0.5656280000000 1.0
C      1  0.4497000000000  0.4164560000000  0.5331760000000 1.0
C      1  0.4991280000000  0.4930830000000  0.4477560000000 1.0
C      1  0.5461370000000  0.4408660000000  0.4296560000000 1.0
C      1  0.4660040000000  0.5310740000000  0.5800410000000 1.0
C      1  0.5789760000000  0.5350390000000  0.5288120000000 1.0
C      1  0.5767300000000  0.5282480000000  0.4895240000000 1.0
C      1  0.4453020000000  0.5856930000000  0.5026090000000 1.0
C      1  0.4729300000000  0.5983730000000  0.5034130000000 1.0
C      1  0.4883150000000  0.5955770000000  0.5263520000000 1.0
C      1  0.5056670000000  0.4887500000000  0.5257930000000 1.0
C      1  0.4425040000000  0.5693680000000  0.4453610000000 1.0
C      1  0.5140100000000  0.5838750000000  0.5744600000000 1.0
C      1  0.4534750000000  0.5384220000000  0.5039170000000 1.0
C      1  0.5186250000000  0.5857690000000  0.4365580000000 1.0
C      1  0.5448380000000  0.5770050000000  0.4434000000000 1.0
C      1  0.5329510000000  0.5003620000000  0.5573230000000 1.0
C      1  0.4259670000000  0.4674580000000  0.5606990000000 1.0
C      1  0.4972570000000  0.5725850000000  0.4238080000000 1.0
C      1  0.5771850000000  0.5783480000000  0.4823080000000 1.0
C      1  0.4418260000000  0.4305120000000  0.4418360000000 1.0
C      1  0.4290380000000  0.4307240000000  0.5204310000000 1.0
C      1  0.4649510000000  0.4549300000000  0.5917480000000 1.0
C      1  0.6047560000000  0.4929150000000  0.5195630000000 1.0
C      1  0.5394650000000  0.4564000000000  0.4757120000000 1.0
C      1  0.4214690000000  0.5212330000000  0.5599860000000 1.0
C      1  0.5809160000000  0.4470480000000  0.5398790000000 1.0
C      1  0.4293060000000  0.5069840000000  0.4752390000000 1.0
C      1  0.4323460000000  0.5679840000000  0.5203560000000 1.0
C      1  0.5625940000000  0.4435380000000  0.4548990000000 1.0
C      1  0.4743410000000  0.5493140000000  0.5227350000000 1.0
C      1  0.4992770000000  0.4033860000000  0.5437080000000 1.0
C      1  0.4877030000000  0.5935020000000  0.4751330000000 1.0
C      1  0.5514140000000  0.5478350000000  0.4824310000000 1.0
C      1  0.5648300000000  0.5699120000000  0.5596960000000 1.0
C      1  0.4493910000000  0.4854580000000  0.4096280000000 1.0
C      1  0.5650870000000  0.4327600000000  0.5153170000000 1.0
C      1  0.5240120000000  0.4633120000000  0.5260290000000 1.0
C      1  0.4804100000000  0.5568200000000  0.5923310000000 1.0
C      1  0.4977890000000  0.5380390000000  0.5691080000000 1.0
C      1  0.4483790000000  0.4787500000000  0.5186420000000 1.0
C      1  0.5554450000000  0.5165040000000  0.5140850000000 1.0
C      1  0.5089170000000  0.4440010000000  0.5623020000000 1.0
C      1  0.4821810000000  0.4946110000000  0.5015500000000 1.0
C      1  0.4775310000000  0.4884260000000  0.3952950000000 1.0
C      1  0.4768970000000  0.4194250000000  0.5147690000000 1.0
C      1  0.5706770000000  0.5820000000000  0.5103380000000 1.0
C      1  0.4864740000000  0.4886980000000  0.5542420000000 1.0
C      1  0.4718760000000  0.5087070000000  0.5308110000000 1.0
C      1  0.5551220000000  0.5495710000000  0.4289200000000 1.0
C      1  0.5083270000000  0.4775610000000  0.4044550000000 1.0
C      1  0.4753250000000  0.5610500000000  0.4411190000000 1.0
C      1  0.4444330000000  0.4516700000000  0.5042490000000 1.0
C      1  0.4610540000000  0.4166230000000  0.4849320000000 1.0
C      1  0.3956770000000  0.5080170000000  0.4726590000000 1.0
C      1  0.5542390000000  0.5417250000000  0.5755710000000 1.0
C      1  0.4511060000000  0.4578560000000  0.4284310000000 1.0
C      1  0.5721060000000  0.5198310000000  0.4311570000000 1.0
C      1  0.5689360000000  0.4458570000000  0.4884690000000 1.0
C      1  0.4890600000000  0.4542380000000  0.4163360000000 1.0
C      1  0.5066330000000  0.5565900000000  0.4032560000000 1.0
C      1  0.5530270000000  0.4786190000000  0.5837800000000 1.0
C      1  0.4655070000000  0.3623960000000  0.4373960000000 1.0
C      1  0.4194080000000  0.5418140000000  0.5057890000000 1.0
C      1  0.5440940000000  0.5115620000000  0.5828310000000 1.0
C      1  0.5752840000000  0.5644290000000  0.5316820000000 1.0
C      1  0.4864140000000  0.5793050000000  0.5735620000000 1.0
C      1  0.5028290000000  0.5396010000000  0.5134620000000 1.0
C      1  0.6018520000000  0.5227310000000  0.5104870000000 1.0
C      1  0.5450990000000  0.6041500000000  0.5125040000000 1.0
C      1  0.4800330000000  0.5288410000000  0.4184080000000 1.0
C      1  0.5530100000000  0.3835730000000  0.5114540000000 1.0
C      1  0.4116310000000  0.5168890000000  0.5226670000000 1.0
C      1  0.4635750000000  0.5033950000000  0.5924470000000 1.0
C      1  0.4451080000000  0.5633970000000  0.5456480000000 1.0
C      1  0.5279080000000  0.4562080000000  0.5888060000000 1.0
C      1  0.4858760000000  0.4418730000000  0.4404630000000 1.0
C      1  0.5498160000000  0.4992860000000  0.4569040000000 1.0
C      1  0.4466120000000  0.4449230000000  0.5729270000000 1.0
C      1  0.5487850000000  0.5920850000000  0.5428640000000 1.0
C      1  0.5010880000000  0.4375730000000  0.4970860000000 1.0
C      1  0.5290750000000  0.5045920000000  0.4045600000000 1.0
C      1  0.4639140000000  0.5096990000000  0.4392770000000 1.0
C      1  0.4050910000000  0.4465490000000  0.5058140000000 1.0
C      1  0.5220180000000  0.4708160000000  0.4538630000000 1.0
C      1  0.5398210000000  0.4699660000000  0.5535540000000 1.0
C      1  0.4448590000000  0.4519220000000  0.4754860000000 1.0
C      1  0.5262560000000  0.5071360000000  0.4382550000000 1.0
C      1  0.4152670000000  0.5533380000000  0.4543770000000 1.0
C      1  0.4386220000000  0.5328160000000  0.4604910000000 1.0
C      1  0.5166030000000  0.4164530000000  0.5184870000000 1.0
C      1  0.5057870000000  0.4703440000000  0.6089670000000 1.0
C      1  0.5047630000000  0.4221390000000  0.4475350000000 1.0
C      1  0.4568450000000  0.4212940000000  0.5601450000000 1.0
C      1  0.5264700000000  0.5544180000000  0.5679460000000 1.0
C      1  0.5556520000000  0.5893320000000  0.4665000000000 1.0
C      1  0.4819520000000  0.5162720000000  0.3908770000000 1.0
C      1  0.5663090000000  0.4868600000000  0.5103790000000 1.0
C      1  0.5144270000000  0.6031870000000  0.5260060000000 1.0
C      1  0.5804830000000  0.5130590000000  0.4631180000000 1.0
C      1  0.4422440000000  0.5152090000000  0.5344270000000 1.0
C      1  0.5357300000000  0.4704600000000  0.4235470000000 1.0
C      1  0.5309440000000  0.5373950000000  0.4127470000000 1.0
C      1  0.5860120000000  0.4733110000000  0.4904560000000 1.0
C      1  0.5297200000000  0.5693550000000  0.5408050000000 1.0
C      1  0.4125150000000  0.4504460000000  0.4775590000000 1.0
C      1  0.5058400000000  0.4142740000000  0.4747870000000 1.0
C      1  0.5853430000000  0.5479980000000  0.4445030000000 1.0
C      1  0.5389280000000  0.4747400000000  0.5022430000000 1.0
C      1  0.5722270000000  0.4938950000000  0.5601880000000 1.0
C      1  0.4599710000000  0.3859540000000  0.4474560000000 1.0
C      1  0.6274770000000  0.5378760000000  0.5055940000000 1.0
C      1  0.4730570000000  0.4674220000000  0.5346130000000 1.0
C      1  0.4138730000000  0.5018010000000  0.4452100000000 1.0
END
