TITL C-2782239-8622-331 -0.00360700511443034 125000 -1118.64740531863 0 0 194 (C1) n - 1
REM
REM in /home/nfs/bkarasulu/CARBON/AIRSS/Generating-Clusters/REBO/Higher-Symm/SD-CG/HFTN-CG
REM
REM
REM
REM
REM
REM ./C.cell (12c818d87b63d06a65506943cc24bca4)
REM
REM compiler GCC version 9.2.1 20190827 (Red Hat 9.2.1-1)
REM options -cpp -mtune=generic -march=x86-64 -g -O0 -fpre-include=/usr/include/finclude/math-vector-fortran.h
REM seed -1459021379 1373009770 -1116035839 344044105 -687377605 889179034 1747174609 1137811779 175811328 1161524242 -358892294 503762495 1826566640 -1423352516 -162931231 -524388735 -59850395 880524283 1501067964 258165424 -87339440 -1042375550 -337005633 1105678772 -1160272202 1516983071 -121513039 -1980543306 459455078 1431836176 -372979606 591151872 -1677131328
REM
CELL 1.54180   50.00000   50.00000   50.00000   90.00000   90.00000   90.00000
LATT -1
SFAC C  
C      1  0.5403660000000  0.5311880000000  0.4150880000000 1.0
C      1  0.5402440000000  0.4120640000000  0.4681630000000 1.0
C      1  0.5470900000000  0.4667150000000  0.5942470000000 1.0
C      1  0.5474090000000  0.5943700000000  0.5336540000000 1.0
C      1  0.4576360000000  0.5319510000000  0.5914850000000 1.0
C      1  0.4525380000000  0.4072290000000  0.5317130000000 1.0
C      1  0.4578400000000  0.4651540000000  0.4087760000000 1.0
C      1  0.4582090000000  0.5885590000000  0.4673110000000 1.0
C      1  0.5282560000000  0.5979050000000  0.4481660000000 1.0
C      1  0.5246950000000  0.4480960000000  0.4044610000000 1.0
C      1  0.5230150000000  0.4132770000000  0.5424180000000 1.0
C      1  0.5342610000000  0.5514890000000  0.6002570000000 1.0
C      1  0.4834280000000  0.5841800000000  0.5494330000000 1.0
C      1  0.4766330000000  0.4578130000000  0.5878730000000 1.0
C      1  0.4677700000000  0.4053820000000  0.4467010000000 1.0
C      1  0.4747750000000  0.5506440000000  0.4071730000000 1.0
C      1  0.5265260000000  0.4630090000000  0.5574940000000 1.0
C      1  0.5266070000000  0.5536600000000  0.5349240000000 1.0
C      1  0.5303230000000  0.5391810000000  0.4529510000000 1.0
C      1  0.5366970000000  0.4501770000000  0.4566630000000 1.0
C      1  0.4752230000000  0.4541090000000  0.4535130000000 1.0
C      1  0.4584680000000  0.5494470000000  0.4590920000000 1.0
C      1  0.4586120000000  0.5405360000000  0.5491150000000 1.0
C      1  0.4732150000000  0.4427960000000  0.5370800000000 1.0
C      1  0.4542300000000  0.4709280000000  0.5347200000000 1.0
C      1  0.4473860000000  0.5270670000000  0.5227460000000 1.0
C      1  0.4514720000000  0.5174570000000  0.4621430000000 1.0
C      1  0.4565780000000  0.4595010000000  0.4813380000000 1.0
C      1  0.5487020000000  0.4794670000000  0.4690910000000 1.0
C      1  0.5419930000000  0.5373110000000  0.4850310000000 1.0
C      1  0.5388280000000  0.5235430000000  0.5401310000000 1.0
C      1  0.5464220000000  0.4671400000000  0.5299220000000 1.0
C      1  0.5343870000000  0.5943970000000  0.5586050000000 1.0
C      1  0.5298360000000  0.5570780000000  0.4146560000000 1.0
C      1  0.5252120000000  0.4137600000000  0.4438850000000 1.0
C      1  0.5304380000000  0.4435190000000  0.5921590000000 1.0
C      1  0.4724170000000  0.5869630000000  0.4432940000000 1.0
C      1  0.4757440000000  0.5544810000000  0.5885070000000 1.0
C      1  0.4693540000000  0.4073690000000  0.5551240000000 1.0
C      1  0.4692320000000  0.4395990000000  0.4066730000000 1.0
C      1  0.6142070000000  0.4851930000000  0.5131420000000 1.0
C      1  0.6126830000000  0.5167680000000  0.5147220000000 1.0
C      1  0.6108860000000  0.5131800000000  0.4851300000000 1.0
C      1  0.6114960000000  0.4829040000000  0.4799000000000 1.0
C      1  0.3873400000000  0.4864200000000  0.4819380000000 1.0
C      1  0.3898780000000  0.5166230000000  0.4840350000000 1.0
C      1  0.3898050000000  0.5206190000000  0.5152710000000 1.0
C      1  0.3872240000000  0.4891770000000  0.5126650000000 1.0
C      1  0.5406340000000  0.4274910000000  0.4241630000000 1.0
C      1  0.5391580000000  0.4209150000000  0.5714310000000 1.0
C      1  0.5446520000000  0.5747410000000  0.5814620000000 1.0
C      1  0.5458900000000  0.5787340000000  0.4281450000000 1.0
C      1  0.4621360000000  0.4283120000000  0.5788140000000 1.0
C      1  0.4529430000000  0.4177920000000  0.4198910000000 1.0
C      1  0.4577560000000  0.5709620000000  0.4253850000000 1.0
C      1  0.4633050000000  0.5735550000000  0.5705850000000 1.0
C      1  0.4185750000000  0.4895660000000  0.4276610000000 1.0
C      1  0.4116080000000  0.4240970000000  0.5125440000000 1.0
C      1  0.4167460000000  0.5151050000000  0.5714540000000 1.0
C      1  0.4140920000000  0.5733440000000  0.4891520000000 1.0
C      1  0.5885730000000  0.4863470000000  0.5747720000000 1.0
C      1  0.5843370000000  0.4277650000000  0.4852370000000 1.0
C      1  0.5819100000000  0.5078120000000  0.4262760000000 1.0
C      1  0.5837440000000  0.5742000000000  0.5114900000000 1.0
C      1  0.4825210000000  0.4705640000000  0.6189830000000 1.0
C      1  0.4710870000000  0.6070320000000  0.5344310000000 1.0
C      1  0.4839420000000  0.5279670000000  0.3846520000000 1.0
C      1  0.4738950000000  0.3839610000000  0.4700880000000 1.0
C      1  0.5175210000000  0.4709380000000  0.3803780000000 1.0
C      1  0.5197380000000  0.6173490000000  0.4736230000000 1.0
C      1  0.5295060000000  0.5274800000000  0.6206360000000 1.0
C      1  0.5168030000000  0.3825120000000  0.5289590000000 1.0
C      1  0.5851610000000  0.4478260000000  0.5077570000000 1.0
C      1  0.5865430000000  0.5093500000000  0.5549220000000 1.0
C      1  0.5846220000000  0.5577580000000  0.4841690000000 1.0
C      1  0.5896840000000  0.4817040000000  0.4343130000000 1.0
C      1  0.4115840000000  0.4444250000000  0.4889070000000 1.0
C      1  0.4116520000000  0.5156330000000  0.4379820000000 1.0
C      1  0.4091640000000  0.5655140000000  0.5168900000000 1.0
C      1  0.4169860000000  0.4924850000000  0.5521390000000 1.0
C      1  0.4892910000000  0.5302320000000  0.5597560000000 1.0
C      1  0.4881660000000  0.5575700000000  0.4728030000000 1.0
C      1  0.4989260000000  0.4713360000000  0.4393360000000 1.0
C      1  0.5039910000000  0.4365800000000  0.5261970000000 1.0
C      1  0.5036370000000  0.5223880000000  0.4399050000000 1.0
C      1  0.4948670000000  0.5625630000000  0.5277910000000 1.0
C      1  0.4956940000000  0.4751440000000  0.5654320000000 1.0
C      1  0.5071340000000  0.4412860000000  0.4701050000000 1.0
C      1  0.5722180000000  0.4633900000000  0.4209680000000 1.0
C      1  0.5729150000000  0.4376800000000  0.5353210000000 1.0
C      1  0.5738410000000  0.5363610000000  0.5659720000000 1.0
C      1  0.5679430000000  0.5702760000000  0.4665970000000 1.0
C      1  0.4263910000000  0.4640810000000  0.5625940000000 1.0
C      1  0.4250940000000  0.4345120000000  0.4623320000000 1.0
C      1  0.4268120000000  0.5349200000000  0.4230760000000 1.0
C      1  0.4246780000000  0.5811690000000  0.5355760000000 1.0
C      1  0.4466050000000  0.4746170000000  0.5847120000000 1.0
C      1  0.4399650000000  0.6031750000000  0.5226630000000 1.0
C      1  0.4516990000000  0.5253100000000  0.4072400000000 1.0
C      1  0.4439720000000  0.4101430000000  0.4711670000000 1.0
C      1  0.5476580000000  0.4734930000000  0.4053080000000 1.0
C      1  0.5525490000000  0.5951750000000  0.4725260000000 1.0
C      1  0.5576880000000  0.5272500000000  0.5924360000000 1.0
C      1  0.5526050000000  0.4166490000000  0.5248580000000 1.0
C      1  0.4555650000000  0.5115920000000  0.5640250000000 1.0
C      1  0.4525490000000  0.5628010000000  0.4892150000000 1.0
C      1  0.4597020000000  0.4804000000000  0.4387630000000 1.0
C      1  0.4487720000000  0.4367800000000  0.5156470000000 1.0
C      1  0.5422140000000  0.5103610000000  0.4420350000000 1.0
C      1  0.5514390000000  0.5653490000000  0.5163080000000 1.0
C      1  0.5501570000000  0.4844380000000  0.5653660000000 1.0
C      1  0.5425510000000  0.4401170000000  0.4877590000000 1.0
C      1  0.4977830000000  0.4164770000000  0.4363860000000 1.0
C      1  0.5021670000000  0.4351850000000  0.5852940000000 1.0
C      1  0.5080150000000  0.5831410000000  0.5684000000000 1.0
C      1  0.5026710000000  0.5643200000000  0.4172050000000 1.0
C      1  0.4973390000000  0.4153450000000  0.5649570000000 1.0
C      1  0.4963970000000  0.4349330000000  0.4141410000000 1.0
C      1  0.4997650000000  0.5855670000000  0.4364280000000 1.0
C      1  0.5048670000000  0.5623080000000  0.5884200000000 1.0
C      1  0.5167740000000  0.4944920000000  0.5839680000000 1.0
C      1  0.5155220000000  0.5807430000000  0.5078130000000 1.0
C      1  0.5065590000000  0.5106270000000  0.4130630000000 1.0
C      1  0.5092090000000  0.4185780000000  0.4910800000000 1.0
C      1  0.4923560000000  0.4838310000000  0.4144890000000 1.0
C      1  0.4881060000000  0.5802570000000  0.4922430000000 1.0
C      1  0.4895570000000  0.5098450000000  0.5841660000000 1.0
C      1  0.4825830000000  0.4177460000000  0.5072650000000 1.0
C      1  0.4688660000000  0.4949480000000  0.6004890000000 1.0
C      1  0.4673140000000  0.6002810000000  0.5025320000000 1.0
C      1  0.4719130000000  0.4997930000000  0.3963130000000 1.0
C      1  0.4650830000000  0.3976710000000  0.4954370000000 1.0
C      1  0.5284170000000  0.4996320000000  0.3939560000000 1.0
C      1  0.5313910000000  0.6030170000000  0.4982880000000 1.0
C      1  0.5357080000000  0.5033340000000  0.6038710000000 1.0
C      1  0.5301860000000  0.4014840000000  0.5048840000000 1.0
C      1  0.4364670000000  0.5053450000000  0.5964230000000 1.0
C      1  0.4351300000000  0.5982830000000  0.4896650000000 1.0
C      1  0.4402150000000  0.4930710000000  0.4063670000000 1.0
C      1  0.4336430000000  0.4027470000000  0.5032890000000 1.0
C      1  0.5592050000000  0.5056680000000  0.4061980000000 1.0
C      1  0.5640370000000  0.6010820000000  0.5044680000000 1.0
C      1  0.5672560000000  0.4944780000000  0.5979380000000 1.0
C      1  0.5621520000000  0.4063410000000  0.4936280000000 1.0
C      1  0.4836780000000  0.4489550000000  0.4938350000000 1.0
C      1  0.4737020000000  0.4920780000000  0.5486390000000 1.0
C      1  0.4729890000000  0.5467540000000  0.5110700000000 1.0
C      1  0.4798740000000  0.5028490000000  0.4545020000000 1.0
C      1  0.5236770000000  0.4550640000000  0.5094930000000 1.0
C      1  0.5195180000000  0.4887250000000  0.4542830000000 1.0
C      1  0.5135220000000  0.5496160000000  0.4941120000000 1.0
C      1  0.5148030000000  0.5093670000000  0.5536240000000 1.0
C      1  0.5823940000000  0.5583680000000  0.5403650000000 1.0
C      1  0.5802900000000  0.5307020000000  0.4421840000000 1.0
C      1  0.5875550000000  0.4413630000000  0.4602310000000 1.0
C      1  0.5859880000000  0.4608160000000  0.5576580000000 1.0
C      1  0.4132020000000  0.5569410000000  0.4657860000000 1.0
C      1  0.4138830000000  0.5398570000000  0.5572250000000 1.0
C      1  0.4160030000000  0.4419070000000  0.5379980000000 1.0
C      1  0.4199880000000  0.4616220000000  0.4410100000000 1.0
C      1  0.4839450000000  0.4877950000000  0.4849720000000 1.0
C      1  0.4876030000000  0.4735680000000  0.5161100000000 1.0
C      1  0.4816400000000  0.5075030000000  0.5195670000000 1.0
C      1  0.4803790000000  0.5219560000000  0.4888850000000 1.0
C      1  0.5158240000000  0.4899360000000  0.5273700000000 1.0
C      1  0.5175110000000  0.4843670000000  0.4933600000000 1.0
C      1  0.5117980000000  0.5137130000000  0.4767470000000 1.0
C      1  0.5127420000000  0.5198780000000  0.5107680000000 1.0
C      1  0.5602770000000  0.4671100000000  0.4988740000000 1.0
C      1  0.5606770000000  0.4985330000000  0.5363430000000 1.0
C      1  0.5596970000000  0.5317860000000  0.5141510000000 1.0
C      1  0.5605800000000  0.5119700000000  0.4715090000000 1.0
C      1  0.4331580000000  0.4658630000000  0.5060370000000 1.0
C      1  0.4395830000000  0.4852200000000  0.4665780000000 1.0
C      1  0.4417900000000  0.5320610000000  0.4908630000000 1.0
C      1  0.4380250000000  0.4981700000000  0.5290000000000 1.0
C      1  0.4331750000000  0.5589910000000  0.4402170000000 1.0
C      1  0.4474360000000  0.4424180000000  0.4400470000000 1.0
C      1  0.4441310000000  0.4383070000000  0.5549510000000 1.0
C      1  0.4361900000000  0.5634960000000  0.5582130000000 1.0
C      1  0.5530800000000  0.5592610000000  0.5555160000000 1.0
C      1  0.5561790000000  0.4456770000000  0.5617120000000 1.0
C      1  0.5644230000000  0.4408310000000  0.4393010000000 1.0
C      1  0.5587140000000  0.5531630000000  0.4429440000000 1.0
C      1  0.6002900000000  0.4681770000000  0.4583780000000 1.0
C      1  0.6012000000000  0.4649440000000  0.5281460000000 1.0
C      1  0.5901130000000  0.5288480000000  0.5302200000000 1.0
C      1  0.5900810000000  0.5293920000000  0.4721800000000 1.0
C      1  0.4074060000000  0.4726330000000  0.5283640000000 1.0
C      1  0.4088940000000  0.4700850000000  0.4702070000000 1.0
C      1  0.4019440000000  0.5298060000000  0.4624350000000 1.0
C      1  0.4009410000000  0.5411950000000  0.5306630000000 1.0
C      1  0.4340710000000  0.4995930000000  0.4970200000000 1.0
C      1  0.5674670000000  0.5001120000000  0.5030050000000 1.0
END
