TITL C-2782228-2999-292 -0.00161043110678715 125000 -844.996523940412 0 0 145 (C3) n - 1
REM
REM in /home/nfs/bkarasulu/CARBON/AIRSS/Generating-Clusters/REBO/Higher-Symm/SD-CG/HFTN-CG
REM
REM
REM
REM
REM
REM ./C.cell (12c818d87b63d06a65506943cc24bca4)
REM
REM compiler GCC version 9.2.1 20190827 (Red Hat 9.2.1-1)
REM options -cpp -mtune=generic -march=x86-64 -g -O0 -fpre-include=/usr/include/finclude/math-vector-fortran.h
REM seed 1280685969 1129104733 -861528713 1012455068 394305540 -413432321 747679403 1498033730 -1048828275 1760070319 1722110114 -795444324 -1631050823 -428140765 -1305345930 -381045324 2030761522 -1685240936 1204616777 -1078874045 1063275171 1378369997 1257476423 -200621019 196879463 -1808792554 823628068 -1665077474 -1264434580 -688907187 571166046 1788898742 -1968911139
REM
CELL 1.54180   50.00000   50.00000   50.00000   90.00000   90.00000   90.00000
LATT -1
SFAC C  
C      1  0.4378860000000  0.5597330000000  0.4588980000000 1.0
C      1  0.4378910000000  0.5051350000000  0.5723980000000 1.0
C      1  0.4378780000000  0.4341400000000  0.4683650000000 1.0
C      1  0.5625650000000  0.4394450000000  0.4591320000000 1.0
C      1  0.5625780000000  0.4944820000000  0.5723980000000 1.0
C      1  0.5625750000000  0.5650550000000  0.4681020000000 1.0
C      1  0.4911440000000  0.5097580000000  0.4505620000000 1.0
C      1  0.4911520000000  0.5373330000000  0.5332840000000 1.0
C      1  0.4911450000000  0.4519060000000  0.5158030000000 1.0
C      1  0.5133830000000  0.4838920000000  0.4527000000000 1.0
C      1  0.5133880000000  0.4666900000000  0.5371300000000 1.0
C      1  0.5133920000000  0.5484100000000  0.5098130000000 1.0
C      1  0.5563650000000  0.4919700000000  0.5222480000000 1.0
C      1  0.5563610000000  0.4841340000000  0.4820320000000 1.0
C      1  0.5563650000000  0.5228790000000  0.4953540000000 1.0
C      1  0.4452910000000  0.5074280000000  0.5248880000000 1.0
C      1  0.4452880000000  0.5174420000000  0.4806660000000 1.0
C      1  0.4452860000000  0.4741380000000  0.4941050000000 1.0
C      1  0.5290330000000  0.4541600000000  0.5906320000000 1.0
C      1  0.5290180000000  0.4438210000000  0.4150970000000 1.0
C      1  0.5290360000000  0.6010080000000  0.4939110000000 1.0
C      1  0.4703810000000  0.5458040000000  0.5917690000000 1.0
C      1  0.4703680000000  0.5561740000000  0.4139870000000 1.0
C      1  0.4703630000000  0.3970240000000  0.4938970000000 1.0
C      1  0.4507860000000  0.4607540000000  0.5651860000000 1.0
C      1  0.4507770000000  0.4625740000000  0.4335350000000 1.0
C      1  0.4507900000000  0.5756780000000  0.5009370000000 1.0
C      1  0.5500610000000  0.5387920000000  0.5663850000000 1.0
C      1  0.5500510000000  0.5376930000000  0.4327370000000 1.0
C      1  0.5500480000000  0.4225000000000  0.5005130000000 1.0
C      1  0.5747290000000  0.4662360000000  0.4330140000000 1.0
C      1  0.5747420000000  0.5742770000000  0.5043620000000 1.0
C      1  0.5747380000000  0.4584670000000  0.5622540000000 1.0
C      1  0.4247810000000  0.5337310000000  0.4324230000000 1.0
C      1  0.4247790000000  0.4242140000000  0.5041230000000 1.0
C      1  0.4247920000000  0.5410660000000  0.5631170000000 1.0
C      1  0.4688730000000  0.4838080000000  0.5248120000000 1.0
C      1  0.4688690000000  0.4860090000000  0.4736860000000 1.0
C      1  0.4688740000000  0.5291850000000  0.5011550000000 1.0
C      1  0.5348990000000  0.5146600000000  0.5280110000000 1.0
C      1  0.5348950000000  0.5165260000000  0.4728260000000 1.0
C      1  0.5348930000000  0.4678020000000  0.4988020000000 1.0
C      1  0.5156530000000  0.5137020000000  0.5974080000000 1.0
C      1  0.5156350000000  0.4081840000000  0.4632750000000 1.0
C      1  0.5156450000000  0.5771060000000  0.4389600000000 1.0
C      1  0.4844710000000  0.4870090000000  0.5954370000000 1.0
C      1  0.4844690000000  0.5887470000000  0.4630680000000 1.0
C      1  0.4844550000000  0.4232430000000  0.4411450000000 1.0
C      1  0.5405220000000  0.5848380000000  0.5452840000000 1.0
C      1  0.5405110000000  0.4177520000000  0.5509400000000 1.0
C      1  0.5405050000000  0.4963970000000  0.4034120000000 1.0
C      1  0.4582200000000  0.4130320000000  0.5454400000000 1.0
C      1  0.4582320000000  0.5824380000000  0.5521370000000 1.0
C      1  0.4582150000000  0.5035340000000  0.4020790000000 1.0
C      1  0.4858380000000  0.5086930000000  0.5510120000000 1.0
C      1  0.4858280000000  0.4508740000000  0.4821370000000 1.0
C      1  0.4858330000000  0.5394310000000  0.4665010000000 1.0
C      1  0.5137340000000  0.4921780000000  0.5531910000000 1.0
C      1  0.5137320000000  0.5495750000000  0.4797090000000 1.0
C      1  0.5137240000000  0.4572390000000  0.4667430000000 1.0
C      1  0.5220030000000  0.5348320000000  0.4500980000000 1.0
C      1  0.5220100000000  0.5251920000000  0.5552280000000 1.0
C      1  0.5219990000000  0.4389670000000  0.4943150000000 1.0
C      1  0.4778490000000  0.4659360000000  0.4515930000000 1.0
C      1  0.4778580000000  0.4747110000000  0.5532410000000 1.0
C      1  0.4778590000000  0.5583530000000  0.4948180000000 1.0
C      1  0.5853970000000  0.4644310000000  0.4632720000000 1.0
C      1  0.5854050000000  0.5489730000000  0.4876690000000 1.0
C      1  0.5854050000000  0.4855730000000  0.5486860000000 1.0
C      1  0.4145540000000  0.5352600000000  0.4627580000000 1.0
C      1  0.4145500000000  0.4497200000000  0.4876330000000 1.0
C      1  0.4145590000000  0.5140330000000  0.5492750000000 1.0
C      1  0.4586640000000  0.5366640000000  0.5316340000000 1.0
C      1  0.4586570000000  0.4536750000000  0.5160500000000 1.0
C      1  0.4586560000000  0.5086650000000  0.4519720000000 1.0
C      1  0.5426790000000  0.4633840000000  0.5296310000000 1.0
C      1  0.5426830000000  0.5435670000000  0.5164210000000 1.0
C      1  0.5426750000000  0.4920360000000  0.4535850000000 1.0
C      1  0.5317710000000  0.5710430000000  0.4622920000000 1.0
C      1  0.5317750000000  0.4965250000000  0.5804910000000 1.0
C      1  0.5317610000000  0.4314210000000  0.4568560000000 1.0
C      1  0.4685370000000  0.4296720000000  0.4643240000000 1.0
C      1  0.4685510000000  0.5038680000000  0.5782830000000 1.0
C      1  0.4685460000000  0.5654610000000  0.4570470000000 1.0
C      1  0.4966600000000  0.4780790000000  0.4258780000000 1.0
C      1  0.4966740000000  0.5745480000000  0.5181910000000 1.0
C      1  0.4966670000000  0.4463680000000  0.5555790000000 1.0
C      1  0.5025180000000  0.5262120000000  0.4245640000000 1.0
C      1  0.5025170000000  0.4211640000000  0.5145510000000 1.0
C      1  0.5025300000000  0.5516190000000  0.5605320000000 1.0
C      1  0.4308880000000  0.5589800000000  0.5135810000000 1.0
C      1  0.4308840000000  0.4581560000000  0.5444040000000 1.0
C      1  0.4308770000000  0.4818740000000  0.4416770000000 1.0
C      1  0.5699430000000  0.4394490000000  0.5130150000000 1.0
C      1  0.5699530000000  0.5411440000000  0.5454520000000 1.0
C      1  0.5699430000000  0.5183870000000  0.4411630000000 1.0
C      1  0.5246400000000  0.6023170000000  0.5215200000000 1.0
C      1  0.5246320000000  0.4295960000000  0.5779610000000 1.0
C      1  0.5246210000000  0.4670770000000  0.4001590000000 1.0
C      1  0.4741270000000  0.3952590000000  0.5218280000000 1.0
C      1  0.4741440000000  0.5708750000000  0.5793320000000 1.0
C      1  0.4741270000000  0.5328670000000  0.3984920000000 1.0
C      1  0.5064200000000  0.4705950000000  0.5973520000000 1.0
C      1  0.5064040000000  0.4297870000000  0.4259710000000 1.0
C      1  0.5064200000000  0.5986110000000  0.4763210000000 1.0
C      1  0.4933340000000  0.5297800000000  0.5985320000000 1.0
C      1  0.4933240000000  0.5700410000000  0.4244780000000 1.0
C      1  0.4933150000000  0.3991750000000  0.4766380000000 1.0
C      1  0.5966910000000  0.4888850000000  0.5166930000000 1.0
C      1  0.5966890000000  0.4904800000000  0.4821360000000 1.0
C      1  0.5966920000000  0.5196100000000  0.5007960000000 1.0
C      1  0.4056500000000  0.5104590000000  0.5166460000000 1.0
C      1  0.4056480000000  0.5087900000000  0.4821690000000 1.0
C      1  0.4056470000000  0.4797670000000  0.5008530000000 1.0
C      1  0.4883030000000  0.5069980000000  0.3864770000000 1.0
C      1  0.4883230000000  0.5942120000000  0.5629360000000 1.0
C      1  0.4883080000000  0.3977870000000  0.5502360000000 1.0
C      1  0.5108550000000  0.4924490000000  0.3870970000000 1.0
C      1  0.5108620000000  0.4055980000000  0.5625220000000 1.0
C      1  0.5108750000000  0.6009460000000  0.5500240000000 1.0
C      1  0.4392340000000  0.4316470000000  0.5296350000000 1.0
C      1  0.4392320000000  0.5079180000000  0.4261030000000 1.0
C      1  0.4392450000000  0.5594440000000  0.5439220000000 1.0
C      1  0.5604430000000  0.5669630000000  0.5300470000000 1.0
C      1  0.5604290000000  0.4921370000000  0.4265080000000 1.0
C      1  0.5604350000000  0.4398820000000  0.5430780000000 1.0
C      1  0.4292290000000  0.5305840000000  0.5054150000000 1.0
C      1  0.4292270000000  0.4794260000000  0.5238960000000 1.0
C      1  0.4292230000000  0.4890000000000  0.4703520000000 1.0
C      1  0.5740580000000  0.4678660000000  0.5053520000000 1.0
C      1  0.5740630000000  0.5202980000000  0.5246730000000 1.0
C      1  0.5740580000000  0.5108150000000  0.4696050000000 1.0
C      1  0.4441260000000  0.4070300000000  0.4862650000000 1.0
C      1  0.4441330000000  0.5577850000000  0.4264700000000 1.0
C      1  0.4441430000000  0.5341920000000  0.5869250000000 1.0
C      1  0.5555960000000  0.5916210000000  0.4866630000000 1.0
C      1  0.5555810000000  0.4422370000000  0.4268450000000 1.0
C      1  0.5555950000000  0.4651250000000  0.5861250000000 1.0
C      1  0.4694570000000  0.5862750000000  0.5221880000000 1.0
C      1  0.4694500000000  0.4370480000000  0.5637370000000 1.0
C      1  0.4694410000000  0.4756790000000  0.4137280000000 1.0
C      1  0.5306570000000  0.4109720000000  0.5213120000000 1.0
C      1  0.5306710000000  0.5625690000000  0.5659730000000 1.0
C      1  0.5306570000000  0.5254480000000  0.4123550000000 1.0
C      1  0.4774770000000  0.4996670000000  0.4998840000000 1.0
END
