TITL C-2782227-3064-1383 4.83580089936451e-10 125000 -25.1356698579082 0 0 5 (D(inf)h) n - 1
REM
REM in /home/nfs/bkarasulu/CARBON/AIRSS/Generating-Clusters/REBO/Higher-Symm/SD-CG/HFTN-CG
REM
REM
REM
REM
REM
REM ./C.cell (12c818d87b63d06a65506943cc24bca4)
REM
REM compiler GCC version 9.2.1 20190827 (Red Hat 9.2.1-1)
REM options -cpp -mtune=generic -march=x86-64 -g -O0 -fpre-include=/usr/include/finclude/math-vector-fortran.h
REM seed 1070703855 -1283149304 -1539803953 -1888036363 -1057824128 -722978133 -520358656 1313832682 -1166193179 962357241 299852407 -1688870238 -1182634318 -390566092 809072984 1198173539 539100406 -743363366 -598640040 1071276340 1139273756 1525152265 -843086028 672949798 -488371033 1504533332 -316149473 864496398 848695561 1507708058 -19330790 293869788 -42422593
REM
CELL 1.54180   50.00000   50.00000   50.00000   90.00000   90.00000   90.00000
LATT -1
SFAC C  
C      1  0.4996370000000  0.5266310000000  0.4990510000000 1.0
C      1  0.4996370000000  0.5528380000000  0.4990510000000 1.0
C      1  0.4996370000000  0.4471620000000  0.4990510000000 1.0
C      1  0.4996370000000  0.4733690000000  0.4990510000000 1.0
C      1  0.4996370000000  0.5000000000000  0.4990510000000 1.0
END
