TITL C-2782225-7408-631 -0.00409914042663063 125000 -926.850957768418 0 0 157 (C1) n - 1
REM
REM in /home/nfs/bkarasulu/CARBON/AIRSS/Generating-Clusters/REBO/Higher-Symm/SD-CG/HFTN-CG
REM
REM
REM
REM
REM
REM ./C.cell (12c818d87b63d06a65506943cc24bca4)
REM
REM compiler GCC version 9.2.1 20190827 (Red Hat 9.2.1-1)
REM options -cpp -mtune=generic -march=x86-64 -g -O0 -fpre-include=/usr/include/finclude/math-vector-fortran.h
REM seed 1270927591 -2050053457 -71797055 424836788 217679547 690737453 -1462095848 1247661249 -774445799 1630245269 660376550 2134743930 -1634878725 24031932 1732199805 -238194746 596673352 -1265040591 1425005428 496118704 -2053408867 348122268 -406098457 -1389755370 1590736521 -871816233 -1427002304 -115366744 -1295481845 -1775165295 -171204886 1525598568 -114356595
REM
CELL 1.54180   50.00000   50.00000   50.00000   90.00000   90.00000   90.00000
LATT -1
SFAC C  
C      1  0.4940060000000  0.5889490000000  0.5453640000000 1.0
C      1  0.5881840000000  0.5440150000000  0.4961280000000 1.0
C      1  0.5648630000000  0.5069520000000  0.5731630000000 1.0
C      1  0.4998330000000  0.5899840000000  0.4574410000000 1.0
C      1  0.4992420000000  0.4123860000000  0.5446840000000 1.0
C      1  0.5075790000000  0.4128990000000  0.4432020000000 1.0
C      1  0.4086910000000  0.5454440000000  0.5069500000000 1.0
C      1  0.4111540000000  0.4596140000000  0.4986920000000 1.0
C      1  0.5871830000000  0.4574180000000  0.4997090000000 1.0
C      1  0.4499060000000  0.5082900000000  0.4112130000000 1.0
C      1  0.4511100000000  0.5054790000000  0.5910470000000 1.0
C      1  0.5621160000000  0.4996260000000  0.4234340000000 1.0
C      1  0.5420720000000  0.5888210000000  0.4972110000000 1.0
C      1  0.4973470000000  0.5495670000000  0.5865830000000 1.0
C      1  0.5884110000000  0.5023590000000  0.5487300000000 1.0
C      1  0.4492440000000  0.5883140000000  0.5052860000000 1.0
C      1  0.5448240000000  0.4119310000000  0.5046680000000 1.0
C      1  0.4511310000000  0.4138300000000  0.4960130000000 1.0
C      1  0.4954270000000  0.5481360000000  0.4089200000000 1.0
C      1  0.5084920000000  0.4385910000000  0.4202610000000 1.0
C      1  0.5011050000000  0.4470260000000  0.5898590000000 1.0
C      1  0.4082260000000  0.4977710000000  0.4540130000000 1.0
C      1  0.5847530000000  0.4925360000000  0.4480210000000 1.0
C      1  0.4068220000000  0.5053700000000  0.5504220000000 1.0
C      1  0.4705050000000  0.4523190000000  0.5753130000000 1.0
C      1  0.4511280000000  0.5672040000000  0.4801390000000 1.0
C      1  0.5764590000000  0.4614960000000  0.4527000000000 1.0
C      1  0.5387190000000  0.4355650000000  0.4334980000000 1.0
C      1  0.5264960000000  0.5538150000000  0.5692020000000 1.0
C      1  0.4725350000000  0.5475670000000  0.4329860000000 1.0
C      1  0.5511930000000  0.5788280000000  0.5254330000000 1.0
C      1  0.5569570000000  0.4218760000000  0.4774390000000 1.0
C      1  0.4463160000000  0.4260330000000  0.5274070000000 1.0
C      1  0.4263390000000  0.4791140000000  0.5490930000000 1.0
C      1  0.4245540000000  0.5270660000000  0.4496240000000 1.0
C      1  0.5762260000000  0.5342810000000  0.5466100000000 1.0
C      1  0.5765860000000  0.4444960000000  0.4762620000000 1.0
C      1  0.4750150000000  0.5693120000000  0.4564540000000 1.0
C      1  0.4539930000000  0.4812070000000  0.5671710000000 1.0
C      1  0.4259220000000  0.4533440000000  0.5268300000000 1.0
C      1  0.5764090000000  0.5574200000000  0.5236890000000 1.0
C      1  0.4254250000000  0.5467770000000  0.4773640000000 1.0
C      1  0.5252800000000  0.5774660000000  0.5474290000000 1.0
C      1  0.4694620000000  0.4270190000000  0.5524330000000 1.0
C      1  0.5395450000000  0.4162400000000  0.4554770000000 1.0
C      1  0.5527170000000  0.4586810000000  0.4380010000000 1.0
C      1  0.4457790000000  0.5299510000000  0.4301080000000 1.0
C      1  0.5549180000000  0.5398030000000  0.5712330000000 1.0
C      1  0.5259950000000  0.5500270000000  0.5052650000000 1.0
C      1  0.5527680000000  0.5136420000000  0.5354230000000 1.0
C      1  0.5108530000000  0.5280340000000  0.5557900000000 1.0
C      1  0.4755400000000  0.5447660000000  0.4878480000000 1.0
C      1  0.4754740000000  0.4388750000000  0.5148960000000 1.0
C      1  0.5271180000000  0.4470430000000  0.4915410000000 1.0
C      1  0.4599510000000  0.5000080000000  0.4659340000000 1.0
C      1  0.4501960000000  0.4851100000000  0.5275640000000 1.0
C      1  0.5524420000000  0.4930170000000  0.4709570000000 1.0
C      1  0.4959110000000  0.5237260000000  0.4395890000000 1.0
C      1  0.4927590000000  0.4745070000000  0.5622290000000 1.0
C      1  0.5056540000000  0.4679160000000  0.4469810000000 1.0
C      1  0.5115390000000  0.5519750000000  0.5321660000000 1.0
C      1  0.5295730000000  0.5058500000000  0.5548990000000 1.0
C      1  0.5534530000000  0.5368680000000  0.5139030000000 1.0
C      1  0.4959870000000  0.5437440000000  0.4650350000000 1.0
C      1  0.5045530000000  0.4458550000000  0.4688560000000 1.0
C      1  0.4900660000000  0.4506920000000  0.5408650000000 1.0
C      1  0.4795520000000  0.4978350000000  0.4425220000000 1.0
C      1  0.5349100000000  0.4830180000000  0.4444060000000 1.0
C      1  0.4756500000000  0.4937110000000  0.5430160000000 1.0
C      1  0.4515900000000  0.5272690000000  0.4788530000000 1.0
C      1  0.5495950000000  0.4702370000000  0.4958780000000 1.0
C      1  0.4526940000000  0.4602720000000  0.5082980000000 1.0
C      1  0.5278140000000  0.4038350000000  0.5594640000000 1.0
C      1  0.4153710000000  0.5585530000000  0.5380520000000 1.0
C      1  0.5607610000000  0.5618840000000  0.4161220000000 1.0
C      1  0.4487580000000  0.4198110000000  0.4412970000000 1.0
C      1  0.4639400000000  0.5855070000000  0.5620670000000 1.0
C      1  0.5299220000000  0.5992170000000  0.4439080000000 1.0
C      1  0.5741540000000  0.5754490000000  0.4589630000000 1.0
C      1  0.5742160000000  0.4212380000000  0.5465410000000 1.0
C      1  0.4057420000000  0.4432680000000  0.4691040000000 1.0
C      1  0.4418130000000  0.5385510000000  0.5873120000000 1.0
C      1  0.4274740000000  0.4591630000000  0.4232700000000 1.0
C      1  0.5581300000000  0.4379370000000  0.5876500000000 1.0
C      1  0.5533420000000  0.4055040000000  0.5370640000000 1.0
C      1  0.5363120000000  0.5811090000000  0.4169090000000 1.0
C      1  0.4173620000000  0.5357600000000  0.5633950000000 1.0
C      1  0.4304750000000  0.4198880000000  0.4694930000000 1.0
C      1  0.5545690000000  0.5958020000000  0.4665810000000 1.0
C      1  0.4398800000000  0.5822330000000  0.5378870000000 1.0
C      1  0.4656790000000  0.5631230000000  0.5879270000000 1.0
C      1  0.5273580000000  0.4256770000000  0.5849030000000 1.0
C      1  0.4355020000000  0.4318910000000  0.4203080000000 1.0
C      1  0.5817760000000  0.5726480000000  0.4318540000000 1.0
C      1  0.4053570000000  0.4653760000000  0.4431390000000 1.0
C      1  0.5729050000000  0.4431600000000  0.5647760000000 1.0
C      1  0.4544570000000  0.5209090000000  0.5625060000000 1.0
C      1  0.5250090000000  0.5674160000000  0.4524720000000 1.0
C      1  0.5671890000000  0.4593420000000  0.5238180000000 1.0
C      1  0.5515350000000  0.5311290000000  0.4252730000000 1.0
C      1  0.5443440000000  0.4798110000000  0.5687880000000 1.0
C      1  0.4545880000000  0.4794130000000  0.4272600000000 1.0
C      1  0.4744370000000  0.5626050000000  0.5409780000000 1.0
C      1  0.4797040000000  0.4324650000000  0.4490180000000 1.0
C      1  0.5258380000000  0.4346190000000  0.5460360000000 1.0
C      1  0.4341980000000  0.4594570000000  0.4734030000000 1.0
C      1  0.4378040000000  0.5349600000000  0.5153220000000 1.0
C      1  0.5691740000000  0.5468770000000  0.4725530000000 1.0
C      1  0.5654610000000  0.5207020000000  0.4547910000000 1.0
C      1  0.4542260000000  0.5583160000000  0.5188500000000 1.0
C      1  0.5272260000000  0.4565040000000  0.5705150000000 1.0
C      1  0.4345020000000  0.5193120000000  0.5406320000000 1.0
C      1  0.5721000000000  0.4735860000000  0.5520020000000 1.0
C      1  0.4372650000000  0.4837190000000  0.4573240000000 1.0
C      1  0.5401080000000  0.5605950000000  0.4777970000000 1.0
C      1  0.4583930000000  0.4391690000000  0.4748580000000 1.0
C      1  0.5423320000000  0.4402840000000  0.5213470000000 1.0
C      1  0.4809570000000  0.4578460000000  0.4262530000000 1.0
C      1  0.5234440000000  0.5502950000000  0.4232350000000 1.0
C      1  0.4746860000000  0.5428650000000  0.5638770000000 1.0
C      1  0.4961800000000  0.3982190000000  0.5187700000000 1.0
C      1  0.3885090000000  0.5228460000000  0.5038520000000 1.0
C      1  0.5453980000000  0.4812630000000  0.4059230000000 1.0
C      1  0.5003130000000  0.3996520000000  0.4716430000000 1.0
C      1  0.4943920000000  0.6080660000000  0.5218870000000 1.0
C      1  0.4948240000000  0.6065740000000  0.4822340000000 1.0
C      1  0.6025820000000  0.5200160000000  0.4971710000000 1.0
C      1  0.6036330000000  0.4803760000000  0.4981250000000 1.0
C      1  0.3929740000000  0.4835250000000  0.5026080000000 1.0
C      1  0.4705460000000  0.4879460000000  0.6083510000000 1.0
C      1  0.4664860000000  0.5146660000000  0.3889270000000 1.0
C      1  0.5379120000000  0.5115330000000  0.5935600000000 1.0
C      1  0.5176040000000  0.3996100000000  0.4974050000000 1.0
C      1  0.4870950000000  0.5331380000000  0.3874440000000 1.0
C      1  0.3874470000000  0.5023430000000  0.5272950000000 1.0
C      1  0.4780050000000  0.3985100000000  0.4940040000000 1.0
C      1  0.5180050000000  0.6062400000000  0.5020310000000 1.0
C      1  0.4707330000000  0.6087330000000  0.5020330000000 1.0
C      1  0.5178680000000  0.5257620000000  0.5962940000000 1.0
C      1  0.4865880000000  0.4693600000000  0.6076780000000 1.0
C      1  0.5282670000000  0.4625900000000  0.4061380000000 1.0
C      1  0.6029020000000  0.4992940000000  0.4729700000000 1.0
C      1  0.3915130000000  0.5031610000000  0.4790820000000 1.0
C      1  0.6043860000000  0.5007790000000  0.5223650000000 1.0
C      1  0.5190150000000  0.5266070000000  0.4829590000000 1.0
C      1  0.5399180000000  0.4882690000000  0.5207380000000 1.0
C      1  0.4887810000000  0.5192110000000  0.5350090000000 1.0
C      1  0.4877640000000  0.5374180000000  0.5132480000000 1.0
C      1  0.4889320000000  0.4582150000000  0.4918770000000 1.0
C      1  0.5087170000000  0.4607980000000  0.5166530000000 1.0
C      1  0.4703740000000  0.4858300000000  0.4930620000000 1.0
C      1  0.4462650000000  0.5066420000000  0.5047480000000 1.0
C      1  0.5449180000000  0.5098450000000  0.4965220000000 1.0
C      1  0.5260480000000  0.5152150000000  0.4511440000000 1.0
C      1  0.5162550000000  0.4804600000000  0.5404550000000 1.0
C      1  0.5031710000000  0.4944200000000  0.4654390000000 1.0
C      1  0.4978640000000  0.5031640000000  0.4956670000000 1.0
END
