TITL C-2782234-8014-398 0.000263997292951544 125000 -939.642423687952 0 0 160 (C1) n - 1
REM
REM in /home/nfs/bkarasulu/CARBON/AIRSS/Generating-Clusters/REBO/Higher-Symm/SD-CG/HFTN-CG
REM
REM
REM
REM
REM
REM ./C.cell (12c818d87b63d06a65506943cc24bca4)
REM
REM compiler GCC version 9.2.1 20190827 (Red Hat 9.2.1-1)
REM options -cpp -mtune=generic -march=x86-64 -g -O0 -fpre-include=/usr/include/finclude/math-vector-fortran.h
REM seed -1364425520 605388963 1360870977 -892640804 1807621813 -1487142478 -2081628460 455565451 -1532526828 2018454851 1132566479 -1537382103 1574145363 -578316854 410087584 -1754874018 648943191 -149818223 -2104784228 1442817532 -1249122439 -1985260239 -614444680 963641423 720206738 -1978134190 523309561 -1254546317 1378509471 -995054412 -1193397819 2030011919 -219222955
REM
CELL 1.54180   50.00000   50.00000   50.00000   90.00000   90.00000   90.00000
LATT -1
SFAC C  
C      1  0.5043570000000  0.5594680000000  0.5858230000000 1.0
C      1  0.5080130000000  0.5866160000000  0.4382590000000 1.0
C      1  0.5061380000000  0.4372760000000  0.4129690000000 1.0
C      1  0.5078370000000  0.4107230000000  0.5602800000000 1.0
C      1  0.4933350000000  0.5611140000000  0.4145860000000 1.0
C      1  0.4911300000000  0.5855600000000  0.5589810000000 1.0
C      1  0.4942100000000  0.4366020000000  0.5841630000000 1.0
C      1  0.4905930000000  0.4114890000000  0.4386710000000 1.0
C      1  0.4579270000000  0.5462360000000  0.5896080000000 1.0
C      1  0.4614100000000  0.5852760000000  0.4587880000000 1.0
C      1  0.4586740000000  0.4537510000000  0.4134800000000 1.0
C      1  0.4609320000000  0.4121980000000  0.5421170000000 1.0
C      1  0.5412120000000  0.5458420000000  0.4120690000000 1.0
C      1  0.5378530000000  0.5879860000000  0.5375680000000 1.0
C      1  0.5416070000000  0.4532090000000  0.5832870000000 1.0
C      1  0.5376730000000  0.4114170000000  0.4551890000000 1.0
C      1  0.4797500000000  0.4494070000000  0.5260250000000 1.0
C      1  0.4861800000000  0.5279920000000  0.5544830000000 1.0
C      1  0.4838740000000  0.5501080000000  0.4754950000000 1.0
C      1  0.4821950000000  0.4715150000000  0.4538050000000 1.0
C      1  0.5163670000000  0.4506080000000  0.4724680000000 1.0
C      1  0.5186020000000  0.5251740000000  0.4537340000000 1.0
C      1  0.5139770000000  0.5540890000000  0.5204400000000 1.0
C      1  0.5141790000000  0.4766030000000  0.5464890000000 1.0
C      1  0.4755930000000  0.4314180000000  0.4187140000000 1.0
C      1  0.4768980000000  0.4165940000000  0.5649880000000 1.0
C      1  0.4752330000000  0.5676380000000  0.5831310000000 1.0
C      1  0.4768390000000  0.5800670000000  0.4357470000000 1.0
C      1  0.5253390000000  0.4310230000000  0.5781770000000 1.0
C      1  0.5208910000000  0.4165570000000  0.4327230000000 1.0
C      1  0.5244960000000  0.5681490000000  0.4166990000000 1.0
C      1  0.5224530000000  0.5758490000000  0.5618190000000 1.0
C      1  0.3937600000000  0.4954120000000  0.5146350000000 1.0
C      1  0.3967910000000  0.5242800000000  0.5031900000000 1.0
C      1  0.4001140000000  0.5077150000000  0.4773960000000 1.0
C      1  0.3946750000000  0.4791070000000  0.4875720000000 1.0
C      1  0.6080550000000  0.4904870000000  0.4786650000000 1.0
C      1  0.6096810000000  0.5172680000000  0.4945650000000 1.0
C      1  0.6092760000000  0.5062750000000  0.5238860000000 1.0
C      1  0.6042900000000  0.4803710000000  0.5081630000000 1.0
C      1  0.5307120000000  0.5100400000000  0.6025030000000 1.0
C      1  0.5363250000000  0.6057270000000  0.4832190000000 1.0
C      1  0.5318060000000  0.4855530000000  0.3984050000000 1.0
C      1  0.5350360000000  0.3978560000000  0.5133260000000 1.0
C      1  0.4671680000000  0.5132540000000  0.4007720000000 1.0
C      1  0.4628470000000  0.6036820000000  0.5130310000000 1.0
C      1  0.4668640000000  0.4845680000000  0.6005090000000 1.0
C      1  0.4642180000000  0.3954760000000  0.4859270000000 1.0
C      1  0.4931250000000  0.5994800000000  0.5279200000000 1.0
C      1  0.4961190000000  0.5298800000000  0.4059650000000 1.0
C      1  0.4931380000000  0.4011980000000  0.4697680000000 1.0
C      1  0.4953370000000  0.4675140000000  0.5933570000000 1.0
C      1  0.5068650000000  0.5985980000000  0.4690830000000 1.0
C      1  0.5024570000000  0.5283070000000  0.5975510000000 1.0
C      1  0.5062710000000  0.4012620000000  0.5296950000000 1.0
C      1  0.5034390000000  0.4684140000000  0.4026510000000 1.0
C      1  0.4278980000000  0.5186840000000  0.5415140000000 1.0
C      1  0.4267920000000  0.5385790000000  0.4811580000000 1.0
C      1  0.4234410000000  0.4784200000000  0.4598730000000 1.0
C      1  0.4243400000000  0.4584070000000  0.5204220000000 1.0
C      1  0.5736250000000  0.5188780000000  0.4609070000000 1.0
C      1  0.5776270000000  0.5431590000000  0.5198170000000 1.0
C      1  0.5745820000000  0.4837900000000  0.5389460000000 1.0
C      1  0.5709860000000  0.4585500000000  0.4796140000000 1.0
C      1  0.4344130000000  0.4565560000000  0.5514410000000 1.0
C      1  0.4373210000000  0.5511450000000  0.5458970000000 1.0
C      1  0.4360990000000  0.5425290000000  0.4498740000000 1.0
C      1  0.4332760000000  0.4463730000000  0.4573100000000 1.0
C      1  0.5630930000000  0.4569600000000  0.4473530000000 1.0
C      1  0.5649180000000  0.5506300000000  0.4570100000000 1.0
C      1  0.5641540000000  0.5477050000000  0.5504840000000 1.0
C      1  0.5616850000000  0.4524610000000  0.5403580000000 1.0
C      1  0.5278570000000  0.4977270000000  0.5647420000000 1.0
C      1  0.5269420000000  0.5709550000000  0.4997060000000 1.0
C      1  0.5244110000000  0.5021650000000  0.4337730000000 1.0
C      1  0.5231430000000  0.4308520000000  0.4948410000000 1.0
C      1  0.4746020000000  0.4948450000000  0.4351730000000 1.0
C      1  0.4715540000000  0.5691620000000  0.4956680000000 1.0
C      1  0.4719200000000  0.5029330000000  0.5656410000000 1.0
C      1  0.4732170000000  0.4297190000000  0.5037760000000 1.0
C      1  0.5408430000000  0.4183500000000  0.5391520000000 1.0
C      1  0.5407010000000  0.5391820000000  0.5956750000000 1.0
C      1  0.5425530000000  0.5850430000000  0.4577590000000 1.0
C      1  0.5398920000000  0.4586390000000  0.4148800000000 1.0
C      1  0.4570040000000  0.4143130000000  0.4599980000000 1.0
C      1  0.4597290000000  0.5397980000000  0.4180260000000 1.0
C      1  0.4583360000000  0.5870410000000  0.5424340000000 1.0
C      1  0.4578420000000  0.4583740000000  0.5837350000000 1.0
C      1  0.4770000000000  0.3987210000000  0.5173390000000 1.0
C      1  0.4731510000000  0.5177800000000  0.5964040000000 1.0
C      1  0.4778960000000  0.6000780000000  0.4825600000000 1.0
C      1  0.4743510000000  0.4803610000000  0.4043290000000 1.0
C      1  0.5226450000000  0.3994310000000  0.4815760000000 1.0
C      1  0.5255130000000  0.5184750000000  0.4038380000000 1.0
C      1  0.5212140000000  0.6018260000000  0.5136470000000 1.0
C      1  0.5245710000000  0.4788150000000  0.5930300000000 1.0
C      1  0.4605690000000  0.5082790000000  0.4828740000000 1.0
C      1  0.4538270000000  0.4758390000000  0.4854240000000 1.0
C      1  0.4499960000000  0.4898940000000  0.5167000000000 1.0
C      1  0.4562000000000  0.5211240000000  0.5134270000000 1.0
C      1  0.5500390000000  0.5156410000000  0.5278910000000 1.0
C      1  0.5440360000000  0.4877680000000  0.5136720000000 1.0
C      1  0.5492860000000  0.4920370000000  0.4799060000000 1.0
C      1  0.5521970000000  0.5217190000000  0.4945040000000 1.0
C      1  0.4382220000000  0.5286010000000  0.5716670000000 1.0
C      1  0.4393280000000  0.5684190000000  0.4720860000000 1.0
C      1  0.4376340000000  0.4683250000000  0.4313140000000 1.0
C      1  0.4397020000000  0.4304230000000  0.5296030000000 1.0
C      1  0.5597760000000  0.5283780000000  0.4314120000000 1.0
C      1  0.5610530000000  0.5710660000000  0.5257490000000 1.0
C      1  0.5608490000000  0.4737720000000  0.5674510000000 1.0
C      1  0.5579000000000  0.4301740000000  0.4680080000000 1.0
C      1  0.4693690000000  0.5433350000000  0.4492630000000 1.0
C      1  0.4659790000000  0.4448840000000  0.4549870000000 1.0
C      1  0.4667220000000  0.4532550000000  0.5531310000000 1.0
C      1  0.4693870000000  0.5546830000000  0.5458810000000 1.0
C      1  0.5377400000000  0.5488340000000  0.5670220000000 1.0
C      1  0.5290420000000  0.4489520000000  0.5426410000000 1.0
C      1  0.5306180000000  0.4531460000000  0.4450930000000 1.0
C      1  0.5326500000000  0.5533780000000  0.4527550000000 1.0
C      1  0.4252900000000  0.4765400000000  0.5694030000000 1.0
C      1  0.4254550000000  0.5702590000000  0.5274360000000 1.0
C      1  0.4265240000000  0.5223410000000  0.4315890000000 1.0
C      1  0.4235940000000  0.4276730000000  0.4770350000000 1.0
C      1  0.5727630000000  0.4763610000000  0.4288840000000 1.0
C      1  0.5751830000000  0.5699140000000  0.4749430000000 1.0
C      1  0.5710160000000  0.5273910000000  0.5726160000000 1.0
C      1  0.5724020000000  0.4342200000000  0.5207910000000 1.0
C      1  0.4231910000000  0.4647610000000  0.4912250000000 1.0
C      1  0.4198830000000  0.4892700000000  0.5319760000000 1.0
C      1  0.4260910000000  0.5338430000000  0.5118490000000 1.0
C      1  0.4315080000000  0.5074930000000  0.4682070000000 1.0
C      1  0.5728910000000  0.4716090000000  0.5071770000000 1.0
C      1  0.5794140000000  0.4882650000000  0.4661180000000 1.0
C      1  0.5829900000000  0.5337950000000  0.4897870000000 1.0
C      1  0.5822540000000  0.5147560000000  0.5371010000000 1.0
C      1  0.5556200000000  0.4222820000000  0.5008590000000 1.0
C      1  0.5566290000000  0.5037970000000  0.5808240000000 1.0
C      1  0.5583630000000  0.5820360000000  0.4946060000000 1.0
C      1  0.5553440000000  0.4975460000000  0.4202200000000 1.0
C      1  0.4415920000000  0.4184740000000  0.4977500000000 1.0
C      1  0.4435540000000  0.5006200000000  0.4223450000000 1.0
C      1  0.4402440000000  0.5794710000000  0.5043100000000 1.0
C      1  0.4420980000000  0.4970760000000  0.5803130000000 1.0
C      1  0.5112040000000  0.4839150000000  0.5154980000000 1.0
C      1  0.5191820000000  0.5238180000000  0.5165520000000 1.0
C      1  0.5200980000000  0.5191110000000  0.4832880000000 1.0
C      1  0.5200420000000  0.4793640000000  0.4833210000000 1.0
C      1  0.4879520000000  0.4791640000000  0.4833150000000 1.0
C      1  0.4888080000000  0.5232350000000  0.4906490000000 1.0
C      1  0.4861220000000  0.5258170000000  0.5238640000000 1.0
C      1  0.4798160000000  0.4774230000000  0.5152880000000 1.0
C      1  0.4879750000000  0.4337200000000  0.4760730000000 1.0
C      1  0.4868280000000  0.4763300000000  0.5629760000000 1.0
C      1  0.4867730000000  0.5670410000000  0.5231340000000 1.0
C      1  0.4896180000000  0.5215390000000  0.4372030000000 1.0
C      1  0.5083160000000  0.4341060000000  0.5224230000000 1.0
C      1  0.5094230000000  0.4751970000000  0.4347070000000 1.0
C      1  0.5110630000000  0.5658180000000  0.4726700000000 1.0
C      1  0.5154890000000  0.5259930000000  0.5670060000000 1.0
END
