TITL C-2782233-7966-144 0.118864695352895 125000 -499.13117999035 0 0 90 (C1) n - 1
REM
REM in /home/nfs/bkarasulu/CARBON/AIRSS/Generating-Clusters/REBO/Higher-Symm/SD-CG/HFTN-CG
REM
REM
REM
REM
REM
REM ./C.cell (12c818d87b63d06a65506943cc24bca4)
REM
REM compiler GCC version 9.2.1 20190827 (Red Hat 9.2.1-1)
REM options -cpp -mtune=generic -march=x86-64 -g -O0 -fpre-include=/usr/include/finclude/math-vector-fortran.h
REM seed 1313893040 -1346343227 -1748536687 1037333876 -301274350 -1499163461 -1950845362 -2060961646 -770022060 -68811691 -111648611 -635501380 2051435895 -1514671887 1424671462 -1240332199 -1693890552 915021036 -2010550832 -51530969 177284412 -1032947754 -1699063014 1352080058 1714430545 -528372879 -595026316 -1939733976 1889119536 1994810814 -1783325327 -1790644285 1301073622
REM
CELL 1.54180   50.00000   50.00000   50.00000   90.00000   90.00000   90.00000
LATT -1
SFAC C  
C      1  0.4869990000000  0.5293940000000  0.5776470000000 1.0
C      1  0.5105150000000  0.4685970000000  0.5786730000000 1.0
C      1  0.5056730000000  0.5244360000000  0.4120280000000 1.0
C      1  0.4895080000000  0.4776760000000  0.4118330000000 1.0
C      1  0.5589710000000  0.4822450000000  0.5594640000000 1.0
C      1  0.4428810000000  0.5155080000000  0.5534510000000 1.0
C      1  0.4476730000000  0.4735000000000  0.4365150000000 1.0
C      1  0.5446830000000  0.5370480000000  0.4396860000000 1.0
C      1  0.5496580000000  0.4748440000000  0.4412610000000 1.0
C      1  0.4509650000000  0.5340650000000  0.4410300000000 1.0
C      1  0.4528690000000  0.4711840000000  0.5534230000000 1.0
C      1  0.5471390000000  0.5331600000000  0.5608240000000 1.0
C      1  0.5010070000000  0.4560760000000  0.5190830000000 1.0
C      1  0.5055360000000  0.5371790000000  0.5151850000000 1.0
C      1  0.5040290000000  0.4579740000000  0.4792670000000 1.0
C      1  0.4906910000000  0.5493160000000  0.4714530000000 1.0
C      1  0.5191960000000  0.5272640000000  0.5432710000000 1.0
C      1  0.4843150000000  0.4685650000000  0.5439620000000 1.0
C      1  0.4840790000000  0.5410220000000  0.4412720000000 1.0
C      1  0.5187950000000  0.4705430000000  0.4532890000000 1.0
C      1  0.4473910000000  0.5006840000000  0.4806360000000 1.0
C      1  0.5493120000000  0.5033620000000  0.4856800000000 1.0
C      1  0.5526320000000  0.5067630000000  0.5135630000000 1.0
C      1  0.4475000000000  0.4938250000000  0.5082880000000 1.0
C      1  0.5640270000000  0.5674640000000  0.5293160000000 1.0
C      1  0.4310390000000  0.4354210000000  0.5297810000000 1.0
C      1  0.4652450000000  0.5500830000000  0.4866980000000 1.0
C      1  0.5340480000000  0.4544200000000  0.4866230000000 1.0
C      1  0.5424830000000  0.4241530000000  0.4935120000000 1.0
C      1  0.4545270000000  0.5786000000000  0.4924160000000 1.0
C      1  0.4368810000000  0.4120890000000  0.5164970000000 1.0
C      1  0.5665390000000  0.5845370000000  0.5081190000000 1.0
C      1  0.4455220000000  0.5794000000000  0.5201570000000 1.0
C      1  0.5559410000000  0.4208430000000  0.5192250000000 1.0
C      1  0.5642740000000  0.5717160000000  0.4822470000000 1.0
C      1  0.4423330000000  0.4158270000000  0.4884440000000 1.0
C      1  0.4721450000000  0.5425110000000  0.5155620000000 1.0
C      1  0.5350430000000  0.4547180000000  0.5182350000000 1.0
C      1  0.5183010000000  0.5468630000000  0.4890330000000 1.0
C      1  0.4859010000000  0.4395260000000  0.4959530000000 1.0
C      1  0.5815210000000  0.4641610000000  0.4819780000000 1.0
C      1  0.4165300000000  0.5416410000000  0.4819330000000 1.0
C      1  0.4092990000000  0.4605900000000  0.5078250000000 1.0
C      1  0.5881630000000  0.5249080000000  0.5145070000000 1.0
C      1  0.4593540000000  0.5136210000000  0.5271000000000 1.0
C      1  0.5456540000000  0.4837050000000  0.5312720000000 1.0
C      1  0.5392010000000  0.5270190000000  0.4705350000000 1.0
C      1  0.4578990000000  0.4826190000000  0.4615580000000 1.0
C      1  0.4771140000000  0.4754450000000  0.5759650000000 1.0
C      1  0.5206770000000  0.5242510000000  0.5771740000000 1.0
C      1  0.5221450000000  0.4775660000000  0.4214370000000 1.0
C      1  0.4726150000000  0.5194800000000  0.4191310000000 1.0
C      1  0.5528890000000  0.4748460000000  0.4736600000000 1.0
C      1  0.4444720000000  0.5305970000000  0.4722040000000 1.0
C      1  0.4361110000000  0.4695190000000  0.5236340000000 1.0
C      1  0.5602560000000  0.5335970000000  0.5294560000000 1.0
C      1  0.5101540000000  0.5258150000000  0.4563290000000 1.0
C      1  0.4876050000000  0.4809720000000  0.4617160000000 1.0
C      1  0.4902860000000  0.5128150000000  0.5340970000000 1.0
C      1  0.5143270000000  0.4815830000000  0.5381550000000 1.0
C      1  0.5694070000000  0.6114740000000  0.5101930000000 1.0
C      1  0.4389430000000  0.3877050000000  0.5282740000000 1.0
C      1  0.4521210000000  0.5982510000000  0.4733570000000 1.0
C      1  0.5381020000000  0.4040030000000  0.4751600000000 1.0
C      1  0.5377760000000  0.5668850000000  0.4729290000000 1.0
C      1  0.4689790000000  0.4232810000000  0.4807340000000 1.0
C      1  0.4639860000000  0.5637130000000  0.5370880000000 1.0
C      1  0.5392570000000  0.4330330000000  0.5423120000000 1.0
C      1  0.5440260000000  0.4687550000000  0.5781350000000 1.0
C      1  0.4542960000000  0.5299810000000  0.5735830000000 1.0
C      1  0.4635930000000  0.4698670000000  0.4139620000000 1.0
C      1  0.5292770000000  0.5367680000000  0.4170220000000 1.0
C      1  0.5755170000000  0.4740530000000  0.4262780000000 1.0
C      1  0.4283580000000  0.5480230000000  0.4263540000000 1.0
C      1  0.4334290000000  0.4466200000000  0.5561980000000 1.0
C      1  0.5603860000000  0.5618680000000  0.5575680000000 1.0
C      1  0.5837410000000  0.4277100000000  0.5176200000000 1.0
C      1  0.4174040000000  0.5735720000000  0.5215210000000 1.0
C      1  0.4200580000000  0.4262600000000  0.4739410000000 1.0
C      1  0.5855390000000  0.5542970000000  0.4751230000000 1.0
C      1  0.4067800000000  0.5568050000000  0.5022520000000 1.0
C      1  0.5923070000000  0.4468290000000  0.4997450000000 1.0
C      1  0.5964330000000  0.5343280000000  0.4903460000000 1.0
C      1  0.4045430000000  0.4457970000000  0.4855790000000 1.0
C      1  0.5296740000000  0.4429610000000  0.5667260000000 1.0
C      1  0.4700900000000  0.5552590000000  0.5631370000000 1.0
C      1  0.4767870000000  0.4170680000000  0.4552110000000 1.0
C      1  0.5282970000000  0.5777640000000  0.4492580000000 1.0
C      1  0.4984070000000  0.5006830000000  0.4368470000000 1.0
C      1  0.4999490000000  0.4992400000000  0.5642580000000 1.0
END
