TITL C-2782240-8521-1234 0.00225985248724492 125000 -607.949625094887 0 0 105 (C1) n - 1
REM
REM in /home/nfs/bkarasulu/CARBON/AIRSS/Generating-Clusters/REBO/Higher-Symm/SD-CG/HFTN-CG
REM
REM
REM
REM
REM
REM ./C.cell (12c818d87b63d06a65506943cc24bca4)
REM
REM compiler GCC version 9.2.1 20190827 (Red Hat 9.2.1-1)
REM options -cpp -mtune=generic -march=x86-64 -g -O0 -fpre-include=/usr/include/finclude/math-vector-fortran.h
REM seed -1699902571 -886423735 1175567488 -1120245096 -359940578 676401791 -2096321457 931606079 1673079967 571240609 1502726041 780185677 -13381377 1478087993 -999858553 -1168684165 27817735 -1070276452 -1779880752 971808005 -4546416 2030837383 609832085 1142375639 969047393 983121146 1603717077 1019241003 -105113853 1166178532 2020993780 1392922683 66416829
REM
CELL 1.54180   50.00000   50.00000   50.00000   90.00000   90.00000   90.00000
LATT -1
SFAC C  
C      1  0.4809240000000  0.5538490000000  0.5503430000000 1.0
C      1  0.5185560000000  0.5477760000000  0.4515250000000 1.0
C      1  0.5150160000000  0.5511460000000  0.5524200000000 1.0
C      1  0.4853480000000  0.5468910000000  0.4489910000000 1.0
C      1  0.5237300000000  0.4642080000000  0.5168270000000 1.0
C      1  0.4773690000000  0.4713380000000  0.4811220000000 1.0
C      1  0.4699560000000  0.4669290000000  0.5141890000000 1.0
C      1  0.5222570000000  0.4726850000000  0.4839170000000 1.0
C      1  0.5163830000000  0.4201720000000  0.4697860000000 1.0
C      1  0.4831290000000  0.4164490000000  0.5283690000000 1.0
C      1  0.4825970000000  0.4207540000000  0.4696000000000 1.0
C      1  0.5171770000000  0.4140660000000  0.5302680000000 1.0
C      1  0.4573590000000  0.5910910000000  0.5093720000000 1.0
C      1  0.5424880000000  0.5874780000000  0.4812310000000 1.0
C      1  0.5409230000000  0.5900240000000  0.5104830000000 1.0
C      1  0.4584370000000  0.5869500000000  0.4803390000000 1.0
C      1  0.4849860000000  0.5266100000000  0.5696240000000 1.0
C      1  0.5116590000000  0.5295910000000  0.4244990000000 1.0
C      1  0.5157140000000  0.5234550000000  0.5722410000000 1.0
C      1  0.4820460000000  0.5300170000000  0.4192690000000 1.0
C      1  0.4322600000000  0.5430920000000  0.4875560000000 1.0
C      1  0.5667260000000  0.5452450000000  0.5150060000000 1.0
C      1  0.5748700000000  0.5453920000000  0.4847380000000 1.0
C      1  0.4263540000000  0.5479980000000  0.5179460000000 1.0
C      1  0.4571250000000  0.4796880000000  0.4270300000000 1.0
C      1  0.5411790000000  0.4766590000000  0.5709910000000 1.0
C      1  0.5416360000000  0.4820970000000  0.4262580000000 1.0
C      1  0.4584090000000  0.4798130000000  0.5734180000000 1.0
C      1  0.4395390000000  0.5034170000000  0.4434100000000 1.0
C      1  0.5546200000000  0.5029920000000  0.5538260000000 1.0
C      1  0.5629890000000  0.5042410000000  0.4412230000000 1.0
C      1  0.4416700000000  0.5058960000000  0.5574460000000 1.0
C      1  0.5244770000000  0.5521650000000  0.4854570000000 1.0
C      1  0.4742170000000  0.5555970000000  0.5163470000000 1.0
C      1  0.4770870000000  0.5517300000000  0.4826900000000 1.0
C      1  0.5224930000000  0.5555720000000  0.5189170000000 1.0
C      1  0.5329020000000  0.4418260000000  0.4850370000000 1.0
C      1  0.4629010000000  0.4356720000000  0.5159580000000 1.0
C      1  0.4654860000000  0.4412050000000  0.4840160000000 1.0
C      1  0.5361080000000  0.4356180000000  0.5170050000000 1.0
C      1  0.5486640000000  0.5549110000000  0.5489470000000 1.0
C      1  0.4527660000000  0.5395490000000  0.4535300000000 1.0
C      1  0.4483500000000  0.5583350000000  0.5489900000000 1.0
C      1  0.5514340000000  0.5406400000000  0.4530490000000 1.0
C      1  0.4826540000000  0.5245170000000  0.5235080000000 1.0
C      1  0.5180580000000  0.5202920000000  0.4802760000000 1.0
C      1  0.5121300000000  0.5234510000000  0.5240170000000 1.0
C      1  0.4876560000000  0.5202640000000  0.4784630000000 1.0
C      1  0.4339880000000  0.4722100000000  0.4511670000000 1.0
C      1  0.5642890000000  0.4730280000000  0.5460120000000 1.0
C      1  0.5656420000000  0.4721930000000  0.4485220000000 1.0
C      1  0.4341260000000  0.4749890000000  0.5499070000000 1.0
C      1  0.4689970000000  0.5060560000000  0.5864950000000 1.0
C      1  0.5281360000000  0.5101270000000  0.4139500000000 1.0
C      1  0.5318790000000  0.5020110000000  0.5865960000000 1.0
C      1  0.4657460000000  0.5089950000000  0.4120050000000 1.0
C      1  0.4245350000000  0.5222250000000  0.4628260000000 1.0
C      1  0.5695690000000  0.5283560000000  0.5449170000000 1.0
C      1  0.5801290000000  0.5229110000000  0.4598070000000 1.0
C      1  0.4270730000000  0.5317180000000  0.5482140000000 1.0
C      1  0.4911840000000  0.4293000000000  0.5562970000000 1.0
C      1  0.5230170000000  0.4313410000000  0.4391910000000 1.0
C      1  0.5221060000000  0.4243320000000  0.5616560000000 1.0
C      1  0.4915280000000  0.4332190000000  0.4415500000000 1.0
C      1  0.5754090000000  0.4736190000000  0.5134950000000 1.0
C      1  0.4232400000000  0.4733090000000  0.4837680000000 1.0
C      1  0.4222990000000  0.4749470000000  0.5177210000000 1.0
C      1  0.5777280000000  0.4717960000000  0.4805170000000 1.0
C      1  0.5143650000000  0.5818780000000  0.4716700000000 1.0
C      1  0.4851050000000  0.5874930000000  0.5207550000000 1.0
C      1  0.4868540000000  0.5816860000000  0.4709480000000 1.0
C      1  0.5125350000000  0.5873720000000  0.5205710000000 1.0
C      1  0.5172830000000  0.4850390000000  0.4576550000000 1.0
C      1  0.4807990000000  0.4791600000000  0.5405280000000 1.0
C      1  0.4856710000000  0.4831340000000  0.4547970000000 1.0
C      1  0.5120480000000  0.4760430000000  0.5436180000000 1.0
C      1  0.5631710000000  0.4455330000000  0.5277210000000 1.0
C      1  0.4382700000000  0.4466740000000  0.4715760000000 1.0
C      1  0.4383920000000  0.4485270000000  0.5304210000000 1.0
C      1  0.5589450000000  0.4473320000000  0.4696950000000 1.0
C      1  0.5232260000000  0.5037370000000  0.5476670000000 1.0
C      1  0.4708180000000  0.5097940000000  0.4514660000000 1.0
C      1  0.4713820000000  0.5065870000000  0.5466970000000 1.0
C      1  0.5336270000000  0.5109760000000  0.4533430000000 1.0
C      1  0.5516150000000  0.5204700000000  0.4875000000000 1.0
C      1  0.4503760000000  0.5235390000000  0.5172270000000 1.0
C      1  0.4560120000000  0.5181040000000  0.4869730000000 1.0
C      1  0.5422490000000  0.5210250000000  0.5173500000000 1.0
C      1  0.5239670000000  0.3937060000000  0.4847760000000 1.0
C      1  0.4778770000000  0.3915090000000  0.5093570000000 1.0
C      1  0.4770530000000  0.3934920000000  0.4841900000000 1.0
C      1  0.5242950000000  0.3909480000000  0.5098040000000 1.0
C      1  0.5608140000000  0.5693630000000  0.4689890000000 1.0
C      1  0.4384440000000  0.5772780000000  0.5258160000000 1.0
C      1  0.4412400000000  0.5674080000000  0.4693680000000 1.0
C      1  0.5580100000000  0.5740890000000  0.5262250000000 1.0
C      1  0.4822960000000  0.4617450000000  0.4304750000000 1.0
C      1  0.5177380000000  0.4558530000000  0.5691660000000 1.0
C      1  0.5164100000000  0.4628200000000  0.4319270000000 1.0
C      1  0.4837490000000  0.4592980000000  0.5663520000000 1.0
C      1  0.5730820000000  0.5062770000000  0.5187450000000 1.0
C      1  0.4251510000000  0.5040630000000  0.4908450000000 1.0
C      1  0.4206650000000  0.5084530000000  0.5237490000000 1.0
C      1  0.5805280000000  0.5026330000000  0.4865560000000 1.0
C      1  0.4982880000000  0.4805490000000  0.5047040000000 1.0
END
