TITL C-2782238-9940-80 -0.000255834624163854 125000 -190.641016629972 0 0 34 (C2) n - 1
REM
REM in /home/nfs/bkarasulu/CARBON/AIRSS/Generating-Clusters/REBO/Higher-Symm/SD-CG/HFTN-CG
REM
REM
REM
REM
REM
REM ./C.cell (12c818d87b63d06a65506943cc24bca4)
REM
REM compiler GCC version 9.2.1 20190827 (Red Hat 9.2.1-1)
REM options -cpp -mtune=generic -march=x86-64 -g -O0 -fpre-include=/usr/include/finclude/math-vector-fortran.h
REM seed 1105651646 -1232605198 1374787810 1705096436 -2145269343 1191110495 -379177 -1098424091 1037621272 194565222 -1714029469 1632725272 1478832221 1269974866 1965435549 1782142789 -1272500999 2082244817 -721898280 751097830 -937547130 1853904479 274062513 1136045124 -1198635727 34058322 -1277761249 1655351814 -335755129 41615308 1896154221 624672321 1313503801
REM
CELL 1.54180   50.00000   50.00000   50.00000   90.00000   90.00000   90.00000
LATT -1
SFAC C  
C      1  0.4604560000000  0.5242630000000  0.5430820000000 1.0
C      1  0.5395480000000  0.5242580000000  0.4569190000000 1.0
C      1  0.5569630000000  0.4544140000000  0.4979480000000 1.0
C      1  0.4430290000000  0.4544240000000  0.5020500000000 1.0
C      1  0.4931690000000  0.4991170000000  0.5142650000000 1.0
C      1  0.5068300000000  0.4991170000000  0.4857350000000 1.0
C      1  0.4751960000000  0.5030860000000  0.5618630000000 1.0
C      1  0.5248050000000  0.5030840000000  0.4381370000000 1.0
C      1  0.5127060000000  0.5672750000000  0.5056070000000 1.0
C      1  0.4873060000000  0.5672780000000  0.4943950000000 1.0
C      1  0.5232710000000  0.5273140000000  0.4820000000000 1.0
C      1  0.4767330000000  0.5273180000000  0.5180010000000 1.0
C      1  0.5448060000000  0.4841460000000  0.4980870000000 1.0
C      1  0.4551910000000  0.4841540000000  0.5019120000000 1.0
C      1  0.5368990000000  0.4354790000000  0.5021970000000 1.0
C      1  0.4630900000000  0.4354850000000  0.4978000000000 1.0
C      1  0.5118080000000  0.4482450000000  0.5076120000000 1.0
C      1  0.4881830000000  0.4482480000000  0.4923860000000 1.0
C      1  0.4780970000000  0.4864730000000  0.4537620000000 1.0
C      1  0.5219010000000  0.4864670000000  0.5462380000000 1.0
C      1  0.5280580000000  0.5433780000000  0.5054040000000 1.0
C      1  0.4719500000000  0.5433840000000  0.4945970000000 1.0
C      1  0.4648450000000  0.4918130000000  0.5313820000000 1.0
C      1  0.5351530000000  0.4918090000000  0.4686170000000 1.0
C      1  0.5424800000000  0.5279870000000  0.5254340000000 1.0
C      1  0.4575250000000  0.5279960000000  0.4745670000000 1.0
C      1  0.4814080000000  0.4771250000000  0.4830970000000 1.0
C      1  0.5185880000000  0.4771210000000  0.5169020000000 1.0
C      1  0.4968400000000  0.5043220000000  0.4346360000000 1.0
C      1  0.5031610000000  0.5043180000000  0.5653640000000 1.0
C      1  0.4408110000000  0.5078820000000  0.4872050000000 1.0
C      1  0.5591910000000  0.5078710000000  0.5127960000000 1.0
C      1  0.5288420000000  0.5176700000000  0.5487760000000 1.0
C      1  0.4711620000000  0.5176770000000  0.4512250000000 1.0
END
