TITL C-2782240-8521-1063 0.00283841216640288 125000 -799.871131939727 0 0 133 (C1) n - 1
REM
REM in /home/nfs/bkarasulu/CARBON/AIRSS/Generating-Clusters/REBO/Higher-Symm/SD-CG/HFTN-CG
REM
REM
REM
REM
REM
REM ./C.cell (12c818d87b63d06a65506943cc24bca4)
REM
REM compiler GCC version 9.2.1 20190827 (Red Hat 9.2.1-1)
REM options -cpp -mtune=generic -march=x86-64 -g -O0 -fpre-include=/usr/include/finclude/math-vector-fortran.h
REM seed 1556870834 -500023155 -1777735061 1837063762 -683871174 -157861909 -1972493372 1578438023 -203779576 1165375630 -448111188 451011773 143557403 1384550472 723818371 -1003490697 1166977343 -1891693570 -243623031 -1929718546 -1492166095 -848062017 1256966770 -1692930935 -398181139 1484548599 1315014712 696674760 20726151 -352913190 772952174 -214855978 453487682
REM
CELL 1.54180   50.00000   50.00000   50.00000   90.00000   90.00000   90.00000
LATT -1
SFAC C  
C      1  0.5950430000000  0.5120740000000  0.6356840000000 1.0
C      1  0.4218280000000  0.5211280000000  0.3540310000000 1.0
C      1  0.6028380000000  0.5329730000000  0.6192020000000 1.0
C      1  0.4078670000000  0.5378130000000  0.3712460000000 1.0
C      1  0.5308030000000  0.4757360000000  0.4271550000000 1.0
C      1  0.4548820000000  0.4704660000000  0.5867480000000 1.0
C      1  0.5439440000000  0.5293170000000  0.4161590000000 1.0
C      1  0.4611970000000  0.5207330000000  0.5749200000000 1.0
C      1  0.4024200000000  0.4848070000000  0.5371310000000 1.0
C      1  0.6025510000000  0.4831050000000  0.4636910000000 1.0
C      1  0.4037310000000  0.5124280000000  0.5347860000000 1.0
C      1  0.6057430000000  0.5122170000000  0.4666860000000 1.0
C      1  0.5100630000000  0.5245900000000  0.5860370000000 1.0
C      1  0.4935080000000  0.5335500000000  0.4147910000000 1.0
C      1  0.5105780000000  0.4706020000000  0.5944520000000 1.0
C      1  0.4845170000000  0.4657710000000  0.4029030000000 1.0
C      1  0.5828920000000  0.4752130000000  0.4870000000000 1.0
C      1  0.4124720000000  0.4698720000000  0.5113880000000 1.0
C      1  0.5875190000000  0.5147070000000  0.4945030000000 1.0
C      1  0.4146320000000  0.5218470000000  0.5059170000000 1.0
C      1  0.5467040000000  0.5539960000000  0.4320720000000 1.0
C      1  0.4434190000000  0.5688300000000  0.5595500000000 1.0
C      1  0.5473020000000  0.4477520000000  0.4312760000000 1.0
C      1  0.4485750000000  0.4448360000000  0.5722280000000 1.0
C      1  0.5084180000000  0.4160350000000  0.5208890000000 1.0
C      1  0.4911400000000  0.4158820000000  0.4802850000000 1.0
C      1  0.5074310000000  0.5763810000000  0.5216180000000 1.0
C      1  0.4905410000000  0.5761440000000  0.4831400000000 1.0
C      1  0.4706860000000  0.3948000000000  0.4924610000000 1.0
C      1  0.5313030000000  0.3980410000000  0.5083960000000 1.0
C      1  0.4682620000000  0.5959180000000  0.4938120000000 1.0
C      1  0.5313540000000  0.5932690000000  0.5096380000000 1.0
C      1  0.4785600000000  0.4122540000000  0.5182320000000 1.0
C      1  0.5214220000000  0.4155420000000  0.4831420000000 1.0
C      1  0.4774620000000  0.5800170000000  0.5206510000000 1.0
C      1  0.5205190000000  0.5770520000000  0.4839010000000 1.0
C      1  0.5731070000000  0.5710850000000  0.5244990000000 1.0
C      1  0.4337710000000  0.5709510000000  0.4695540000000 1.0
C      1  0.5698110000000  0.4238790000000  0.5242770000000 1.0
C      1  0.4330730000000  0.4205520000000  0.4762720000000 1.0
C      1  0.4842440000000  0.4748310000000  0.4779400000000 1.0
C      1  0.5146410000000  0.4757100000000  0.5223640000000 1.0
C      1  0.4810490000000  0.5149400000000  0.4792940000000 1.0
C      1  0.5143230000000  0.5155130000000  0.5229850000000 1.0
C      1  0.5195920000000  0.4468080000000  0.5151900000000 1.0
C      1  0.4767840000000  0.4456530000000  0.4839530000000 1.0
C      1  0.5166520000000  0.5451320000000  0.5138700000000 1.0
C      1  0.4783740000000  0.5446040000000  0.4851880000000 1.0
C      1  0.4312020000000  0.4434690000000  0.5221560000000 1.0
C      1  0.5655630000000  0.4476140000000  0.4787650000000 1.0
C      1  0.4336530000000  0.5485920000000  0.5148610000000 1.0
C      1  0.5600160000000  0.5517090000000  0.4822020000000 1.0
C      1  0.4953700000000  0.5338890000000  0.4473060000000 1.0
C      1  0.4902000000000  0.5381890000000  0.5542280000000 1.0
C      1  0.5036150000000  0.4446960000000  0.4436550000000 1.0
C      1  0.4918980000000  0.4498510000000  0.5552790000000 1.0
C      1  0.4798700000000  0.5621120000000  0.4564680000000 1.0
C      1  0.5164440000000  0.5571220000000  0.5457030000000 1.0
C      1  0.4763050000000  0.4307930000000  0.4535900000000 1.0
C      1  0.5189300000000  0.4341780000000  0.5461820000000 1.0
C      1  0.5338580000000  0.4463110000000  0.4880520000000 1.0
C      1  0.4635620000000  0.4400050000000  0.5115780000000 1.0
C      1  0.5297820000000  0.5442900000000  0.4859200000000 1.0
C      1  0.4662580000000  0.5517490000000  0.5124350000000 1.0
C      1  0.4667430000000  0.5871530000000  0.5477710000000 1.0
C      1  0.5296630000000  0.5893860000000  0.4569280000000 1.0
C      1  0.4680930000000  0.4084980000000  0.5470960000000 1.0
C      1  0.5327680000000  0.4084100000000  0.4553120000000 1.0
C      1  0.5701330000000  0.4491040000000  0.4477820000000 1.0
C      1  0.4268180000000  0.4474500000000  0.5535750000000 1.0
C      1  0.5664880000000  0.5511890000000  0.4541100000000 1.0
C      1  0.4270950000000  0.5523200000000  0.5446840000000 1.0
C      1  0.5663340000000  0.5144380000000  0.4697880000000 1.0
C      1  0.4409380000000  0.5096750000000  0.5205150000000 1.0
C      1  0.5605730000000  0.4843630000000  0.4639820000000 1.0
C      1  0.4404900000000  0.4825170000000  0.5224870000000 1.0
C      1  0.4701670000000  0.4310170000000  0.5623140000000 1.0
C      1  0.5280270000000  0.4286160000000  0.4376420000000 1.0
C      1  0.4745710000000  0.5638250000000  0.5703250000000 1.0
C      1  0.5268800000000  0.5736020000000  0.4347300000000 1.0
C      1  0.4565460000000  0.5139680000000  0.4556820000000 1.0
C      1  0.5414930000000  0.5143900000000  0.5434560000000 1.0
C      1  0.4569370000000  0.4849500000000  0.4688310000000 1.0
C      1  0.5418030000000  0.4871350000000  0.5279200000000 1.0
C      1  0.5067710000000  0.5087860000000  0.4600900000000 1.0
C      1  0.4814200000000  0.5086350000000  0.5489850000000 1.0
C      1  0.5089840000000  0.4757990000000  0.4540960000000 1.0
C      1  0.4878600000000  0.4797670000000  0.5413370000000 1.0
C      1  0.5711860000000  0.4820910000000  0.5162330000000 1.0
C      1  0.4287920000000  0.4784970000000  0.4826940000000 1.0
C      1  0.5686240000000  0.5159350000000  0.5226360000000 1.0
C      1  0.4293520000000  0.5123550000000  0.4765890000000 1.0
C      1  0.5558700000000  0.5922820000000  0.5209550000000 1.0
C      1  0.4451190000000  0.5942240000000  0.4793840000000 1.0
C      1  0.5559720000000  0.4006560000000  0.5195810000000 1.0
C      1  0.4457120000000  0.3966050000000  0.4813320000000 1.0
C      1  0.4789760000000  0.4977660000000  0.4048310000000 1.0
C      1  0.5308170000000  0.4901220000000  0.5965070000000 1.0
C      1  0.4644500000000  0.5196880000000  0.4265410000000 1.0
C      1  0.5382110000000  0.5145850000000  0.5734600000000 1.0
C      1  0.4629410000000  0.4668930000000  0.5277240000000 1.0
C      1  0.5331510000000  0.4768810000000  0.4760020000000 1.0
C      1  0.4627500000000  0.5248060000000  0.5284800000000 1.0
C      1  0.5342930000000  0.5118770000000  0.4761990000000 1.0
C      1  0.5901190000000  0.4703840000000  0.4409840000000 1.0
C      1  0.4131430000000  0.4719550000000  0.5601070000000 1.0
C      1  0.5856880000000  0.5275310000000  0.4450280000000 1.0
C      1  0.4166760000000  0.5279970000000  0.5552910000000 1.0
C      1  0.4338120000000  0.5142420000000  0.5741730000000 1.0
C      1  0.5668780000000  0.5131960000000  0.4228060000000 1.0
C      1  0.4298480000000  0.4865210000000  0.5793620000000 1.0
C      1  0.5615280000000  0.4850030000000  0.4316350000000 1.0
C      1  0.4313450000000  0.4447990000000  0.4880430000000 1.0
C      1  0.5707250000000  0.4480720000000  0.5125300000000 1.0
C      1  0.4321190000000  0.5463030000000  0.4809530000000 1.0
C      1  0.5715480000000  0.5472430000000  0.5092310000000 1.0
C      1  0.4993900000000  0.5629630000000  0.4297480000000 1.0
C      1  0.5065860000000  0.5556560000000  0.5782470000000 1.0
C      1  0.4794400000000  0.4452000000000  0.4226640000000 1.0
C      1  0.5159990000000  0.4496870000000  0.5763270000000 1.0
C      1  0.4549810000000  0.5103870000000  0.3889830000000 1.0
C      1  0.5555850000000  0.5023850000000  0.6072920000000 1.0
C      1  0.4396430000000  0.5287890000000  0.4073790000000 1.0
C      1  0.5646710000000  0.5252120000000  0.5894950000000 1.0
C      1  0.4828930000000  0.4812820000000  0.5930490000000 1.0
C      1  0.5111560000000  0.4872500000000  0.4067730000000 1.0
C      1  0.4855100000000  0.5099670000000  0.5887140000000 1.0
C      1  0.5186820000000  0.5185430000000  0.4062960000000 1.0
C      1  0.5722750000000  0.4974650000000  0.6297440000000 1.0
C      1  0.4445730000000  0.5080390000000  0.3629010000000 1.0
C      1  0.5877180000000  0.5390420000000  0.5968050000000 1.0
C      1  0.4168920000000  0.5412540000000  0.3972130000000 1.0
C      1  0.4965620000000  0.4951810000000  0.5022470000000 1.0
END
