TITL C-2782228-2999-789 -0.000450653848183583 125000 -682.870086269834 0 0 117 (C1) n - 1
REM
REM in /home/nfs/bkarasulu/CARBON/AIRSS/Generating-Clusters/REBO/Higher-Symm/SD-CG/HFTN-CG
REM
REM
REM
REM
REM
REM ./C.cell (12c818d87b63d06a65506943cc24bca4)
REM
REM compiler GCC version 9.2.1 20190827 (Red Hat 9.2.1-1)
REM options -cpp -mtune=generic -march=x86-64 -g -O0 -fpre-include=/usr/include/finclude/math-vector-fortran.h
REM seed 854338351 -1014404629 -68739586 -1655906680 -1257527585 -1323324000 1780376344 1592274694 1164473354 1797214823 789692758 -425115066 -792116804 -751267449 1523164608 1500065947 781128716 -804185372 -760329108 1209205482 -1630347203 1094879174 -1466251305 925382090 1584381820 -1735648997 2113914021 1966140505 356800603 -794541604 -349015443 1023906615 -256130252
REM
CELL 1.54180   50.00000   50.00000   50.00000   90.00000   90.00000   90.00000
LATT -1
SFAC C  
C      1  0.5093520000000  0.5510860000000  0.4440910000000 1.0
C      1  0.5085030000000  0.4291790000000  0.4752510000000 1.0
C      1  0.4968790000000  0.5202170000000  0.5791220000000 1.0
C      1  0.4936030000000  0.5565950000000  0.5536420000000 1.0
C      1  0.4962510000000  0.4303360000000  0.5179200000000 1.0
C      1  0.4970000000000  0.5150970000000  0.4304330000000 1.0
C      1  0.5870190000000  0.4783590000000  0.5490360000000 1.0
C      1  0.5852420000000  0.5577000000000  0.4975270000000 1.0
C      1  0.5833320000000  0.4730080000000  0.4523950000000 1.0
C      1  0.4166670000000  0.4759730000000  0.4577690000000 1.0
C      1  0.4231820000000  0.5476690000000  0.5037810000000 1.0
C      1  0.4127420000000  0.4690220000000  0.5489840000000 1.0
C      1  0.3946430000000  0.5115690000000  0.5196460000000 1.0
C      1  0.3904570000000  0.5134220000000  0.4874790000000 1.0
C      1  0.3951450000000  0.4849100000000  0.5012120000000 1.0
C      1  0.6038730000000  0.5097430000000  0.4800820000000 1.0
C      1  0.6073170000000  0.5115730000000  0.5119200000000 1.0
C      1  0.6060900000000  0.4830100000000  0.4978220000000 1.0
C      1  0.4727970000000  0.4250910000000  0.4423150000000 1.0
C      1  0.4706970000000  0.4908230000000  0.5860300000000 1.0
C      1  0.4765920000000  0.5702710000000  0.4618450000000 1.0
C      1  0.5300190000000  0.4293570000000  0.5544860000000 1.0
C      1  0.5284450000000  0.4896640000000  0.4103130000000 1.0
C      1  0.5327320000000  0.5762180000000  0.5361410000000 1.0
C      1  0.5070280000000  0.5621670000000  0.4208030000000 1.0
C      1  0.5097020000000  0.4021020000000  0.4739970000000 1.0
C      1  0.4888950000000  0.5282540000000  0.6036820000000 1.0
C      1  0.5014410000000  0.5720290000000  0.5738760000000 1.0
C      1  0.4971060000000  0.4027570000000  0.5175340000000 1.0
C      1  0.4997130000000  0.5258560000000  0.4057360000000 1.0
C      1  0.4139520000000  0.5204230000000  0.5412560000000 1.0
C      1  0.4074060000000  0.5231920000000  0.4665340000000 1.0
C      1  0.4073690000000  0.4601850000000  0.5018940000000 1.0
C      1  0.5830590000000  0.5222120000000  0.4615100000000 1.0
C      1  0.5918570000000  0.5240670000000  0.5321690000000 1.0
C      1  0.5870410000000  0.4600820000000  0.5007230000000 1.0
C      1  0.5320660000000  0.4462040000000  0.4752680000000 1.0
C      1  0.5229390000000  0.5041460000000  0.5656370000000 1.0
C      1  0.5308390000000  0.5501740000000  0.4693160000000 1.0
C      1  0.4694670000000  0.4449210000000  0.5275180000000 1.0
C      1  0.4739970000000  0.5040170000000  0.4417270000000 1.0
C      1  0.4688710000000  0.5492140000000  0.5381940000000 1.0
C      1  0.4563070000000  0.4940620000000  0.5581440000000 1.0
C      1  0.4572450000000  0.5478820000000  0.4742080000000 1.0
C      1  0.4545740000000  0.4451140000000  0.4605040000000 1.0
C      1  0.5431690000000  0.4954870000000  0.4385790000000 1.0
C      1  0.5476030000000  0.5489300000000  0.5296030000000 1.0
C      1  0.5450200000000  0.4504680000000  0.5327040000000 1.0
C      1  0.4589550000000  0.5874880000000  0.5440600000000 1.0
C      1  0.4537730000000  0.5018700000000  0.4073750000000 1.0
C      1  0.4510380000000  0.4148920000000  0.5463660000000 1.0
C      1  0.5520760000000  0.5895190000000  0.4498830000000 1.0
C      1  0.5507460000000  0.5034270000000  0.5942070000000 1.0
C      1  0.5466230000000  0.4180030000000  0.4495670000000 1.0
C      1  0.5414270000000  0.5264590000000  0.5493120000000 1.0
C      1  0.5538620000000  0.5290150000000  0.4731310000000 1.0
C      1  0.5537960000000  0.4559860000000  0.4994420000000 1.0
C      1  0.4513360000000  0.5209910000000  0.4577980000000 1.0
C      1  0.4477940000000  0.5237890000000  0.5463940000000 1.0
C      1  0.4455000000000  0.4487790000000  0.5048660000000 1.0
C      1  0.4782950000000  0.4904650000000  0.4029290000000 1.0
C      1  0.4783260000000  0.4254530000000  0.5531990000000 1.0
C      1  0.4846960000000  0.5916150000000  0.5365290000000 1.0
C      1  0.5219550000000  0.4930410000000  0.5970630000000 1.0
C      1  0.5221130000000  0.4202460000000  0.4387190000000 1.0
C      1  0.5273540000000  0.5822250000000  0.4615920000000 1.0
C      1  0.4841090000000  0.4442640000000  0.4755120000000 1.0
C      1  0.4880770000000  0.5170910000000  0.5513390000000 1.0
C      1  0.4935390000000  0.5339370000000  0.4652740000000 1.0
C      1  0.5174960000000  0.4478490000000  0.5148040000000 1.0
C      1  0.5198900000000  0.5130710000000  0.4503130000000 1.0
C      1  0.5063500000000  0.5363250000000  0.5328170000000 1.0
C      1  0.4762870000000  0.5134620000000  0.5205260000000 1.0
C      1  0.4770020000000  0.5141800000000  0.4875140000000 1.0
C      1  0.4875410000000  0.4692870000000  0.4884850000000 1.0
C      1  0.5096080000000  0.5097430000000  0.4807710000000 1.0
C      1  0.5083330000000  0.5105880000000  0.5116370000000 1.0
C      1  0.5126110000000  0.4707580000000  0.5000720000000 1.0
C      1  0.4366710000000  0.5720260000000  0.5447170000000 1.0
C      1  0.4373900000000  0.5113720000000  0.4281460000000 1.0
C      1  0.4333110000000  0.4281420000000  0.5290370000000 1.0
C      1  0.5750450000000  0.5747420000000  0.4529900000000 1.0
C      1  0.5620260000000  0.5144600000000  0.5702280000000 1.0
C      1  0.5676200000000  0.4285950000000  0.4626310000000 1.0
C      1  0.5306370000000  0.5422110000000  0.5022860000000 1.0
C      1  0.5260800000000  0.4737050000000  0.4570820000000 1.0
C      1  0.5292560000000  0.4778890000000  0.5448630000000 1.0
C      1  0.4732330000000  0.5498870000000  0.5044330000000 1.0
C      1  0.4736430000000  0.4764340000000  0.5385330000000 1.0
C      1  0.4712580000000  0.4735550000000  0.4519140000000 1.0
C      1  0.4241700000000  0.5446190000000  0.4750990000000 1.0
C      1  0.4285000000000  0.4525550000000  0.4769220000000 1.0
C      1  0.4245320000000  0.4927890000000  0.5548040000000 1.0
C      1  0.5774400000000  0.5471620000000  0.5226740000000 1.0
C      1  0.5777270000000  0.4589530000000  0.5322530000000 1.0
C      1  0.5721060000000  0.4969860000000  0.4456820000000 1.0
C      1  0.4966770000000  0.4807640000000  0.5849110000000 1.0
C      1  0.5006740000000  0.5758360000000  0.4741160000000 1.0
C      1  0.4981750000000  0.4343450000000  0.4369640000000 1.0
C      1  0.5026130000000  0.4797030000000  0.4127510000000 1.0
C      1  0.5079020000000  0.5805900000000  0.5250520000000 1.0
C      1  0.5035880000000  0.4369370000000  0.5599170000000 1.0
C      1  0.4169460000000  0.5028800000000  0.4485180000000 1.0
C      1  0.4128910000000  0.4499880000000  0.5278720000000 1.0
C      1  0.4216060000000  0.5511860000000  0.5338480000000 1.0
C      1  0.5844530000000  0.5063660000000  0.5541500000000 1.0
C      1  0.5812110000000  0.4514840000000  0.4706920000000 1.0
C      1  0.5846080000000  0.5539260000000  0.4692860000000 1.0
C      1  0.5346840000000  0.5036210000000  0.5276900000000 1.0
C      1  0.5456190000000  0.5113260000000  0.4975860000000 1.0
C      1  0.5385570000000  0.4832600000000  0.4873610000000 1.0
C      1  0.4576640000000  0.4926530000000  0.4760110000000 1.0
C      1  0.4473280000000  0.5290560000000  0.5127540000000 1.0
C      1  0.4627000000000  0.4777510000000  0.5062400000000 1.0
C      1  0.5010010000000  0.4680580000000  0.5570620000000 1.0
C      1  0.5026310000000  0.5614960000000  0.5011800000000 1.0
C      1  0.4998560000000  0.4650340000000  0.4398940000000 1.0
END
