TITL C-2782239-8622-1424 -0.0033287072686837 125000 -807.262011756808 0 0 127 (C1) n - 1
REM
REM in /home/nfs/bkarasulu/CARBON/AIRSS/Generating-Clusters/REBO/Higher-Symm/SD-CG/HFTN-CG
REM
REM
REM
REM
REM
REM ./C.cell (12c818d87b63d06a65506943cc24bca4)
REM
REM compiler GCC version 9.2.1 20190827 (Red Hat 9.2.1-1)
REM options -cpp -mtune=generic -march=x86-64 -g -O0 -fpre-include=/usr/include/finclude/math-vector-fortran.h
REM seed -340968990 -1044755139 -2068771062 -950098518 2124818457 -220260250 1973806241 -749226842 1607460165 -2110330898 -799767129 -2093104919 -1458054377 717009663 -1095605252 -753082776 -2014534011 -509728288 914958332 1868334991 -630387395 -306757234 -415886276 912101041 -1056921547 800743664 1480703558 981860241 -474951422 1973323195 114661415 -266613274 502917791
REM
CELL 1.54180   50.00000   50.00000   50.00000   90.00000   90.00000   90.00000
LATT -1
SFAC C  
C      1  0.4741580000000  0.5690460000000  0.5496090000000 1.0
C      1  0.5493730000000  0.4735730000000  0.5696860000000 1.0
C      1  0.5712030000000  0.5470690000000  0.4721980000000 1.0
C      1  0.5271550000000  0.4325540000000  0.5497040000000 1.0
C      1  0.5267640000000  0.5643260000000  0.4544830000000 1.0
C      1  0.4728390000000  0.4335140000000  0.4516710000000 1.0
C      1  0.4518930000000  0.5275470000000  0.5710620000000 1.0
C      1  0.4513740000000  0.4747360000000  0.4318620000000 1.0
C      1  0.5504550000000  0.5264690000000  0.4282790000000 1.0
C      1  0.4281800000000  0.4520060000000  0.4726210000000 1.0
C      1  0.4334680000000  0.5463730000000  0.5272150000000 1.0
C      1  0.5696750000000  0.4534480000000  0.5270760000000 1.0
C      1  0.5703990000000  0.4733870000000  0.5487890000000 1.0
C      1  0.4725480000000  0.5491080000000  0.5717820000000 1.0
C      1  0.5510790000000  0.5684680000000  0.4737520000000 1.0
C      1  0.4313320000000  0.5269810000000  0.5498470000000 1.0
C      1  0.5718560000000  0.5270240000000  0.4495070000000 1.0
C      1  0.4291840000000  0.4730410000000  0.4514760000000 1.0
C      1  0.5272120000000  0.4541130000000  0.5697630000000 1.0
C      1  0.4727790000000  0.4541890000000  0.4303420000000 1.0
C      1  0.5283130000000  0.5454400000000  0.4294220000000 1.0
C      1  0.4512220000000  0.4323000000000  0.4737730000000 1.0
C      1  0.5467340000000  0.4345440000000  0.5264900000000 1.0
C      1  0.4549000000000  0.5666060000000  0.5271530000000 1.0
C      1  0.4613570000000  0.5793480000000  0.5011590000000 1.0
C      1  0.5026880000000  0.4607040000000  0.5844750000000 1.0
C      1  0.5896980000000  0.5030470000000  0.4525030000000 1.0
C      1  0.5393480000000  0.4222830000000  0.5003420000000 1.0
C      1  0.5442730000000  0.5836520000000  0.4988360000000 1.0
C      1  0.4590790000000  0.4190300000000  0.5007480000000 1.0
C      1  0.4980230000000  0.5431310000000  0.5859210000000 1.0
C      1  0.4970420000000  0.4580190000000  0.4125910000000 1.0
C      1  0.5031430000000  0.5406810000000  0.4160970000000 1.0
C      1  0.4151020000000  0.4982580000000  0.4568190000000 1.0
C      1  0.4129180000000  0.5037880000000  0.5477950000000 1.0
C      1  0.5861510000000  0.4975980000000  0.5439550000000 1.0
C      1  0.5850520000000  0.4590460000000  0.5020710000000 1.0
C      1  0.4560940000000  0.5036670000000  0.5874790000000 1.0
C      1  0.4991290000000  0.5813350000000  0.4570160000000 1.0
C      1  0.4187890000000  0.5421940000000  0.5014580000000 1.0
C      1  0.5858890000000  0.5407660000000  0.4966890000000 1.0
C      1  0.4137140000000  0.4584570000000  0.4985700000000 1.0
C      1  0.5453020000000  0.4980850000000  0.5851710000000 1.0
C      1  0.4558720000000  0.5005500000000  0.4178250000000 1.0
C      1  0.5461290000000  0.5024960000000  0.4114400000000 1.0
C      1  0.4993030000000  0.4205870000000  0.4568840000000 1.0
C      1  0.5008430000000  0.4182840000000  0.5447920000000 1.0
C      1  0.4985420000000  0.5857740000000  0.5451540000000 1.0
C      1  0.4530220000000  0.4598980000000  0.5026670000000 1.0
C      1  0.4978370000000  0.4580400000000  0.4707640000000 1.0
C      1  0.4787420000000  0.4997240000000  0.4596700000000 1.0
C      1  0.5482040000000  0.5308390000000  0.5051470000000 1.0
C      1  0.5465370000000  0.4672140000000  0.4976280000000 1.0
C      1  0.4517070000000  0.5196720000000  0.5026920000000 1.0
C      1  0.5072400000000  0.5450550000000  0.4715700000000 1.0
C      1  0.5035070000000  0.4527510000000  0.5247820000000 1.0
C      1  0.5040670000000  0.5493070000000  0.5304910000000 1.0
C      1  0.5389130000000  0.4948540000000  0.4498340000000 1.0
C      1  0.5253340000000  0.4993730000000  0.5508080000000 1.0
C      1  0.4613630000000  0.4940270000000  0.5491540000000 1.0
C      1  0.4779510000000  0.4536790000000  0.4942710000000 1.0
C      1  0.4532850000000  0.5002650000000  0.4679720000000 1.0
C      1  0.5086750000000  0.4688580000000  0.4486820000000 1.0
C      1  0.5271760000000  0.5476590000000  0.4980400000000 1.0
C      1  0.4665670000000  0.5384040000000  0.5013760000000 1.0
C      1  0.5214850000000  0.4579580000000  0.5028540000000 1.0
C      1  0.5561680000000  0.4957870000000  0.4722590000000 1.0
C      1  0.4435400000000  0.4896630000000  0.5268210000000 1.0
C      1  0.5480730000000  0.5027530000000  0.5333790000000 1.0
C      1  0.4938960000000  0.5276050000000  0.4526310000000 1.0
C      1  0.4980540000000  0.5284370000000  0.5490880000000 1.0
C      1  0.4938770000000  0.4654480000000  0.5458930000000 1.0
C      1  0.4541790000000  0.4292990000000  0.5279690000000 1.0
C      1  0.5269310000000  0.4529680000000  0.4275100000000 1.0
C      1  0.4345960000000  0.5239050000000  0.4566910000000 1.0
C      1  0.5501670000000  0.5711480000000  0.5244370000000 1.0
C      1  0.5439790000000  0.4345960000000  0.4746240000000 1.0
C      1  0.4546680000000  0.5664900000000  0.4755850000000 1.0
C      1  0.4755620000000  0.5443620000000  0.4331730000000 1.0
C      1  0.4745570000000  0.4545190000000  0.5697590000000 1.0
C      1  0.5229440000000  0.5443840000000  0.5653940000000 1.0
C      1  0.5734330000000  0.4751270000000  0.4500430000000 1.0
C      1  0.5697250000000  0.5245420000000  0.5464430000000 1.0
C      1  0.4269950000000  0.4739840000000  0.5518710000000 1.0
C      1  0.4309860000000  0.4517380000000  0.5269930000000 1.0
C      1  0.4511420000000  0.5257690000000  0.4307140000000 1.0
C      1  0.5254170000000  0.4328880000000  0.4528710000000 1.0
C      1  0.5698990000000  0.5462710000000  0.5239080000000 1.0
C      1  0.4335790000000  0.5470500000000  0.4767110000000 1.0
C      1  0.5675630000000  0.4557810000000  0.4749300000000 1.0
C      1  0.5510600000000  0.4745150000000  0.4262330000000 1.0
C      1  0.4508730000000  0.4751450000000  0.5741190000000 1.0
C      1  0.5457270000000  0.5235280000000  0.5672520000000 1.0
C      1  0.4743920000000  0.5675130000000  0.4540940000000 1.0
C      1  0.5263040000000  0.5689840000000  0.5441150000000 1.0
C      1  0.4746090000000  0.4305520000000  0.5483840000000 1.0
C      1  0.4986220000000  0.4805630000000  0.3950550000000 1.0
C      1  0.3955570000000  0.5007040000000  0.4769140000000 1.0
C      1  0.4801830000000  0.3994710000000  0.5001860000000 1.0
C      1  0.5005650000000  0.5202920000000  0.3965910000000 1.0
C      1  0.5010950000000  0.4819280000000  0.6033670000000 1.0
C      1  0.5010190000000  0.5217630000000  0.6047560000000 1.0
C      1  0.6075390000000  0.5007330000000  0.4747020000000 1.0
C      1  0.6055530000000  0.4996460000000  0.5234920000000 1.0
C      1  0.3957290000000  0.5026900000000  0.5252690000000 1.0
C      1  0.5210450000000  0.6014910000000  0.4995980000000 1.0
C      1  0.5199430000000  0.4012240000000  0.5001530000000 1.0
C      1  0.4811750000000  0.6001920000000  0.5001330000000 1.0
C      1  0.4755640000000  0.5013810000000  0.3971860000000 1.0
C      1  0.4997160000000  0.3996350000000  0.4761840000000 1.0
C      1  0.3967650000000  0.4814400000000  0.5012330000000 1.0
C      1  0.5241200000000  0.5006110000000  0.3935500000000 1.0
C      1  0.4770960000000  0.5020900000000  0.6062400000000 1.0
C      1  0.5254770000000  0.5007050000000  0.6052200000000 1.0
C      1  0.5001260000000  0.6017210000000  0.4760900000000 1.0
C      1  0.4995140000000  0.6047930000000  0.5241170000000 1.0
C      1  0.5008480000000  0.3982540000000  0.5243520000000 1.0
C      1  0.6047280000000  0.5196940000000  0.4989720000000 1.0
C      1  0.3988260000000  0.5212440000000  0.5005430000000 1.0
C      1  0.6044420000000  0.4798940000000  0.4995540000000 1.0
C      1  0.5510550000000  0.4993730000000  0.5024960000000 1.0
C      1  0.4940590000000  0.5483050000000  0.5009940000000 1.0
C      1  0.4981850000000  0.4793070000000  0.4953950000000 1.0
C      1  0.4923380000000  0.4975880000000  0.5436530000000 1.0
C      1  0.5095320000000  0.4999260000000  0.4483150000000 1.0
C      1  0.4434210000000  0.4888680000000  0.4949080000000 1.0
C      1  0.4925850000000  0.5028270000000  0.5116500000000 1.0
END
