TITL C-2782232-2968-163 0.00278357569353628 125000 -530.551946309889 0 0 95 (C1) n - 1
REM
REM in /home/nfs/bkarasulu/CARBON/AIRSS/Generating-Clusters/REBO/Higher-Symm/SD-CG/HFTN-CG
REM
REM
REM
REM
REM
REM ./C.cell (12c818d87b63d06a65506943cc24bca4)
REM
REM compiler GCC version 9.2.1 20190827 (Red Hat 9.2.1-1)
REM options -cpp -mtune=generic -march=x86-64 -g -O0 -fpre-include=/usr/include/finclude/math-vector-fortran.h
REM seed 768135119 -395544761 -1240936689 -1165690810 2026648312 1919744306 -1856485167 1786518739 1498371254 1466593158 800809512 1647283445 135374028 -1284501154 1456828521 864032807 1120446461 1260035441 1307231462 1027035908 130604180 1533116578 -1767764787 -2124140957 -527594768 1377729347 1334667995 641595508 509428768 -598907435 -1804708982 -1216123331 -728843283
REM
CELL 1.54180   50.00000   50.00000   50.00000   90.00000   90.00000   90.00000
LATT -1
SFAC C  
C      1  0.5552980000000  0.4298750000000  0.4871180000000 1.0
C      1  0.4476680000000  0.4258210000000  0.5160340000000 1.0
C      1  0.5518900000000  0.4240490000000  0.5175300000000 1.0
C      1  0.4452810000000  0.4311350000000  0.4854240000000 1.0
C      1  0.4753650000000  0.4386290000000  0.4249200000000 1.0
C      1  0.5292200000000  0.4484990000000  0.5687480000000 1.0
C      1  0.4689410000000  0.4494780000000  0.5683910000000 1.0
C      1  0.5234070000000  0.4370110000000  0.4241930000000 1.0
C      1  0.5270930000000  0.4157730000000  0.4825730000000 1.0
C      1  0.4738060000000  0.4132910000000  0.5213440000000 1.0
C      1  0.5250350000000  0.4125560000000  0.5219360000000 1.0
C      1  0.4723380000000  0.4151040000000  0.4817950000000 1.0
C      1  0.5424840000000  0.4942950000000  0.4393300000000 1.0
C      1  0.4592230000000  0.4936570000000  0.5621570000000 1.0
C      1  0.5427180000000  0.4925230000000  0.5634590000000 1.0
C      1  0.4529220000000  0.4914840000000  0.4325800000000 1.0
C      1  0.4752520000000  0.4902250000000  0.4674720000000 1.0
C      1  0.5308750000000  0.4867840000000  0.5327670000000 1.0
C      1  0.4707720000000  0.4889200000000  0.5305120000000 1.0
C      1  0.5276300000000  0.4846310000000  0.4757580000000 1.0
C      1  0.4773050000000  0.5027370000000  0.4223750000000 1.0
C      1  0.5254540000000  0.5100150000000  0.5789440000000 1.0
C      1  0.4762190000000  0.5102070000000  0.5786990000000 1.0
C      1  0.5256000000000  0.5053780000000  0.4139890000000 1.0
C      1  0.4734830000000  0.5458190000000  0.4507410000000 1.0
C      1  0.5318510000000  0.5500140000000  0.5438320000000 1.0
C      1  0.4703830000000  0.5486460000000  0.5433240000000 1.0
C      1  0.5285470000000  0.5518440000000  0.4559630000000 1.0
C      1  0.4466020000000  0.5371930000000  0.4697470000000 1.0
C      1  0.5539260000000  0.5296850000000  0.5317300000000 1.0
C      1  0.4434470000000  0.5330970000000  0.5291950000000 1.0
C      1  0.5519230000000  0.5330450000000  0.4724810000000 1.0
C      1  0.5646050000000  0.4469900000000  0.5392670000000 1.0
C      1  0.4301710000000  0.4554960000000  0.4665900000000 1.0
C      1  0.5699680000000  0.4543120000000  0.4678720000000 1.0
C      1  0.4359380000000  0.4491610000000  0.5378800000000 1.0
C      1  0.4853260000000  0.5375370000000  0.5697920000000 1.0
C      1  0.5180880000000  0.5360050000000  0.4275070000000 1.0
C      1  0.4851370000000  0.5286030000000  0.4316430000000 1.0
C      1  0.5162080000000  0.5376670000000  0.5699710000000 1.0
C      1  0.5203030000000  0.5879480000000  0.4699820000000 1.0
C      1  0.4786260000000  0.5858600000000  0.5324020000000 1.0
C      1  0.5217010000000  0.5849960000000  0.5284900000000 1.0
C      1  0.4692300000000  0.5795450000000  0.4714390000000 1.0
C      1  0.4776110000000  0.4448870000000  0.4502720000000 1.0
C      1  0.5248420000000  0.4487710000000  0.5428860000000 1.0
C      1  0.4755240000000  0.4512330000000  0.5429380000000 1.0
C      1  0.5219830000000  0.4433100000000  0.4496710000000 1.0
C      1  0.5443000000000  0.4630220000000  0.5193970000000 1.0
C      1  0.4618720000000  0.4637850000000  0.4664180000000 1.0
C      1  0.5387220000000  0.4594780000000  0.4663870000000 1.0
C      1  0.4573550000000  0.4643380000000  0.5183210000000 1.0
C      1  0.4632690000000  0.5133310000000  0.5128730000000 1.0
C      1  0.5379730000000  0.5080930000000  0.4881680000000 1.0
C      1  0.4667000000000  0.5162930000000  0.4820750000000 1.0
C      1  0.5373850000000  0.5103360000000  0.5156250000000 1.0
C      1  0.4272840000000  0.5033220000000  0.5258720000000 1.0
C      1  0.5743070000000  0.5071430000000  0.4723930000000 1.0
C      1  0.4289540000000  0.5082070000000  0.4719740000000 1.0
C      1  0.5745990000000  0.5031240000000  0.5276440000000 1.0
C      1  0.4325800000000  0.4868340000000  0.4524870000000 1.0
C      1  0.5674730000000  0.4800530000000  0.5470710000000 1.0
C      1  0.4344730000000  0.4823110000000  0.5456250000000 1.0
C      1  0.5658970000000  0.4858410000000  0.4541770000000 1.0
C      1  0.4506480000000  0.5640320000000  0.4875170000000 1.0
C      1  0.5424700000000  0.5665820000000  0.5155270000000 1.0
C      1  0.4573720000000  0.5688580000000  0.5190330000000 1.0
C      1  0.5416990000000  0.5704320000000  0.4817140000000 1.0
C      1  0.3991960000000  0.5571040000000  0.5078770000000 1.0
C      1  0.5939680000000  0.5497080000000  0.5035230000000 1.0
C      1  0.4995220000000  0.4351880000000  0.5269050000000 1.0
C      1  0.4995820000000  0.4324360000000  0.4707540000000 1.0
C      1  0.5591650000000  0.4697960000000  0.4953000000000 1.0
C      1  0.4433660000000  0.4701300000000  0.4938800000000 1.0
C      1  0.5007770000000  0.4805690000000  0.5392830000000 1.0
C      1  0.5019560000000  0.4880540000000  0.4611510000000 1.0
C      1  0.4279700000000  0.4961850000000  0.4981310000000 1.0
C      1  0.5751250000000  0.4951480000000  0.4993030000000 1.0
C      1  0.5171290000000  0.5143140000000  0.4514970000000 1.0
C      1  0.5009850000000  0.5087440000000  0.5474240000000 1.0
C      1  0.4986760000000  0.5255860000000  0.4741150000000 1.0
C      1  0.5015310000000  0.5262920000000  0.5268160000000 1.0
C      1  0.4251810000000  0.5533560000000  0.5115290000000 1.0
C      1  0.5655300000000  0.5525990000000  0.4956980000000 1.0
C      1  0.4974410000000  0.5671460000000  0.4595850000000 1.0
C      1  0.5008160000000  0.5647310000000  0.5450940000000 1.0
C      1  0.5006650000000  0.4978620000000  0.5896400000000 1.0
C      1  0.5002790000000  0.4915350000000  0.4085320000000 1.0
C      1  0.4989640000000  0.4519580000000  0.4983390000000 1.0
C      1  0.4995720000000  0.4055260000000  0.5002190000000 1.0
C      1  0.5004230000000  0.5078250000000  0.5011300000000 1.0
C      1  0.5017400000000  0.5444750000000  0.5006420000000 1.0
C      1  0.4961580000000  0.4789570000000  0.4996620000000 1.0
C      1  0.4973430000000  0.5730380000000  0.4991390000000 1.0
C      1  0.4931860000000  0.5982890000000  0.4973900000000 1.0
END
