TITL C-2782239-8622-47 0.000455686146157141 125000 -917.195831679534 0 0 157 (C1) n - 1
REM
REM in /home/nfs/bkarasulu/CARBON/AIRSS/Generating-Clusters/REBO/Higher-Symm/SD-CG/HFTN-CG
REM
REM
REM
REM
REM
REM ./C.cell (12c818d87b63d06a65506943cc24bca4)
REM
REM compiler GCC version 9.2.1 20190827 (Red Hat 9.2.1-1)
REM options -cpp -mtune=generic -march=x86-64 -g -O0 -fpre-include=/usr/include/finclude/math-vector-fortran.h
REM seed -619772377 -2119762017 -627485668 -824843764 -263622859 -998716926 -1940842546 -1633432827 -671176974 1755803548 184660812 -119484532 727192826 -367506600 -1733034312 -472487759 -920661597 -1705576628 -113592812 2092317784 -170405406 1594150549 -2090154951 1251047770 793078459 656123928 -2076408313 1585224627 -2080255093 2138641830 2134344379 897912736 -818223821
REM
CELL 1.54180   50.00000   50.00000   50.00000   90.00000   90.00000   90.00000
LATT -1
SFAC C  
C      1  0.5832570000000  0.5728090000000  0.5144240000000 1.0
C      1  0.5850060000000  0.4390550000000  0.5383220000000 1.0
C      1  0.5892500000000  0.4780230000000  0.4297030000000 1.0
C      1  0.4494080000000  0.4898930000000  0.5719580000000 1.0
C      1  0.4674840000000  0.4466910000000  0.4602140000000 1.0
C      1  0.4692270000000  0.5694510000000  0.4801700000000 1.0
C      1  0.5074410000000  0.5562040000000  0.5802210000000 1.0
C      1  0.5068580000000  0.4120470000000  0.5030000000000 1.0
C      1  0.5095170000000  0.5229890000000  0.4224860000000 1.0
C      1  0.4314670000000  0.5548470000000  0.5258220000000 1.0
C      1  0.4272370000000  0.4455150000000  0.5379300000000 1.0
C      1  0.4191940000000  0.4949890000000  0.4257770000000 1.0
C      1  0.4562630000000  0.4705870000000  0.4516560000000 1.0
C      1  0.4586030000000  0.5502890000000  0.5060420000000 1.0
C      1  0.4446140000000  0.4743860000000  0.5426760000000 1.0
C      1  0.5503900000000  0.4179070000000  0.5082090000000 1.0
C      1  0.5589350000000  0.5279650000000  0.4173530000000 1.0
C      1  0.5596000000000  0.5588590000000  0.5764480000000 1.0
C      1  0.5656990000000  0.4983950000000  0.4784700000000 1.0
C      1  0.5631940000000  0.5212880000000  0.5036660000000 1.0
C      1  0.5662110000000  0.4880650000000  0.5101130000000 1.0
C      1  0.4994390000000  0.5365130000000  0.4598600000000 1.0
C      1  0.4917560000000  0.5185790000000  0.5597080000000 1.0
C      1  0.4999510000000  0.4426380000000  0.4954830000000 1.0
C      1  0.4122320000000  0.4641180000000  0.5637170000000 1.0
C      1  0.4069300000000  0.4647460000000  0.4360590000000 1.0
C      1  0.4201110000000  0.5610740000000  0.4939840000000 1.0
C      1  0.5448490000000  0.4611570000000  0.5449750000000 1.0
C      1  0.5420810000000  0.4773360000000  0.4367010000000 1.0
C      1  0.5385270000000  0.5629120000000  0.5264740000000 1.0
C      1  0.4489300000000  0.5638530000000  0.4418010000000 1.0
C      1  0.4613190000000  0.5169650000000  0.5797150000000 1.0
C      1  0.4563240000000  0.4195950000000  0.4702770000000 1.0
C      1  0.4887480000000  0.4911970000000  0.4100330000000 1.0
C      1  0.4834400000000  0.5852780000000  0.5396620000000 1.0
C      1  0.4876820000000  0.4210280000000  0.5550620000000 1.0
C      1  0.4431960000000  0.4183920000000  0.4965120000000 1.0
C      1  0.4381770000000  0.5421160000000  0.4256820000000 1.0
C      1  0.4445800000000  0.5399470000000  0.5718480000000 1.0
C      1  0.5952070000000  0.4445900000000  0.5002590000000 1.0
C      1  0.5988920000000  0.5256040000000  0.4459600000000 1.0
C      1  0.5941820000000  0.5353220000000  0.5470080000000 1.0
C      1  0.4181250000000  0.5223840000000  0.4360370000000 1.0
C      1  0.4264800000000  0.5368330000000  0.5497030000000 1.0
C      1  0.4221730000000  0.4348250000000  0.5083580000000 1.0
C      1  0.5724200000000  0.4446040000000  0.4570720000000 1.0
C      1  0.5678780000000  0.5648500000000  0.4725720000000 1.0
C      1  0.5689680000000  0.4959060000000  0.5666880000000 1.0
C      1  0.4267450000000  0.4792670000000  0.5874830000000 1.0
C      1  0.3888400000000  0.4492480000000  0.4220880000000 1.0
C      1  0.4408010000000  0.5580280000000  0.4711510000000 1.0
C      1  0.5059840000000  0.5534650000000  0.5472470000000 1.0
C      1  0.5094430000000  0.4470850000000  0.5340000000000 1.0
C      1  0.5122600000000  0.5006820000000  0.4485510000000 1.0
C      1  0.4898460000000  0.5899500000000  0.5075860000000 1.0
C      1  0.4885420000000  0.4349020000000  0.5826350000000 1.0
C      1  0.4832120000000  0.4627760000000  0.4028080000000 1.0
C      1  0.4026680000000  0.4721700000000  0.5169070000000 1.0
C      1  0.4083570000000  0.4941480000000  0.4727480000000 1.0
C      1  0.4034210000000  0.5270310000000  0.5137830000000 1.0
C      1  0.5836960000000  0.5399650000000  0.5715180000000 1.0
C      1  0.5776400000000  0.4249470000000  0.4948890000000 1.0
C      1  0.5829810000000  0.5414280000000  0.4304210000000 1.0
C      1  0.4652600000000  0.4920520000000  0.4751200000000 1.0
C      1  0.4788510000000  0.5279800000000  0.4930520000000 1.0
C      1  0.4705140000000  0.4854410000000  0.5258040000000 1.0
C      1  0.4538590000000  0.4672900000000  0.4945350000000 1.0
C      1  0.4527600000000  0.5298080000000  0.4722400000000 1.0
C      1  0.4554900000000  0.5162390000000  0.5267880000000 1.0
C      1  0.5076060000000  0.5634490000000  0.5146740000000 1.0
C      1  0.4956180000000  0.4627710000000  0.5471210000000 1.0
C      1  0.5100380000000  0.4688730000000  0.4461310000000 1.0
C      1  0.5226200000000  0.4728890000000  0.5901570000000 1.0
C      1  0.5207070000000  0.4340070000000  0.4300720000000 1.0
C      1  0.5190480000000  0.5896630000000  0.4777600000000 1.0
C      1  0.4351740000000  0.5066780000000  0.4833320000000 1.0
C      1  0.4321240000000  0.5165410000000  0.5117190000000 1.0
C      1  0.4303880000000  0.4737920000000  0.5054590000000 1.0
C      1  0.5887010000000  0.4981900000000  0.4547040000000 1.0
C      1  0.5868670000000  0.5411330000000  0.5178660000000 1.0
C      1  0.5889760000000  0.4672940000000  0.5228250000000 1.0
C      1  0.4673620000000  0.5634640000000  0.5485050000000 1.0
C      1  0.4709150000000  0.4299540000000  0.5337620000000 1.0
C      1  0.4722480000000  0.5078020000000  0.4258510000000 1.0
C      1  0.5397340000000  0.4800090000000  0.4703960000000 1.0
C      1  0.5367810000000  0.5364390000000  0.5055230000000 1.0
C      1  0.5388010000000  0.4808650000000  0.5217470000000 1.0
C      1  0.4760550000000  0.4538630000000  0.5133440000000 1.0
C      1  0.4765300000000  0.5168670000000  0.4546970000000 1.0
C      1  0.4708390000000  0.5348680000000  0.5417070000000 1.0
C      1  0.4875450000000  0.5372570000000  0.4038550000000 1.0
C      1  0.4845080000000  0.5653700000000  0.5927140000000 1.0
C      1  0.4854200000000  0.3953150000000  0.5080630000000 1.0
C      1  0.5862960000000  0.5469750000000  0.4840720000000 1.0
C      1  0.5863900000000  0.4941770000000  0.5438560000000 1.0
C      1  0.5865330000000  0.4661690000000  0.4677480000000 1.0
C      1  0.5436700000000  0.5112410000000  0.4393410000000 1.0
C      1  0.5382220000000  0.5503080000000  0.5554240000000 1.0
C      1  0.5342880000000  0.4420690000000  0.5152980000000 1.0
C      1  0.5604170000000  0.5208830000000  0.5865190000000 1.0
C      1  0.5576280000000  0.4162440000000  0.4693670000000 1.0
C      1  0.5573530000000  0.5571340000000  0.4440260000000 1.0
C      1  0.4869370000000  0.4281920000000  0.4306530000000 1.0
C      1  0.4891730000000  0.5928370000000  0.4678180000000 1.0
C      1  0.4894020000000  0.4792170000000  0.5949810000000 1.0
C      1  0.5276990000000  0.5647490000000  0.4593300000000 1.0
C      1  0.5322670000000  0.5040400000000  0.5900000000000 1.0
C      1  0.5285030000000  0.4304100000000  0.4629740000000 1.0
C      1  0.5066760000000  0.5425020000000  0.4912430000000 1.0
C      1  0.4804470000000  0.4896240000000  0.5575870000000 1.0
C      1  0.4947560000000  0.4511260000000  0.4654650000000 1.0
C      1  0.5224050000000  0.6001970000000  0.5099240000000 1.0
C      1  0.5184660000000  0.4415270000000  0.5875140000000 1.0
C      1  0.5142400000000  0.4607980000000  0.4132530000000 1.0
C      1  0.5672440000000  0.4690000000000  0.4214480000000 1.0
C      1  0.5611120000000  0.5824390000000  0.5217000000000 1.0
C      1  0.5606270000000  0.4351080000000  0.5445630000000 1.0
C      1  0.4659060000000  0.4478290000000  0.4201040000000 1.0
C      1  0.4652810000000  0.6011930000000  0.4910370000000 1.0
C      1  0.4710790000000  0.4573420000000  0.5851870000000 1.0
C      1  0.5025510000000  0.5594660000000  0.4371560000000 1.0
C      1  0.5085350000000  0.5227670000000  0.6010110000000 1.0
C      1  0.5074970000000  0.4041990000000  0.4644950000000 1.0
C      1  0.4598840000000  0.5653760000000  0.5777330000000 1.0
C      1  0.4615740000000  0.4084780000000  0.5166650000000 1.0
C      1  0.4588650000000  0.5298490000000  0.4101870000000 1.0
C      1  0.6015820000000  0.4850180000000  0.4896180000000 1.0
C      1  0.5997240000000  0.5188430000000  0.4876420000000 1.0
C      1  0.6019170000000  0.5042270000000  0.5177020000000 1.0
C      1  0.5297140000000  0.4549880000000  0.4841690000000 1.0
C      1  0.5328650000000  0.5314190000000  0.4632190000000 1.0
C      1  0.5225660000000  0.5211640000000  0.5636590000000 1.0
C      1  0.5547080000000  0.4339740000000  0.4337180000000 1.0
C      1  0.5524460000000  0.5852970000000  0.4828830000000 1.0
C      1  0.5492810000000  0.4749680000000  0.5694620000000 1.0
C      1  0.5350940000000  0.5433340000000  0.5944410000000 1.0
C      1  0.5331680000000  0.3990570000000  0.4866070000000 1.0
C      1  0.5314320000000  0.5462500000000  0.4244770000000 1.0
C      1  0.4847030000000  0.5077480000000  0.5975380000000 1.0
C      1  0.4820320000000  0.4102500000000  0.4532400000000 1.0
C      1  0.4760130000000  0.5760630000000  0.4412820000000 1.0
C      1  0.4386110000000  0.4670270000000  0.4270550000000 1.0
C      1  0.4436040000000  0.5816110000000  0.5079970000000 1.0
C      1  0.4454600000000  0.4506910000000  0.5669280000000 1.0
C      1  0.5180100000000  0.5263460000000  0.5305960000000 1.0
C      1  0.5173470000000  0.5009150000000  0.5114360000000 1.0
C      1  0.5225170000000  0.5057190000000  0.4807700000000 1.0
C      1  0.5197260000000  0.4210470000000  0.5625230000000 1.0
C      1  0.5203460000000  0.4941460000000  0.4102180000000 1.0
C      1  0.5130890000000  0.5970410000000  0.5388460000000 1.0
C      1  0.4034660000000  0.4671340000000  0.4665480000000 1.0
C      1  0.3989270000000  0.5396960000000  0.4864210000000 1.0
C      1  0.4021040000000  0.4846430000000  0.5428270000000 1.0
C      1  0.4049130000000  0.5230720000000  0.4630200000000 1.0
C      1  0.4072970000000  0.5134270000000  0.5427450000000 1.0
C      1  0.4014200000000  0.4509020000000  0.4908360000000 1.0
C      1  0.4872050000000  0.4984450000000  0.5007670000000 1.0
END
