TITL C-2782234-8014-1342 -0.00333826186974769 125000 -1118.57792524951 0 0 190 (C1) n - 1
REM
REM in /home/nfs/bkarasulu/CARBON/AIRSS/Generating-Clusters/REBO/Higher-Symm/SD-CG/HFTN-CG
REM
REM
REM
REM
REM
REM ./C.cell (12c818d87b63d06a65506943cc24bca4)
REM
REM compiler GCC version 9.2.1 20190827 (Red Hat 9.2.1-1)
REM options -cpp -mtune=generic -march=x86-64 -g -O0 -fpre-include=/usr/include/finclude/math-vector-fortran.h
REM seed -766803125 1139835595 -24155323 815584938 1482271001 296216649 -1434876988 656979507 201973012 -1931291103 -189680821 -2105313403 -1365442406 1043469316 1983139971 153257164 -1899497430 -312156070 1808848272 -590228505 -1288412034 2144872511 -483269893 -921200466 -1609959685 885328125 40675409 -1508178648 1037873439 1658412518 882935894 1886774486 -58448130
REM
CELL 1.54180   50.00000   50.00000   50.00000   90.00000   90.00000   90.00000
LATT -1
SFAC C  
C      1  0.5924320000000  0.5196370000000  0.4380980000000 1.0
C      1  0.3864640000000  0.5259230000000  0.4602200000000 1.0
C      1  0.5210760000000  0.5221440000000  0.6213920000000 1.0
C      1  0.5897360000000  0.4745660000000  0.5586370000000 1.0
C      1  0.4024960000000  0.4743180000000  0.5490640000000 1.0
C      1  0.5080820000000  0.4690340000000  0.3937030000000 1.0
C      1  0.4938740000000  0.5053320000000  0.5408410000000 1.0
C      1  0.5281260000000  0.5159070000000  0.4835770000000 1.0
C      1  0.4725780000000  0.5200720000000  0.4774840000000 1.0
C      1  0.4999900000000  0.4936800000000  0.4659890000000 1.0
C      1  0.5271990000000  0.4941160000000  0.5168710000000 1.0
C      1  0.4728970000000  0.4836550000000  0.5152020000000 1.0
C      1  0.4771640000000  0.4073880000000  0.5184340000000 1.0
C      1  0.5295490000000  0.4117810000000  0.5129010000000 1.0
C      1  0.4962840000000  0.4079250000000  0.4678320000000 1.0
C      1  0.4736780000000  0.5890290000000  0.4842970000000 1.0
C      1  0.5272190000000  0.5912970000000  0.4857890000000 1.0
C      1  0.4954880000000  0.5954130000000  0.5317590000000 1.0
C      1  0.4120490000000  0.4449610000000  0.4750500000000 1.0
C      1  0.5209880000000  0.4450050000000  0.5914260000000 1.0
C      1  0.5653880000000  0.4459350000000  0.4441450000000 1.0
C      1  0.4144080000000  0.5532560000000  0.5271550000000 1.0
C      1  0.5289470000000  0.5470140000000  0.4134900000000 1.0
C      1  0.5660650000000  0.5558960000000  0.5603270000000 1.0
C      1  0.5410610000000  0.4868030000000  0.5917940000000 1.0
C      1  0.5642710000000  0.4817650000000  0.4136050000000 1.0
C      1  0.3972600000000  0.4889930000000  0.4879510000000 1.0
C      1  0.5474730000000  0.5042210000000  0.4024830000000 1.0
C      1  0.5560190000000  0.5115650000000  0.5774720000000 1.0
C      1  0.3984100000000  0.5116730000000  0.5119440000000 1.0
C      1  0.5586940000000  0.5438550000000  0.5854140000000 1.0
C      1  0.5513550000000  0.5300450000000  0.4131010000000 1.0
C      1  0.4001370000000  0.5429340000000  0.5044240000000 1.0
C      1  0.5561420000000  0.4525800000000  0.4176700000000 1.0
C      1  0.5473130000000  0.4554700000000  0.5952570000000 1.0
C      1  0.3969930000000  0.4584570000000  0.4963220000000 1.0
C      1  0.4964130000000  0.4736000000000  0.5377100000000 1.0
C      1  0.5318740000000  0.4816540000000  0.4866490000000 1.0
C      1  0.4564340000000  0.4818210000000  0.4595420000000 1.0
C      1  0.4958830000000  0.5253630000000  0.4571540000000 1.0
C      1  0.5303010000000  0.5262570000000  0.5157430000000 1.0
C      1  0.4660440000000  0.5147220000000  0.5274120000000 1.0
C      1  0.5531090000000  0.4827550000000  0.5308930000000 1.0
C      1  0.4995080000000  0.4800540000000  0.4384030000000 1.0
C      1  0.4448170000000  0.4812690000000  0.5321250000000 1.0
C      1  0.5569740000000  0.5166400000000  0.4679720000000 1.0
C      1  0.4979270000000  0.5161680000000  0.5682590000000 1.0
C      1  0.4438620000000  0.5187370000000  0.4676230000000 1.0
C      1  0.4575840000000  0.5389060000000  0.5995520000000 1.0
C      1  0.6019190000000  0.5413570000000  0.4826730000000 1.0
C      1  0.4524040000000  0.5535590000000  0.4149270000000 1.0
C      1  0.4601480000000  0.4598690000000  0.4053560000000 1.0
C      1  0.6017790000000  0.4577170000000  0.5117830000000 1.0
C      1  0.4386950000000  0.4571290000000  0.5824160000000 1.0
C      1  0.6018370000000  0.5252460000000  0.5476260000000 1.0
C      1  0.5004530000000  0.5222640000000  0.3831190000000 1.0
C      1  0.4050350000000  0.5243470000000  0.5659080000000 1.0
C      1  0.6080490000000  0.4707390000000  0.4478970000000 1.0
C      1  0.4942410000000  0.4747710000000  0.6224960000000 1.0
C      1  0.4018310000000  0.4714470000000  0.4372000000000 1.0
C      1  0.4147980000000  0.5026880000000  0.5862360000000 1.0
C      1  0.6149720000000  0.5039890000000  0.5288950000000 1.0
C      1  0.4741990000000  0.5048990000000  0.3830930000000 1.0
C      1  0.4281100000000  0.5062270000000  0.4090050000000 1.0
C      1  0.6184650000000  0.4934410000000  0.4674330000000 1.0
C      1  0.4689540000000  0.4919660000000  0.6218100000000 1.0
C      1  0.5317290000000  0.4413100000000  0.4995100000000 1.0
C      1  0.4832180000000  0.4439800000000  0.4779870000000 1.0
C      1  0.4833530000000  0.4361170000000  0.5334260000000 1.0
C      1  0.5275950000000  0.5604700000000  0.4955070000000 1.0
C      1  0.4785260000000  0.5613490000000  0.5352410000000 1.0
C      1  0.4775010000000  0.5641810000000  0.4628980000000 1.0
C      1  0.5162830000000  0.4941770000000  0.6082590000000 1.0
C      1  0.5872150000000  0.4894960000000  0.4311130000000 1.0
C      1  0.3986360000000  0.4970960000000  0.4582550000000 1.0
C      1  0.5195600000000  0.4984280000000  0.3938260000000 1.0
C      1  0.5795060000000  0.5039770000000  0.5603030000000 1.0
C      1  0.4029610000000  0.5047540000000  0.5404230000000 1.0
C      1  0.5505150000000  0.5463450000000  0.5312320000000 1.0
C      1  0.4949900000000  0.5535610000000  0.4386590000000 1.0
C      1  0.4455770000000  0.5391430000000  0.5325220000000 1.0
C      1  0.5485120000000  0.4613860000000  0.4693850000000 1.0
C      1  0.4996080000000  0.4549950000000  0.5660180000000 1.0
C      1  0.4444670000000  0.4553490000000  0.4755650000000 1.0
C      1  0.5586390000000  0.5879300000000  0.4726730000000 1.0
C      1  0.4456010000000  0.5878690000000  0.4666990000000 1.0
C      1  0.4840830000000  0.5825960000000  0.5614870000000 1.0
C      1  0.5596040000000  0.4163740000000  0.5273800000000 1.0
C      1  0.4506140000000  0.4133770000000  0.5388980000000 1.0
C      1  0.4928270000000  0.4133180000000  0.4372920000000 1.0
C      1  0.5177040000000  0.5771970000000  0.5598480000000 1.0
C      1  0.5400480000000  0.5886140000000  0.4480940000000 1.0
C      1  0.4373750000000  0.5739910000000  0.4942710000000 1.0
C      1  0.5227370000000  0.4220310000000  0.4413510000000 1.0
C      1  0.5392700000000  0.4236290000000  0.5501380000000 1.0
C      1  0.4403650000000  0.4203360000000  0.5098130000000 1.0
C      1  0.4812950000000  0.5424810000000  0.5635560000000 1.0
C      1  0.5551620000000  0.5452080000000  0.4865050000000 1.0
C      1  0.4501260000000  0.5486640000000  0.4610540000000 1.0
C      1  0.4808050000000  0.4534710000000  0.4453530000000 1.0
C      1  0.5593810000000  0.4567790000000  0.5110170000000 1.0
C      1  0.4614220000000  0.4517140000000  0.5359560000000 1.0
C      1  0.4710010000000  0.4290790000000  0.4160470000000 1.0
C      1  0.4406760000000  0.4334070000000  0.5645150000000 1.0
C      1  0.5870680000000  0.4294900000000  0.5188340000000 1.0
C      1  0.4724000000000  0.5680930000000  0.5902150000000 1.0
C      1  0.4388820000000  0.5735770000000  0.4365380000000 1.0
C      1  0.5856360000000  0.5671450000000  0.4738710000000 1.0
C      1  0.6091720000000  0.5211420000000  0.4614930000000 1.0
C      1  0.4309870000000  0.5305910000000  0.4063840000000 1.0
C      1  0.4658770000000  0.5207970000000  0.6201000000000 1.0
C      1  0.6083210000000  0.4760990000000  0.5332380000000 1.0
C      1  0.4155560000000  0.4747980000000  0.5757770000000 1.0
C      1  0.4777470000000  0.4760950000000  0.3884620000000 1.0
C      1  0.4707360000000  0.4725810000000  0.4882820000000 1.0
C      1  0.5208480000000  0.4617660000000  0.5200640000000 1.0
C      1  0.5088410000000  0.4620070000000  0.4725650000000 1.0
C      1  0.4737350000000  0.5362190000000  0.5042700000000 1.0
C      1  0.5196280000000  0.5442430000000  0.4684180000000 1.0
C      1  0.4998080000000  0.5360430000000  0.5267930000000 1.0
C      1  0.4968530000000  0.4060900000000  0.5803920000000 1.0
C      1  0.5698240000000  0.4142920000000  0.4681030000000 1.0
C      1  0.4368140000000  0.4176170000000  0.4572060000000 1.0
C      1  0.4942030000000  0.5917190000000  0.4182070000000 1.0
C      1  0.5684790000000  0.5820600000000  0.5302910000000 1.0
C      1  0.4353070000000  0.5823200000000  0.5471420000000 1.0
C      1  0.4181710000000  0.4509770000000  0.4459600000000 1.0
C      1  0.4952570000000  0.4490510000000  0.6100920000000 1.0
C      1  0.5937840000000  0.4478450000000  0.4564960000000 1.0
C      1  0.4165790000000  0.5488180000000  0.5578570000000 1.0
C      1  0.5053560000000  0.5456470000000  0.3979460000000 1.0
C      1  0.5889430000000  0.5494780000000  0.5408530000000 1.0
C      1  0.4439820000000  0.4095100000000  0.4818470000000 1.0
C      1  0.5169130000000  0.4045590000000  0.5603890000000 1.0
C      1  0.5447350000000  0.4083570000000  0.4588300000000 1.0
C      1  0.4400880000000  0.5886550000000  0.5210870000000 1.0
C      1  0.5107620000000  0.5977300000000  0.4388960000000 1.0
C      1  0.5431160000000  0.5860840000000  0.5400270000000 1.0
C      1  0.5230950000000  0.4142340000000  0.4804810000000 1.0
C      1  0.4737690000000  0.4138700000000  0.4888490000000 1.0
C      1  0.5063830000000  0.4107920000000  0.5316370000000 1.0
C      1  0.5212050000000  0.5854100000000  0.5181730000000 1.0
C      1  0.4705300000000  0.5860350000000  0.5130520000000 1.0
C      1  0.5015420000000  0.5892340000000  0.4675780000000 1.0
C      1  0.5968990000000  0.5233310000000  0.5079860000000 1.0
C      1  0.4702050000000  0.5246570000000  0.4107100000000 1.0
C      1  0.4422870000000  0.5210270000000  0.5798470000000 1.0
C      1  0.5976790000000  0.4742100000000  0.4863080000000 1.0
C      1  0.4629000000000  0.4744060000000  0.5932560000000 1.0
C      1  0.4420660000000  0.4795020000000  0.4224630000000 1.0
C      1  0.5044490000000  0.5577190000000  0.5844420000000 1.0
C      1  0.5638720000000  0.5534590000000  0.4543650000000 1.0
C      1  0.4190460000000  0.5605680000000  0.4610870000000 1.0
C      1  0.4991990000000  0.4466750000000  0.4170990000000 1.0
C      1  0.5746780000000  0.4507560000000  0.5408150000000 1.0
C      1  0.4276400000000  0.4456140000000  0.5375750000000 1.0
C      1  0.5281390000000  0.5436490000000  0.6001400000000 1.0
C      1  0.5708030000000  0.5364550000000  0.4330320000000 1.0
C      1  0.3992540000000  0.5467120000000  0.4755810000000 1.0
C      1  0.5307310000000  0.4475280000000  0.4071940000000 1.0
C      1  0.5708920000000  0.4516330000000  0.5743560000000 1.0
C      1  0.3998490000000  0.4558920000000  0.5247970000000 1.0
C      1  0.4290760000000  0.4983030000000  0.4481830000000 1.0
C      1  0.4904410000000  0.4945530000000  0.5883000000000 1.0
C      1  0.5787090000000  0.4923670000000  0.4638710000000 1.0
C      1  0.4351120000000  0.5022540000000  0.5519130000000 1.0
C      1  0.4951320000000  0.5018610000000  0.4168020000000 1.0
C      1  0.5747630000000  0.5048350000000  0.5269900000000 1.0
C      1  0.5259930000000  0.5267060000000  0.5714200000000 1.0
C      1  0.5468100000000  0.5032240000000  0.4424260000000 1.0
C      1  0.4267580000000  0.5153900000000  0.4935000000000 1.0
C      1  0.5318360000000  0.4807930000000  0.4311860000000 1.0
C      1  0.5486660000000  0.4744930000000  0.5606070000000 1.0
C      1  0.4264200000000  0.4840210000000  0.5051080000000 1.0
C      1  0.4826810000000  0.5625680000000  0.4106270000000 1.0
C      1  0.4496820000000  0.5558540000000  0.5621470000000 1.0
C      1  0.5747640000000  0.5557010000000  0.5104630000000 1.0
C      1  0.4844340000000  0.4315750000000  0.5852300000000 1.0
C      1  0.4494050000000  0.4413640000000  0.4386580000000 1.0
C      1  0.5730050000000  0.4431800000000  0.4831600000000 1.0
C      1  0.5281670000000  0.4526380000000  0.5498470000000 1.0
C      1  0.5259250000000  0.4514290000000  0.4466520000000 1.0
C      1  0.4351180000000  0.4523530000000  0.5063830000000 1.0
C      1  0.5265530000000  0.5611440000000  0.4414640000000 1.0
C      1  0.5236260000000  0.5475720000000  0.5488080000000 1.0
C      1  0.4418970000000  0.5442210000000  0.4997640000000 1.0
C      1  0.4625230000000  0.4977520000000  0.5702140000000 1.0
C      1  0.4659180000000  0.5009440000000  0.4337910000000 1.0
C      1  0.5791730000000  0.4990450000000  0.4958650000000 1.0
C      1  0.4973930000000  0.5060330000000  0.4961700000000 1.0
END
