TITL C-2782235-7892-154 0.00203388795289092 125000 -628.474164430622 0 0 110 (C1) n - 1
REM
REM in /home/nfs/bkarasulu/CARBON/AIRSS/Generating-Clusters/REBO/Higher-Symm/SD-CG/HFTN-CG
REM
REM
REM
REM
REM
REM ./C.cell (12c818d87b63d06a65506943cc24bca4)
REM
REM compiler GCC version 9.2.1 20190827 (Red Hat 9.2.1-1)
REM options -cpp -mtune=generic -march=x86-64 -g -O0 -fpre-include=/usr/include/finclude/math-vector-fortran.h
REM seed 1152742642 -889482552 -1060258222 -1123877603 -2035450664 940250659 -1326461016 -1953661910 -66012045 -1654676139 -1318448255 1904793432 -1547358353 79769869 -1253335929 -983894347 -133168178 -355338652 1098990999 -1586458554 1317642304 107679935 -926762699 -906054140 -1952986807 1767181322 -1690833785 -1971486025 251082285 -322519258 -290478052 -72752077 -2031410517
REM
CELL 1.54180   50.00000   50.00000   50.00000   90.00000   90.00000   90.00000
LATT -1
SFAC C  
C      1  0.4545790000000  0.5563700000000  0.5331730000000 1.0
C      1  0.5795930000000  0.5253170000000  0.5209030000000 1.0
C      1  0.4832660000000  0.4268230000000  0.5256110000000 1.0
C      1  0.4420500000000  0.5515200000000  0.4708570000000 1.0
C      1  0.5707380000000  0.5119960000000  0.4581060000000 1.0
C      1  0.4873680000000  0.4266310000000  0.4611580000000 1.0
C      1  0.4638630000000  0.5584950000000  0.4461390000000 1.0
C      1  0.5677790000000  0.4863620000000  0.4477470000000 1.0
C      1  0.4821020000000  0.4418060000000  0.4360350000000 1.0
C      1  0.4547060000000  0.5496350000000  0.5607200000000 1.0
C      1  0.5763420000000  0.5201180000000  0.5487290000000 1.0
C      1  0.4690320000000  0.4414750000000  0.5491990000000 1.0
C      1  0.4150920000000  0.4622580000000  0.5651200000000 1.0
C      1  0.5044050000000  0.5828090000000  0.5730500000000 1.0
C      1  0.5660100000000  0.4617740000000  0.5661290000000 1.0
C      1  0.4242800000000  0.4653190000000  0.4375340000000 1.0
C      1  0.5234200000000  0.5735690000000  0.4355470000000 1.0
C      1  0.5478570000000  0.4333070000000  0.4332600000000 1.0
C      1  0.5337530000000  0.4946380000000  0.5128690000000 1.0
C      1  0.4830240000000  0.4783770000000  0.5131410000000 1.0
C      1  0.4959900000000  0.5257530000000  0.5147640000000 1.0
C      1  0.5306120000000  0.4924840000000  0.4800520000000 1.0
C      1  0.4809950000000  0.4774120000000  0.4801810000000 1.0
C      1  0.4912440000000  0.5267280000000  0.4819630000000 1.0
C      1  0.5428270000000  0.4750800000000  0.5464880000000 1.0
C      1  0.4575600000000  0.4729910000000  0.5432050000000 1.0
C      1  0.5074190000000  0.5519410000000  0.5610860000000 1.0
C      1  0.5475290000000  0.4635120000000  0.4586070000000 1.0
C      1  0.4503490000000  0.4833090000000  0.4501130000000 1.0
C      1  0.4960940000000  0.5483800000000  0.4488550000000 1.0
C      1  0.4450740000000  0.4901520000000  0.5165610000000 1.0
C      1  0.5189440000000  0.5524870000000  0.5333910000000 1.0
C      1  0.5418650000000  0.4561830000000  0.5182010000000 1.0
C      1  0.4433650000000  0.4892830000000  0.4828510000000 1.0
C      1  0.5175970000000  0.5550850000000  0.4735170000000 1.0
C      1  0.5362900000000  0.4533750000000  0.4858340000000 1.0
C      1  0.4951840000000  0.5272540000000  0.5763440000000 1.0
C      1  0.5287990000000  0.4994760000000  0.5599860000000 1.0
C      1  0.4715160000000  0.4930280000000  0.5626200000000 1.0
C      1  0.5026330000000  0.5270050000000  0.4269870000000 1.0
C      1  0.5204150000000  0.4799090000000  0.4349190000000 1.0
C      1  0.4700260000000  0.4891180000000  0.4261570000000 1.0
C      1  0.5605090000000  0.5434020000000  0.5621690000000 1.0
C      1  0.5025520000000  0.4426330000000  0.5568200000000 1.0
C      1  0.4468560000000  0.5166230000000  0.5637240000000 1.0
C      1  0.5328490000000  0.5405700000000  0.4355490000000 1.0
C      1  0.5157620000000  0.4464640000000  0.4393730000000 1.0
C      1  0.4466340000000  0.5303140000000  0.4375320000000 1.0
C      1  0.4909580000000  0.4662060000000  0.5712510000000 1.0
C      1  0.4700860000000  0.5244500000000  0.5873230000000 1.0
C      1  0.5438040000000  0.5203110000000  0.5717940000000 1.0
C      1  0.4590350000000  0.4881880000000  0.4006310000000 1.0
C      1  0.4701440000000  0.5286570000000  0.4202840000000 1.0
C      1  0.5352820000000  0.5064580000000  0.4361980000000 1.0
C      1  0.5271170000000  0.5240900000000  0.5205950000000 1.0
C      1  0.5120040000000  0.4703060000000  0.5215100000000 1.0
C      1  0.4733860000000  0.5064660000000  0.5250720000000 1.0
C      1  0.5213260000000  0.5219070000000  0.4703020000000 1.0
C      1  0.5105060000000  0.4701090000000  0.4720350000000 1.0
C      1  0.4697100000000  0.5072980000000  0.4747570000000 1.0
C      1  0.5660150000000  0.4880040000000  0.5169010000000 1.0
C      1  0.4609720000000  0.4549430000000  0.5064120000000 1.0
C      1  0.4867950000000  0.5545310000000  0.5100390000000 1.0
C      1  0.5632040000000  0.4859610000000  0.4874810000000 1.0
C      1  0.4578880000000  0.4527090000000  0.4765490000000 1.0
C      1  0.4790240000000  0.5585050000000  0.4830990000000 1.0
C      1  0.5269660000000  0.4308890000000  0.5463970000000 1.0
C      1  0.4228830000000  0.5076520000000  0.5441670000000 1.0
C      1  0.5518630000000  0.5682790000000  0.5491130000000 1.0
C      1  0.5270210000000  0.4230200000000  0.4617690000000 1.0
C      1  0.4279050000000  0.5181620000000  0.4531630000000 1.0
C      1  0.5529550000000  0.5588390000000  0.4562650000000 1.0
C      1  0.5710010000000  0.4931550000000  0.5570240000000 1.0
C      1  0.4401190000000  0.4518940000000  0.5621260000000 1.0
C      1  0.4770260000000  0.5626440000000  0.5731660000000 1.0
C      1  0.5627490000000  0.4609820000000  0.4285060000000 1.0
C      1  0.4562600000000  0.4529080000000  0.4360420000000 1.0
C      1  0.4898270000000  0.5790830000000  0.4369570000000 1.0
C      1  0.4539340000000  0.5325920000000  0.5157410000000 1.0
C      1  0.5566820000000  0.5262040000000  0.5046460000000 1.0
C      1  0.4986220000000  0.4418800000000  0.5093790000000 1.0
C      1  0.4501090000000  0.5313190000000  0.4879280000000 1.0
C      1  0.5538010000000  0.5246040000000  0.4768250000000 1.0
C      1  0.4982680000000  0.4416320000000  0.4820890000000 1.0
C      1  0.5737740000000  0.4375760000000  0.4854150000000 1.0
C      1  0.4133360000000  0.4747700000000  0.4897990000000 1.0
C      1  0.5156490000000  0.5862940000000  0.4881420000000 1.0
C      1  0.5693090000000  0.4362690000000  0.5186520000000 1.0
C      1  0.4135870000000  0.4656500000000  0.5182350000000 1.0
C      1  0.5116180000000  0.5837100000000  0.5203430000000 1.0
C      1  0.4367240000000  0.4479410000000  0.5202180000000 1.0
C      1  0.4788360000000  0.5773620000000  0.5281960000000 1.0
C      1  0.5790000000000  0.4667440000000  0.5284370000000 1.0
C      1  0.4299290000000  0.4546050000000  0.4686030000000 1.0
C      1  0.4884180000000  0.5820490000000  0.4698190000000 1.0
C      1  0.5815780000000  0.4650550000000  0.4790930000000 1.0
C      1  0.5559920000000  0.4375220000000  0.5502030000000 1.0
C      1  0.4091820000000  0.4801130000000  0.5431930000000 1.0
C      1  0.5262850000000  0.5872890000000  0.5509170000000 1.0
C      1  0.5598430000000  0.4249370000000  0.4641570000000 1.0
C      1  0.4117820000000  0.4889020000000  0.4587390000000 1.0
C      1  0.5366240000000  0.5876630000000  0.4613200000000 1.0
C      1  0.5261300000000  0.4155600000000  0.5212990000000 1.0
C      1  0.4181990000000  0.5107840000000  0.5106190000000 1.0
C      1  0.5464700000000  0.5645480000000  0.5166850000000 1.0
C      1  0.5301380000000  0.4216100000000  0.4951420000000 1.0
C      1  0.4126310000000  0.5140510000000  0.4826840000000 1.0
C      1  0.5470240000000  0.5618030000000  0.4894780000000 1.0
C      1  0.4968980000000  0.4964650000000  0.4293330000000 1.0
C      1  0.5023540000000  0.5030360000000  0.5630880000000 1.0
END
