TITL C-2782238-9940-123 0.00163021519465604 125000 -1129.02193417301 0 0 199 (C1) n - 1
REM
REM in /home/nfs/bkarasulu/CARBON/AIRSS/Generating-Clusters/REBO/Higher-Symm/SD-CG/HFTN-CG
REM
REM
REM
REM
REM
REM ./C.cell (12c818d87b63d06a65506943cc24bca4)
REM
REM compiler GCC version 9.2.1 20190827 (Red Hat 9.2.1-1)
REM options -cpp -mtune=generic -march=x86-64 -g -O0 -fpre-include=/usr/include/finclude/math-vector-fortran.h
REM seed -1369696552 1186887980 1102727438 174935573 -1370298722 -2037264870 1997133025 600196840 -542351588 1513969693 1951656924 2089795123 -853838495 -79627947 -1327092703 1001793477 -1055566953 -1658679654 1128171415 -758031856 716000996 -1961027625 -511723235 741980861 -856419741 -997529271 1924641880 619001223 -26824530 1281842894 -816668229 1450488285 -1334296767
REM
CELL 1.54180   50.00000   50.00000   50.00000   90.00000   90.00000   90.00000
LATT -1
SFAC C  
C      1  0.4081730000000  0.5079660000000  0.5924880000000 1.0
C      1  0.4851780000000  0.5901260000000  0.5925450000000 1.0
C      1  0.5782060000000  0.5324200000000  0.5935390000000 1.0
C      1  0.5611310000000  0.4424250000000  0.5957880000000 1.0
C      1  0.4678190000000  0.4274400000000  0.5953260000000 1.0
C      1  0.4246330000000  0.5148970000000  0.4022580000000 1.0
C      1  0.4923700000000  0.5736670000000  0.4047680000000 1.0
C      1  0.5685810000000  0.5259660000000  0.4052420000000 1.0
C      1  0.5474530000000  0.4441010000000  0.4064980000000 1.0
C      1  0.4617520000000  0.4318980000000  0.4052190000000 1.0
C      1  0.5241930000000  0.4793680000000  0.3547580000000 1.0
C      1  0.4905880000000  0.4675970000000  0.3558920000000 1.0
C      1  0.4694410000000  0.4958430000000  0.3510450000000 1.0
C      1  0.4895340000000  0.5253270000000  0.3502740000000 1.0
C      1  0.5236720000000  0.5149620000000  0.3517970000000 1.0
C      1  0.5240920000000  0.4813800000000  0.6404490000000 1.0
C      1  0.4890720000000  0.4751660000000  0.6374670000000 1.0
C      1  0.4725940000000  0.5053370000000  0.6280720000000 1.0
C      1  0.4968260000000  0.5313460000000  0.6300790000000 1.0
C      1  0.5282870000000  0.5166280000000  0.6379580000000 1.0
C      1  0.4245060000000  0.5121570000000  0.5659100000000 1.0
C      1  0.4920570000000  0.5754700000000  0.5656450000000 1.0
C      1  0.5750910000000  0.5300590000000  0.5617840000000 1.0
C      1  0.5553350000000  0.4424770000000  0.5644010000000 1.0
C      1  0.4629080000000  0.4254040000000  0.5627370000000 1.0
C      1  0.4191100000000  0.5155080000000  0.4338470000000 1.0
C      1  0.4916210000000  0.5799390000000  0.4371230000000 1.0
C      1  0.5735670000000  0.5264890000000  0.4382190000000 1.0
C      1  0.5488840000000  0.4388130000000  0.4385670000000 1.0
C      1  0.4568500000000  0.4261230000000  0.4324610000000 1.0
C      1  0.4769790000000  0.5519990000000  0.3974630000000 1.0
C      1  0.5432790000000  0.5353390000000  0.3983160000000 1.0
C      1  0.5487590000000  0.4711580000000  0.4006890000000 1.0
C      1  0.4877350000000  0.4389910000000  0.3964190000000 1.0
C      1  0.4405280000000  0.4934840000000  0.3957130000000 1.0
C      1  0.4596580000000  0.5909350000000  0.6023370000000 1.0
C      1  0.5540420000000  0.5402520000000  0.6047910000000 1.0
C      1  0.5617210000000  0.4687780000000  0.6049860000000 1.0
C      1  0.4929680000000  0.4383300000000  0.6001670000000 1.0
C      1  0.3989420000000  0.4835180000000  0.6004220000000 1.0
C      1  0.5471600000000  0.4855620000000  0.5612410000000 1.0
C      1  0.5049940000000  0.4550410000000  0.5628530000000 1.0
C      1  0.4598300000000  0.4769950000000  0.5681640000000 1.0
C      1  0.4746900000000  0.5313200000000  0.5562460000000 1.0
C      1  0.5279440000000  0.5355630000000  0.5610480000000 1.0
C      1  0.5389070000000  0.4883440000000  0.4368480000000 1.0
C      1  0.4993810000000  0.4581300000000  0.4389980000000 1.0
C      1  0.4591970000000  0.4830180000000  0.4353310000000 1.0
C      1  0.4756310000000  0.5293200000000  0.4339650000000 1.0
C      1  0.5247660000000  0.5344640000000  0.4434820000000 1.0
C      1  0.5863690000000  0.5289980000000  0.4759670000000 1.0
C      1  0.5507330000000  0.4224210000000  0.4749940000000 1.0
C      1  0.4332230000000  0.4274200000000  0.4737710000000 1.0
C      1  0.4109980000000  0.5380820000000  0.4749170000000 1.0
C      1  0.5090280000000  0.5974570000000  0.4759550000000 1.0
C      1  0.5931630000000  0.5355600000000  0.5266120000000 1.0
C      1  0.5593760000000  0.4206630000000  0.5212290000000 1.0
C      1  0.4448860000000  0.4226080000000  0.5273270000000 1.0
C      1  0.4142460000000  0.5284660000000  0.5309470000000 1.0
C      1  0.4999360000000  0.5979100000000  0.5335310000000 1.0
C      1  0.4049340000000  0.4703480000000  0.5164240000000 1.0
C      1  0.4436250000000  0.5812020000000  0.5192130000000 1.0
C      1  0.5562480000000  0.5900520000000  0.5244130000000 1.0
C      1  0.5997150000000  0.4746930000000  0.5196190000000 1.0
C      1  0.5000050000000  0.3952990000000  0.5153070000000 1.0
C      1  0.3989870000000  0.4760350000000  0.4832730000000 1.0
C      1  0.4481440000000  0.5840310000000  0.4854630000000 1.0
C      1  0.5587690000000  0.5872340000000  0.4904140000000 1.0
C      1  0.5898990000000  0.4712950000000  0.4877400000000 1.0
C      1  0.4921960000000  0.3996290000000  0.4823030000000 1.0
C      1  0.4499100000000  0.5444240000000  0.4801910000000 1.0
C      1  0.5323970000000  0.5669090000000  0.4857700000000 1.0
C      1  0.5657030000000  0.4938750000000  0.4833620000000 1.0
C      1  0.5131290000000  0.4336910000000  0.4824810000000 1.0
C      1  0.4359690000000  0.4632870000000  0.4907800000000 1.0
C      1  0.4474610000000  0.5418840000000  0.5134810000000 1.0
C      1  0.5317720000000  0.5685320000000  0.5177270000000 1.0
C      1  0.5727090000000  0.4930800000000  0.5163820000000 1.0
C      1  0.5210140000000  0.4291010000000  0.5145190000000 1.0
C      1  0.4435260000000  0.4618520000000  0.5224400000000 1.0
C      1  0.4675060000000  0.4046750000000  0.5131440000000 1.0
C      1  0.4023430000000  0.5033520000000  0.5129030000000 1.0
C      1  0.4736350000000  0.5942470000000  0.5144670000000 1.0
C      1  0.5754500000000  0.5626760000000  0.5169800000000 1.0
C      1  0.5839330000000  0.4443450000000  0.5171690000000 1.0
C      1  0.4594920000000  0.4076350000000  0.4802990000000 1.0
C      1  0.3986530000000  0.5090740000000  0.4804590000000 1.0
C      1  0.4785760000000  0.5963600000000  0.4817490000000 1.0
C      1  0.5751340000000  0.5595850000000  0.4830760000000 1.0
C      1  0.5779860000000  0.4409620000000  0.4837310000000 1.0
C      1  0.5266490000000  0.4616850000000  0.4355510000000 1.0
C      1  0.4816010000000  0.4723180000000  0.4231720000000 1.0
C      1  0.4514330000000  0.5113160000000  0.4315410000000 1.0
C      1  0.5022770000000  0.5485320000000  0.4339640000000 1.0
C      1  0.5427250000000  0.5154120000000  0.4335010000000 1.0
C      1  0.5308890000000  0.4633730000000  0.5756480000000 1.0
C      1  0.4763040000000  0.4549890000000  0.5679430000000 1.0
C      1  0.4564360000000  0.5087870000000  0.5722610000000 1.0
C      1  0.4996190000000  0.5440490000000  0.5719650000000 1.0
C      1  0.5474590000000  0.5134070000000  0.5726430000000 1.0
C      1  0.4611420000000  0.4469530000000  0.4746150000000 1.0
C      1  0.4362380000000  0.5150230000000  0.4697430000000 1.0
C      1  0.5001130000000  0.5635630000000  0.4749780000000 1.0
C      1  0.5555840000000  0.5247400000000  0.4833910000000 1.0
C      1  0.5401330000000  0.4526100000000  0.4795430000000 1.0
C      1  0.4718670000000  0.4430770000000  0.5228670000000 1.0
C      1  0.4403460000000  0.5099840000000  0.5233900000000 1.0
C      1  0.4989020000000  0.5658570000000  0.5268170000000 1.0
C      1  0.5627590000000  0.5251040000000  0.5226030000000 1.0
C      1  0.5449760000000  0.4512830000000  0.5194610000000 1.0
C      1  0.4498210000000  0.4857170000000  0.5402750000000 1.0
C      1  0.4744540000000  0.5455770000000  0.5290580000000 1.0
C      1  0.5354760000000  0.5409700000000  0.5308790000000 1.0
C      1  0.5503990000000  0.4792730000000  0.5310470000000 1.0
C      1  0.5014350000000  0.4426210000000  0.5331020000000 1.0
C      1  0.4452320000000  0.4824910000000  0.4655840000000 1.0
C      1  0.4759940000000  0.5466810000000  0.4634670000000 1.0
C      1  0.5332850000000  0.5406320000000  0.4723410000000 1.0
C      1  0.5449980000000  0.4790240000000  0.4664930000000 1.0
C      1  0.4902190000000  0.4461910000000  0.4660330000000 1.0
C      1  0.5812270000000  0.4777710000000  0.4407850000000 1.0
C      1  0.5073660000000  0.4115060000000  0.4360280000000 1.0
C      1  0.4238460000000  0.4643540000000  0.4365990000000 1.0
C      1  0.4429150000000  0.5608610000000  0.4372200000000 1.0
C      1  0.5431150000000  0.5695610000000  0.4385170000000 1.0
C      1  0.5869480000000  0.4816370000000  0.5608850000000 1.0
C      1  0.5143080000000  0.4146890000000  0.5585710000000 1.0
C      1  0.4154990000000  0.4605670000000  0.5595990000000 1.0
C      1  0.4404840000000  0.5678920000000  0.5628380000000 1.0
C      1  0.5455420000000  0.5712630000000  0.5644430000000 1.0
C      1  0.6044890000000  0.5021910000000  0.4856630000000 1.0
C      1  0.5253280000000  0.4022410000000  0.4853160000000 1.0
C      1  0.4086500000000  0.4436870000000  0.4869870000000 1.0
C      1  0.4230280000000  0.5631240000000  0.4902330000000 1.0
C      1  0.5316540000000  0.6056780000000  0.4946020000000 1.0
C      1  0.6099160000000  0.5073180000000  0.5176020000000 1.0
C      1  0.5339310000000  0.3982150000000  0.5166920000000 1.0
C      1  0.4174780000000  0.4405820000000  0.5182540000000 1.0
C      1  0.4195120000000  0.5597890000000  0.5219310000000 1.0
C      1  0.5277040000000  0.6085750000000  0.5243160000000 1.0
C      1  0.5328820000000  0.4135410000000  0.4482270000000 1.0
C      1  0.4353880000000  0.4396130000000  0.4451030000000 1.0
C      1  0.4217550000000  0.5438880000000  0.4462670000000 1.0
C      1  0.5215530000000  0.5846970000000  0.4491160000000 1.0
C      1  0.5911130000000  0.5037000000000  0.4540880000000 1.0
C      1  0.5404440000000  0.4209090000000  0.5484820000000 1.0
C      1  0.4333380000000  0.4388880000000  0.5545730000000 1.0
C      1  0.4259800000000  0.5441490000000  0.5578570000000 1.0
C      1  0.5222330000000  0.5830740000000  0.5544870000000 1.0
C      1  0.5931520000000  0.5080560000000  0.5473150000000 1.0
C      1  0.4107400000000  0.4902880000000  0.5436860000000 1.0
C      1  0.4657970000000  0.5807370000000  0.5452930000000 1.0
C      1  0.5666010000000  0.5576420000000  0.5494120000000 1.0
C      1  0.5784900000000  0.4568250000000  0.5483820000000 1.0
C      1  0.4846070000000  0.4080390000000  0.5431100000000 1.0
C      1  0.4082020000000  0.4897260000000  0.4533170000000 1.0
C      1  0.4624510000000  0.5827690000000  0.4544700000000 1.0
C      1  0.5647780000000  0.5547320000000  0.4521020000000 1.0
C      1  0.5728260000000  0.4526530000000  0.4529210000000 1.0
C      1  0.4793500000000  0.4102400000000  0.4524150000000 1.0
C      1  0.4686280000000  0.4980770000000  0.3853440000000 1.0
C      1  0.4878050000000  0.5265390000000  0.3846810000000 1.0
C      1  0.5211340000000  0.5183870000000  0.3859700000000 1.0
C      1  0.5236450000000  0.4843380000000  0.3888480000000 1.0
C      1  0.4913320000000  0.4723620000000  0.3904920000000 1.0
C      1  0.4804180000000  0.4985960000000  0.5946660000000 1.0
C      1  0.5016300000000  0.5258000000000  0.5965280000000 1.0
C      1  0.5329690000000  0.5138710000000  0.6035850000000 1.0
C      1  0.5298100000000  0.4793620000000  0.6062290000000 1.0
C      1  0.4963420000000  0.4692400000000  0.6044390000000 1.0
C      1  0.5121500000000  0.4232430000000  0.5859620000000 1.0
C      1  0.4026650000000  0.4610020000000  0.5851310000000 1.0
C      1  0.4385400000000  0.5799750000000  0.5885620000000 1.0
C      1  0.5443380000000  0.5641000000000  0.5925300000000 1.0
C      1  0.5798340000000  0.4842420000000  0.5889140000000 1.0
C      1  0.5065900000000  0.4226540000000  0.4096190000000 1.0
C      1  0.4314580000000  0.4705510000000  0.4094590000000 1.0
C      1  0.4525620000000  0.5529690000000  0.4114620000000 1.0
C      1  0.5371990000000  0.5592000000000  0.4122000000000 1.0
C      1  0.5711390000000  0.4827380000000  0.4139700000000 1.0
C      1  0.5064630000000  0.4734220000000  0.4752560000000 1.0
C      1  0.4767780000000  0.4835130000000  0.4711000000000 1.0
C      1  0.4774870000000  0.5146920000000  0.4710410000000 1.0
C      1  0.5058000000000  0.5240530000000  0.4771170000000 1.0
C      1  0.5245160000000  0.4997990000000  0.4805990000000 1.0
C      1  0.5010760000000  0.4740870000000  0.5279760000000 1.0
C      1  0.4747920000000  0.4867390000000  0.5222640000000 1.0
C      1  0.4789440000000  0.5163530000000  0.5153720000000 1.0
C      1  0.5075480000000  0.5233170000000  0.5291910000000 1.0
C      1  0.5222220000000  0.4953080000000  0.5319200000000 1.0
C      1  0.4750640000000  0.4654900000000  0.4985090000000 1.0
C      1  0.5042250000000  0.5441780000000  0.5024160000000 1.0
C      1  0.5205610000000  0.4673070000000  0.5035040000000 1.0
C      1  0.5374960000000  0.5087680000000  0.5073780000000 1.0
C      1  0.4553950000000  0.5077540000000  0.4946040000000 1.0
C      1  0.4945900000000  0.5060650000000  0.5607020000000 1.0
C      1  0.4966070000000  0.5114950000000  0.4206670000000 1.0
C      1  0.4993040000000  0.4973670000000  0.3605270000000 1.0
C      1  0.5035080000000  0.5008340000000  0.6269790000000 1.0
END
