TITL C-2782237-5345-1456 0.141884876595768 125000 -857.056036516073 0 0 149 (C1) n - 1
REM
REM in /home/nfs/bkarasulu/CARBON/AIRSS/Generating-Clusters/REBO/Higher-Symm/SD-CG/HFTN-CG
REM
REM
REM
REM
REM
REM ./C.cell (12c818d87b63d06a65506943cc24bca4)
REM
REM compiler GCC version 9.2.1 20190827 (Red Hat 9.2.1-1)
REM options -cpp -mtune=generic -march=x86-64 -g -O0 -fpre-include=/usr/include/finclude/math-vector-fortran.h
REM seed -248611990 127478536 1513248405 192376116 -471884300 1285815522 -514423356 -641463680 -938443619 517662994 -126814543 -1507564248 -780472620 -783916517 149761599 133307118 -383676331 1040454866 1631839035 -1212733800 1693725370 2111052470 -325576025 -620424348 654788432 1708617429 -1621573688 -1019361015 -1162718531 -578681263 -1436047144 -1527867134 929917709
REM
CELL 1.54180   50.00000   50.00000   50.00000   90.00000   90.00000   90.00000
LATT -1
SFAC C  
C      1  0.4580890000000  0.4469010000000  0.4196440000000 1.0
C      1  0.4389890000000  0.4068650000000  0.4864210000000 1.0
C      1  0.3896340000000  0.4850890000000  0.4398660000000 1.0
C      1  0.4640040000000  0.5405920000000  0.5845570000000 1.0
C      1  0.5237110000000  0.4452470000000  0.5848870000000 1.0
C      1  0.5184030000000  0.5611590000000  0.4049890000000 1.0
C      1  0.4537880000000  0.6005730000000  0.5274970000000 1.0
C      1  0.5693740000000  0.4251820000000  0.5216140000000 1.0
C      1  0.5646540000000  0.5984280000000  0.4828480000000 1.0
C      1  0.4036150000000  0.5297870000000  0.5338270000000 1.0
C      1  0.5996570000000  0.4924290000000  0.5821520000000 1.0
C      1  0.5876940000000  0.5262170000000  0.4369230000000 1.0
C      1  0.4098980000000  0.4372850000000  0.5291200000000 1.0
C      1  0.4368660000000  0.5014740000000  0.4236900000000 1.0
C      1  0.4845280000000  0.4044390000000  0.4126170000000 1.0
C      1  0.4220750000000  0.5712660000000  0.4803970000000 1.0
C      1  0.5975780000000  0.4462160000000  0.4892590000000 1.0
C      1  0.5985430000000  0.5681580000000  0.5038340000000 1.0
C      1  0.4231440000000  0.4835560000000  0.5697270000000 1.0
C      1  0.5531080000000  0.5161430000000  0.6014830000000 1.0
C      1  0.5555660000000  0.4832970000000  0.3997520000000 1.0
C      1  0.5129890000000  0.5758550000000  0.5737240000000 1.0
C      1  0.5024170000000  0.4011350000000  0.5633380000000 1.0
C      1  0.5066820000000  0.5987150000000  0.4508580000000 1.0
C      1  0.4980300000000  0.5581810000000  0.5413970000000 1.0
C      1  0.5866820000000  0.5330250000000  0.4892060000000 1.0
C      1  0.5256860000000  0.4998840000000  0.5778540000000 1.0
C      1  0.4919220000000  0.4098000000000  0.4595110000000 1.0
C      1  0.5145280000000  0.5628460000000  0.4666150000000 1.0
C      1  0.5149960000000  0.4144200000000  0.5281490000000 1.0
C      1  0.5851320000000  0.4811110000000  0.5038580000000 1.0
C      1  0.4397920000000  0.5420430000000  0.5008040000000 1.0
C      1  0.4364940000000  0.4583970000000  0.5080580000000 1.0
C      1  0.5317840000000  0.5049670000000  0.4108870000000 1.0
C      1  0.4674260000000  0.4821440000000  0.4404080000000 1.0
C      1  0.4528460000000  0.5038790000000  0.5527100000000 1.0
C      1  0.5401470000000  0.4549120000000  0.5044360000000 1.0
C      1  0.4328860000000  0.5031240000000  0.5058570000000 1.0
C      1  0.5064360000000  0.5389790000000  0.4358070000000 1.0
C      1  0.5425070000000  0.5550880000000  0.4940640000000 1.0
C      1  0.4661220000000  0.4334590000000  0.4988670000000 1.0
C      1  0.4772230000000  0.5731360000000  0.5108600000000 1.0
C      1  0.4240060000000  0.4885850000000  0.4701090000000 1.0
C      1  0.5538730000000  0.5014740000000  0.4634030000000 1.0
C      1  0.5766900000000  0.4997000000000  0.5504650000000 1.0
C      1  0.5126270000000  0.4633910000000  0.5511090000000 1.0
C      1  0.5003720000000  0.5122190000000  0.5672610000000 1.0
C      1  0.4975910000000  0.4473930000000  0.4294320000000 1.0
C      1  0.5392110000000  0.4716800000000  0.5714470000000 1.0
C      1  0.4704550000000  0.5757660000000  0.5439670000000 1.0
C      1  0.5690230000000  0.5313940000000  0.4639880000000 1.0
C      1  0.5338190000000  0.5336350000000  0.4164010000000 1.0
C      1  0.4403830000000  0.4624680000000  0.4443850000000 1.0
C      1  0.4458620000000  0.5335580000000  0.5586400000000 1.0
C      1  0.4642680000000  0.4188620000000  0.4679510000000 1.0
C      1  0.5464810000000  0.5535250000000  0.4611020000000 1.0
C      1  0.5391450000000  0.4343790000000  0.5318170000000 1.0
C      1  0.5814460000000  0.4781710000000  0.5317820000000 1.0
C      1  0.4315250000000  0.5475660000000  0.5309660000000 1.0
C      1  0.4297960000000  0.4581640000000  0.4765620000000 1.0
C      1  0.4838720000000  0.5675290000000  0.5885530000000 1.0
C      1  0.5952370000000  0.5883090000000  0.4839890000000 1.0
C      1  0.5760210000000  0.4973140000000  0.6025300000000 1.0
C      1  0.4585350000000  0.4138450000000  0.4119130000000 1.0
C      1  0.5144280000000  0.5915750000000  0.4186820000000 1.0
C      1  0.5251210000000  0.4128010000000  0.5793690000000 1.0
C      1  0.6001290000000  0.4320630000000  0.5142940000000 1.0
C      1  0.4302430000000  0.5937060000000  0.5038780000000 1.0
C      1  0.4131210000000  0.4137280000000  0.5063530000000 1.0
C      1  0.5711810000000  0.5105850000000  0.4128960000000 1.0
C      1  0.4125670000000  0.4878680000000  0.4172900000000 1.0
C      1  0.4036540000000  0.5085650000000  0.5599690000000 1.0
C      1  0.5857310000000  0.4487250000000  0.5399090000000 1.0
C      1  0.4128800000000  0.5402310000000  0.5652940000000 1.0
C      1  0.5368150000000  0.5697990000000  0.4326960000000 1.0
C      1  0.5790740000000  0.5870300000000  0.4553790000000 1.0
C      1  0.4152100000000  0.4285180000000  0.4767300000000 1.0
C      1  0.4273820000000  0.5800620000000  0.5343430000000 1.0
C      1  0.4085310000000  0.4580730000000  0.4329530000000 1.0
C      1  0.5642610000000  0.5432510000000  0.4208110000000 1.0
C      1  0.5716700000000  0.4724200000000  0.5815550000000 1.0
C      1  0.5459010000000  0.4333510000000  0.5625660000000 1.0
C      1  0.4559710000000  0.5702270000000  0.5707150000000 1.0
C      1  0.4463370000000  0.4232460000000  0.4412160000000 1.0
C      1  0.4531900000000  0.5704400000000  0.4942800000000 1.0
C      1  0.5524900000000  0.4901720000000  0.4334000000000 1.0
C      1  0.5046900000000  0.4330990000000  0.5518990000000 1.0
C      1  0.4412300000000  0.4270100000000  0.5207950000000 1.0
C      1  0.5709050000000  0.5522260000000  0.5082060000000 1.0
C      1  0.5676990000000  0.4594140000000  0.4890730000000 1.0
C      1  0.5570000000000  0.5073360000000  0.5688030000000 1.0
C      1  0.4249150000000  0.4938420000000  0.5372590000000 1.0
C      1  0.4431060000000  0.5010870000000  0.4539480000000 1.0
C      1  0.4972210000000  0.5692720000000  0.4378830000000 1.0
C      1  0.4990450000000  0.4186510000000  0.4331270000000 1.0
C      1  0.5015120000000  0.5438470000000  0.5711750000000 1.0
C      1  0.5241780000000  0.5095480000000  0.6096210000000 1.0
C      1  0.5204570000000  0.5830200000000  0.5451330000000 1.0
C      1  0.6081980000000  0.5387810000000  0.5131160000000 1.0
C      1  0.5238020000000  0.4824970000000  0.3875380000000 1.0
C      1  0.4641820000000  0.4980390000000  0.4104840000000 1.0
C      1  0.4519080000000  0.4842540000000  0.5788840000000 1.0
C      1  0.5117800000000  0.3979880000000  0.4746510000000 1.0
C      1  0.5139010000000  0.5944750000000  0.4791520000000 1.0
C      1  0.5010100000000  0.3879630000000  0.5340800000000 1.0
C      1  0.6107160000000  0.4745670000000  0.4858280000000 1.0
C      1  0.4116120000000  0.5428770000000  0.4817940000000 1.0
C      1  0.4047290000000  0.4647620000000  0.5188540000000 1.0
C      1  0.4845340000000  0.4559540000000  0.4032570000000 1.0
C      1  0.4657210000000  0.3995000000000  0.5028190000000 1.0
C      1  0.3972370000000  0.4976360000000  0.4645600000000 1.0
C      1  0.4810430000000  0.5173050000000  0.5926770000000 1.0
C      1  0.4958720000000  0.4598810000000  0.5806100000000 1.0
C      1  0.4962130000000  0.5358070000000  0.4036860000000 1.0
C      1  0.4858590000000  0.6027990000000  0.5169500000000 1.0
C      1  0.5504140000000  0.4236640000000  0.4953400000000 1.0
C      1  0.5464630000000  0.5858060000000  0.5006100000000 1.0
C      1  0.4021230000000  0.5109930000000  0.5095590000000 1.0
C      1  0.6044740000000  0.5108690000000  0.5578420000000 1.0
C      1  0.5862870000000  0.4976800000000  0.4525870000000 1.0
C      1  0.5003500000000  0.5336590000000  0.5233340000000 1.0
C      1  0.5238660000000  0.5328010000000  0.5013290000000 1.0
C      1  0.4945420000000  0.5069520000000  0.5379840000000 1.0
C      1  0.5047930000000  0.4737260000000  0.4714180000000 1.0
C      1  0.5082280000000  0.5287480000000  0.4653200000000 1.0
C      1  0.4990330000000  0.4777990000000  0.5248350000000 1.0
C      1  0.5193970000000  0.4773520000000  0.4997660000000 1.0
C      1  0.4619900000000  0.5188790000000  0.4979700000000 1.0
C      1  0.4698170000000  0.4638510000000  0.5140130000000 1.0
C      1  0.5272580000000  0.5051880000000  0.4815380000000 1.0
C      1  0.4925310000000  0.4680740000000  0.4485000000000 1.0
C      1  0.4619020000000  0.4949610000000  0.5222190000000 1.0
C      1  0.3932280000000  0.5243110000000  0.4729350000000 1.0
C      1  0.5007850000000  0.4694050000000  0.3853720000000 1.0
C      1  0.4799700000000  0.3820580000000  0.5166630000000 1.0
C      1  0.3889240000000  0.4869020000000  0.5128550000000 1.0
C      1  0.6153870000000  0.5267380000000  0.5373550000000 1.0
C      1  0.6092800000000  0.4862170000000  0.4603830000000 1.0
C      1  0.4966790000000  0.5142380000000  0.6155340000000 1.0
C      1  0.4730600000000  0.4699970000000  0.5882170000000 1.0
C      1  0.4801830000000  0.5159030000000  0.3971270000000 1.0
C      1  0.5075880000000  0.6100980000000  0.5012370000000 1.0
C      1  0.5359020000000  0.4046750000000  0.4842620000000 1.0
C      1  0.5353680000000  0.5937100000000  0.5248660000000 1.0
C      1  0.4261720000000  0.5691370000000  0.5641350000000 1.0
C      1  0.5687770000000  0.5728530000000  0.4341760000000 1.0
C      1  0.5728320000000  0.4456830000000  0.5667150000000 1.0
C      1  0.4168250000000  0.4304010000000  0.4459920000000 1.0
C      1  0.4900070000000  0.5282770000000  0.4930020000000 1.0
END
