TITL C-2782233-7966-565 -2.03632602543034e-07 125000 -115.640602558965 0 0 21 (C1) n - 1
REM
REM in /home/nfs/bkarasulu/CARBON/AIRSS/Generating-Clusters/REBO/Higher-Symm/SD-CG/HFTN-CG
REM
REM
REM
REM
REM
REM ./C.cell (12c818d87b63d06a65506943cc24bca4)
REM
REM compiler GCC version 9.2.1 20190827 (Red Hat 9.2.1-1)
REM options -cpp -mtune=generic -march=x86-64 -g -O0 -fpre-include=/usr/include/finclude/math-vector-fortran.h
REM seed -1008924807 1140268319 771349227 740126251 -626115232 -765015959 -1803742410 1194819780 1980708662 -1842129626 803664510 902254252 -274188514 -1966113151 -1368440704 -2020543335 -449601481 -567705664 304777644 611781568 -1928195108 1461033879 -818084132 567041171 -1913120473 -806245546 862895918 -443498665 1632512550 1158465525 -868064475 -1702566525 -1639555081
REM
CELL 1.54180   50.00000   50.00000   50.00000   90.00000   90.00000   90.00000
LATT -1
SFAC C  
C      1  0.4912960000000  0.4593350000000  0.4863950000000 1.0
C      1  0.5619100000000  0.5248120000000  0.4993200000000 1.0
C      1  0.5245800000000  0.5613650000000  0.5251310000000 1.0
C      1  0.4860700000000  0.4991340000000  0.5524200000000 1.0
C      1  0.4891030000000  0.5295040000000  0.5144860000000 1.0
C      1  0.5256180000000  0.4376620000000  0.5144940000000 1.0
C      1  0.4597710000000  0.4913030000000  0.5126130000000 1.0
C      1  0.4740690000000  0.5409080000000  0.4934550000000 1.0
C      1  0.5293710000000  0.4906250000000  0.5035160000000 1.0
C      1  0.5456880000000  0.4734950000000  0.4824140000000 1.0
C      1  0.4679770000000  0.4709490000000  0.4898890000000 1.0
C      1  0.5170580000000  0.5362780000000  0.5176660000000 1.0
C      1  0.4387540000000  0.4868530000000  0.4868040000000 1.0
C      1  0.5360830000000  0.5169890000000  0.5088180000000 1.0
C      1  0.5690450000000  0.4850610000000  0.4725920000000 1.0
C      1  0.4392860000000  0.5129190000000  0.4702520000000 1.0
C      1  0.5771150000000  0.5100020000000  0.4815650000000 1.0
C      1  0.5196880000000  0.4590520000000  0.4977000000000 1.0
C      1  0.4548040000000  0.5345130000000  0.4754730000000 1.0
C      1  0.4776640000000  0.5066250000000  0.5276420000000 1.0
C      1  0.4150510000000  0.4726160000000  0.4873530000000 1.0
END
