TITL C-2782231-7322-1117 -0.00550229626988725 125000 -902.631435635714 0 0 151 (C1) n - 1
REM
REM in /home/nfs/bkarasulu/CARBON/AIRSS/Generating-Clusters/REBO/Higher-Symm/SD-CG/HFTN-CG
REM
REM
REM
REM
REM
REM ./C.cell (12c818d87b63d06a65506943cc24bca4)
REM
REM compiler GCC version 9.2.1 20190827 (Red Hat 9.2.1-1)
REM options -cpp -mtune=generic -march=x86-64 -g -O0 -fpre-include=/usr/include/finclude/math-vector-fortran.h
REM seed 2033133632 -553488912 -315612711 2071793488 1574173833 455302145 -1312399096 -424134278 -828704090 1839757800 1898184854 1345585479 -1536779073 1213392196 681708659 191981886 2068336082 -1078464178 -1959051748 -269930404 -1472777591 -404363534 696900112 -240785154 -1434993102 -891944258 -893360901 -476443019 1069025378 -1279677225 -1714419772 400433681 -1895980590
REM
CELL 1.54180   50.00000   50.00000   50.00000   90.00000   90.00000   90.00000
LATT -1
SFAC C  
C      1  0.5530340000000  0.4118070000000  0.5170150000000 1.0
C      1  0.4451650000000  0.4128330000000  0.4803930000000 1.0
C      1  0.5497190000000  0.5848230000000  0.4807810000000 1.0
C      1  0.4490360000000  0.5803330000000  0.5104790000000 1.0
C      1  0.4389230000000  0.5300860000000  0.5584530000000 1.0
C      1  0.5514360000000  0.5325250000000  0.4391110000000 1.0
C      1  0.4470030000000  0.4682290000000  0.4375770000000 1.0
C      1  0.5614130000000  0.4586570000000  0.5683670000000 1.0
C      1  0.5179280000000  0.4059210000000  0.4528180000000 1.0
C      1  0.4829380000000  0.4300690000000  0.5458670000000 1.0
C      1  0.5126090000000  0.5902470000000  0.5456770000000 1.0
C      1  0.4802840000000  0.5964010000000  0.4489060000000 1.0
C      1  0.5198320000000  0.4661980000000  0.4125790000000 1.0
C      1  0.4756590000000  0.4645490000000  0.5901580000000 1.0
C      1  0.5234570000000  0.5346190000000  0.5985300000000 1.0
C      1  0.4761680000000  0.5358970000000  0.4030930000000 1.0
C      1  0.5566780000000  0.5109360000000  0.4056010000000 1.0
C      1  0.4403120000000  0.5037660000000  0.5935860000000 1.0
C      1  0.5619650000000  0.4860530000000  0.5984600000000 1.0
C      1  0.4335930000000  0.4938450000000  0.4078990000000 1.0
C      1  0.5307840000000  0.4533760000000  0.5797740000000 1.0
C      1  0.4649600000000  0.4539390000000  0.4172570000000 1.0
C      1  0.5291050000000  0.5472690000000  0.4212760000000 1.0
C      1  0.4677530000000  0.5366010000000  0.5706760000000 1.0
C      1  0.5270580000000  0.4627350000000  0.5483030000000 1.0
C      1  0.4912760000000  0.4627230000000  0.4716260000000 1.0
C      1  0.5060870000000  0.5473180000000  0.4709490000000 1.0
C      1  0.4855390000000  0.5336030000000  0.5414870000000 1.0
C      1  0.5227490000000  0.4620570000000  0.4675020000000 1.0
C      1  0.4988160000000  0.4513920000000  0.5375980000000 1.0
C      1  0.5140720000000  0.5454740000000  0.5344040000000 1.0
C      1  0.4766610000000  0.5405130000000  0.4575130000000 1.0
C      1  0.5179260000000  0.5710440000000  0.4313810000000 1.0
C      1  0.4760060000000  0.5662120000000  0.5622940000000 1.0
C      1  0.5192290000000  0.4254630000000  0.5678550000000 1.0
C      1  0.4770840000000  0.4279530000000  0.4293730000000 1.0
C      1  0.4889700000000  0.5994440000000  0.5313060000000 1.0
C      1  0.5039310000000  0.5991240000000  0.4650160000000 1.0
C      1  0.4884290000000  0.4136870000000  0.4583330000000 1.0
C      1  0.5121260000000  0.4029190000000  0.5430180000000 1.0
C      1  0.5350570000000  0.5830770000000  0.5300800000000 1.0
C      1  0.4565580000000  0.5960550000000  0.4649120000000 1.0
C      1  0.5377370000000  0.4065540000000  0.4721250000000 1.0
C      1  0.4614830000000  0.4216980000000  0.5296490000000 1.0
C      1  0.4063550000000  0.5341650000000  0.4402700000000 1.0
C      1  0.6024180000000  0.5254310000000  0.5292240000000 1.0
C      1  0.3967620000000  0.4711150000000  0.5313680000000 1.0
C      1  0.5983540000000  0.4654280000000  0.4572500000000 1.0
C      1  0.5154660000000  0.5017300000000  0.6025510000000 1.0
C      1  0.4814910000000  0.5033010000000  0.4042040000000 1.0
C      1  0.5108980000000  0.4977420000000  0.4120880000000 1.0
C      1  0.4870240000000  0.4951050000000  0.5971180000000 1.0
C      1  0.5822260000000  0.5097880000000  0.4758290000000 1.0
C      1  0.4146860000000  0.5171240000000  0.5163750000000 1.0
C      1  0.5972160000000  0.4752890000000  0.5180320000000 1.0
C      1  0.4179550000000  0.4918330000000  0.4838210000000 1.0
C      1  0.4985660000000  0.4906180000000  0.5452770000000 1.0
C      1  0.4848490000000  0.4916170000000  0.4582270000000 1.0
C      1  0.5079910000000  0.5160630000000  0.4575320000000 1.0
C      1  0.5214230000000  0.5099230000000  0.5494490000000 1.0
C      1  0.4886360000000  0.4807080000000  0.5673870000000 1.0
C      1  0.5102600000000  0.4798020000000  0.4410640000000 1.0
C      1  0.4864090000000  0.5219570000000  0.4323600000000 1.0
C      1  0.5292770000000  0.5141160000000  0.5745950000000 1.0
C      1  0.4627870000000  0.5441330000000  0.5200370000000 1.0
C      1  0.5351750000000  0.5477000000000  0.4835460000000 1.0
C      1  0.4576170000000  0.4592950000000  0.4750180000000 1.0
C      1  0.5443720000000  0.4500420000000  0.5237990000000 1.0
C      1  0.5581690000000  0.5273750000000  0.5190500000000 1.0
C      1  0.4509900000000  0.5137840000000  0.4793310000000 1.0
C      1  0.5602590000000  0.4752310000000  0.4825130000000 1.0
C      1  0.4625330000000  0.4801340000000  0.5180440000000 1.0
C      1  0.5921480000000  0.5615000000000  0.4957460000000 1.0
C      1  0.4060410000000  0.5420100000000  0.4937320000000 1.0
C      1  0.5994140000000  0.4455560000000  0.5036870000000 1.0
C      1  0.4028830000000  0.4363720000000  0.4943470000000 1.0
C      1  0.5095800000000  0.3930650000000  0.5158970000000 1.0
C      1  0.4792240000000  0.4337480000000  0.4807830000000 1.0
C      1  0.5069860000000  0.5765150000000  0.4850380000000 1.0
C      1  0.4831970000000  0.6133370000000  0.5068690000000 1.0
C      1  0.5851000000000  0.5493690000000  0.4713310000000 1.0
C      1  0.4106360000000  0.5555940000000  0.5252940000000 1.0
C      1  0.5914590000000  0.4371330000000  0.5338610000000 1.0
C      1  0.4068510000000  0.4463420000000  0.4682730000000 1.0
C      1  0.4457790000000  0.4493180000000  0.5574110000000 1.0
C      1  0.5462090000000  0.4481630000000  0.4488170000000 1.0
C      1  0.4497200000000  0.5513740000000  0.4440770000000 1.0
C      1  0.5436540000000  0.5454070000000  0.5515020000000 1.0
C      1  0.4888400000000  0.5777070000000  0.4282020000000 1.0
C      1  0.5042270000000  0.5721760000000  0.5666610000000 1.0
C      1  0.4862090000000  0.4205130000000  0.5745700000000 1.0
C      1  0.5107620000000  0.4216230000000  0.4267990000000 1.0
C      1  0.5675780000000  0.5028370000000  0.4331530000000 1.0
C      1  0.4321800000000  0.5023570000000  0.5654920000000 1.0
C      1  0.5704940000000  0.4912920000000  0.5683150000000 1.0
C      1  0.4220590000000  0.5117080000000  0.4265850000000 1.0
C      1  0.5672810000000  0.4812330000000  0.5139240000000 1.0
C      1  0.4483720000000  0.4825090000000  0.4920220000000 1.0
C      1  0.5692520000000  0.5097270000000  0.5004800000000 1.0
C      1  0.4443040000000  0.5174850000000  0.5109830000000 1.0
C      1  0.4011790000000  0.4973880000000  0.5277860000000 1.0
C      1  0.5954330000000  0.4923140000000  0.4597680000000 1.0
C      1  0.4031230000000  0.5112310000000  0.4786490000000 1.0
C      1  0.6091700000000  0.4987360000000  0.5262290000000 1.0
C      1  0.4657970000000  0.5800890000000  0.5372070000000 1.0
C      1  0.5321840000000  0.5864910000000  0.4556480000000 1.0
C      1  0.4562310000000  0.4152890000000  0.4538170000000 1.0
C      1  0.5414210000000  0.4147240000000  0.5440120000000 1.0
C      1  0.5304460000000  0.4416120000000  0.4225570000000 1.0
C      1  0.4637760000000  0.4415670000000  0.5790090000000 1.0
C      1  0.5241010000000  0.5537570000000  0.5754150000000 1.0
C      1  0.4688600000000  0.5590670000000  0.4202470000000 1.0
C      1  0.5620900000000  0.4282080000000  0.4682510000000 1.0
C      1  0.4314340000000  0.4307050000000  0.5356170000000 1.0
C      1  0.5624230000000  0.5665430000000  0.5362510000000 1.0
C      1  0.4362440000000  0.5729570000000  0.4613220000000 1.0
C      1  0.5359580000000  0.4617410000000  0.4979140000000 1.0
C      1  0.4890080000000  0.4656270000000  0.5155890000000 1.0
C      1  0.5359940000000  0.5432260000000  0.5116910000000 1.0
C      1  0.4727700000000  0.5356830000000  0.4897420000000 1.0
C      1  0.5604870000000  0.5172290000000  0.5498570000000 1.0
C      1  0.4427190000000  0.5208560000000  0.4499150000000 1.0
C      1  0.5554180000000  0.4798670000000  0.4530730000000 1.0
C      1  0.4477040000000  0.4794860000000  0.5482170000000 1.0
C      1  0.5901400000000  0.5506970000000  0.5243690000000 1.0
C      1  0.4101310000000  0.5517050000000  0.4611290000000 1.0
C      1  0.5914580000000  0.4439790000000  0.4723590000000 1.0
C      1  0.4046160000000  0.4456170000000  0.5236680000000 1.0
C      1  0.5717010000000  0.4259880000000  0.5009420000000 1.0
C      1  0.4264540000000  0.4193570000000  0.5036310000000 1.0
C      1  0.5688830000000  0.5782250000000  0.5048000000000 1.0
C      1  0.4318950000000  0.5647510000000  0.4928890000000 1.0
C      1  0.5574400000000  0.5460160000000  0.4655990000000 1.0
C      1  0.4344400000000  0.5469660000000  0.5361340000000 1.0
C      1  0.5665040000000  0.4457790000000  0.5433390000000 1.0
C      1  0.4318820000000  0.4520430000000  0.4572680000000 1.0
C      1  0.4611700000000  0.6013630000000  0.4928430000000 1.0
C      1  0.5291390000000  0.5820530000000  0.5030380000000 1.0
C      1  0.4663210000000  0.4168170000000  0.5033280000000 1.0
C      1  0.5326460000000  0.3999110000000  0.4994130000000 1.0
C      1  0.4637090000000  0.5078300000000  0.5363810000000 1.0
C      1  0.5360090000000  0.5072100000000  0.4516110000000 1.0
C      1  0.4579590000000  0.4931370000000  0.4460510000000 1.0
C      1  0.5515210000000  0.4853370000000  0.5405550000000 1.0
C      1  0.5306040000000  0.5202330000000  0.4072860000000 1.0
C      1  0.4655830000000  0.5161180000000  0.5951830000000 1.0
C      1  0.5352650000000  0.4772560000000  0.6006910000000 1.0
C      1  0.4599470000000  0.4825340000000  0.4028370000000 1.0
C      1  0.5104850000000  0.4791790000000  0.5025040000000 1.0
C      1  0.4968840000000  0.5268610000000  0.5037630000000 1.0
C      1  0.5120680000000  0.5055770000000  0.5177710000000 1.0
END
