TITL C-2782240-8521-161 0.00066895838205099 125000 -911.288376302379 0 0 160 (C1) n - 1
REM
REM in /home/nfs/bkarasulu/CARBON/AIRSS/Generating-Clusters/REBO/Higher-Symm/SD-CG/HFTN-CG
REM
REM
REM
REM
REM
REM ./C.cell (12c818d87b63d06a65506943cc24bca4)
REM
REM compiler GCC version 9.2.1 20190827 (Red Hat 9.2.1-1)
REM options -cpp -mtune=generic -march=x86-64 -g -O0 -fpre-include=/usr/include/finclude/math-vector-fortran.h
REM seed -626168500 852939989 660453122 -608213222 2072667871 -2081330859 -1012706278 -68086579 1256909865 1643827775 1379972546 1815705624 -134214122 385140430 1819294476 -1558102445 -1655379557 1178101130 499101432 1984488842 -1491552326 1028783286 1881884890 -1436512890 -221994520 1330438307 2075132126 -1838113853 -561288348 -621355384 977637984 -498835082 -171080261
REM
CELL 1.54180   50.00000   50.00000   50.00000   90.00000   90.00000   90.00000
LATT -1
SFAC C  
C      1  0.5812930000000  0.4985660000000  0.5547940000000 1.0
C      1  0.5535740000000  0.5779580000000  0.4963880000000 1.0
C      1  0.4911110000000  0.5530230000000  0.5857420000000 1.0
C      1  0.4187140000000  0.5067400000000  0.5488940000000 1.0
C      1  0.4201260000000  0.4931630000000  0.4476810000000 1.0
C      1  0.5803810000000  0.4999710000000  0.4453570000000 1.0
C      1  0.4531250000000  0.4193590000000  0.4928060000000 1.0
C      1  0.4467260000000  0.5839320000000  0.5084270000000 1.0
C      1  0.5536940000000  0.4212240000000  0.5053630000000 1.0
C      1  0.5081310000000  0.4519140000000  0.5827000000000 1.0
C      1  0.4982850000000  0.5362080000000  0.4262420000000 1.0
C      1  0.4980680000000  0.4541830000000  0.4155500000000 1.0
C      1  0.4149460000000  0.5171280000000  0.4296260000000 1.0
C      1  0.4255390000000  0.4079180000000  0.5193470000000 1.0
C      1  0.5058730000000  0.4218850000000  0.4106800000000 1.0
C      1  0.5910230000000  0.4821160000000  0.4213850000000 1.0
C      1  0.5939410000000  0.5154790000000  0.5786420000000 1.0
C      1  0.4090790000000  0.4793030000000  0.5762460000000 1.0
C      1  0.5795110000000  0.5897920000000  0.5111260000000 1.0
C      1  0.5778650000000  0.4087020000000  0.4887510000000 1.0
C      1  0.4234290000000  0.5968880000000  0.4904040000000 1.0
C      1  0.4990550000000  0.5753940000000  0.4163610000000 1.0
C      1  0.4816510000000  0.4234850000000  0.5918870000000 1.0
C      1  0.5131010000000  0.5724500000000  0.5931240000000 1.0
C      1  0.5227580000000  0.4549450000000  0.4485200000000 1.0
C      1  0.4505160000000  0.5292260000000  0.4617390000000 1.0
C      1  0.4542550000000  0.4506040000000  0.5070920000000 1.0
C      1  0.4780610000000  0.5495150000000  0.4580320000000 1.0
C      1  0.4950560000000  0.4539180000000  0.5511540000000 1.0
C      1  0.5262750000000  0.5440600000000  0.5549840000000 1.0
C      1  0.5516090000000  0.4716560000000  0.4561940000000 1.0
C      1  0.5545900000000  0.5278100000000  0.5450100000000 1.0
C      1  0.4505760000000  0.4940260000000  0.5471700000000 1.0
C      1  0.5430050000000  0.5545490000000  0.5270220000000 1.0
C      1  0.5418080000000  0.4450040000000  0.4751970000000 1.0
C      1  0.4554550000000  0.5567000000000  0.4807990000000 1.0
C      1  0.4948230000000  0.4686220000000  0.6045840000000 1.0
C      1  0.5983880000000  0.4959630000000  0.4706600000000 1.0
C      1  0.4731040000000  0.5998090000000  0.5014700000000 1.0
C      1  0.4957980000000  0.5262930000000  0.6018840000000 1.0
C      1  0.5043790000000  0.4720390000000  0.3919540000000 1.0
C      1  0.4888890000000  0.5265810000000  0.4010570000000 1.0
C      1  0.4015440000000  0.4972970000000  0.4735270000000 1.0
C      1  0.3972890000000  0.4940830000000  0.5311850000000 1.0
C      1  0.5988790000000  0.5036060000000  0.5290050000000 1.0
C      1  0.5279570000000  0.4026860000000  0.4996860000000 1.0
C      1  0.5305310000000  0.5971940000000  0.5068650000000 1.0
C      1  0.4707630000000  0.3970350000000  0.5040100000000 1.0
C      1  0.5560840000000  0.4265470000000  0.5714680000000 1.0
C      1  0.5635540000000  0.5463030000000  0.4242280000000 1.0
C      1  0.4224500000000  0.5709270000000  0.5507320000000 1.0
C      1  0.4469820000000  0.5775040000000  0.5709460000000 1.0
C      1  0.4535250000000  0.4236180000000  0.4262870000000 1.0
C      1  0.5409650000000  0.5684020000000  0.4311810000000 1.0
C      1  0.4315720000000  0.4471190000000  0.4213700000000 1.0
C      1  0.4269580000000  0.5529900000000  0.5769410000000 1.0
C      1  0.5724280000000  0.4537500000000  0.5758670000000 1.0
C      1  0.5785670000000  0.4351630000000  0.5499580000000 1.0
C      1  0.5683860000000  0.5669800000000  0.4482700000000 1.0
C      1  0.4277750000000  0.4268340000000  0.4458560000000 1.0
C      1  0.5262240000000  0.5585610000000  0.4976380000000 1.0
C      1  0.4963570000000  0.5292280000000  0.5620150000000 1.0
C      1  0.5592690000000  0.4988240000000  0.5294840000000 1.0
C      1  0.4788680000000  0.4399190000000  0.4857830000000 1.0
C      1  0.4721120000000  0.5607180000000  0.5095790000000 1.0
C      1  0.5277270000000  0.4420120000000  0.5060040000000 1.0
C      1  0.5160930000000  0.4782940000000  0.5627690000000 1.0
C      1  0.5151270000000  0.5154430000000  0.4394700000000 1.0
C      1  0.4943840000000  0.4730140000000  0.4431820000000 1.0
C      1  0.4392820000000  0.5168600000000  0.5241860000000 1.0
C      1  0.4414110000000  0.4984840000000  0.4734380000000 1.0
C      1  0.5586840000000  0.5002430000000  0.4716000000000 1.0
C      1  0.5637020000000  0.4456930000000  0.5230500000000 1.0
C      1  0.5158610000000  0.5547890000000  0.4462200000000 1.0
C      1  0.4392680000000  0.5251310000000  0.5687800000000 1.0
C      1  0.4346750000000  0.5584320000000  0.5234270000000 1.0
C      1  0.4360840000000  0.4406780000000  0.4733870000000 1.0
C      1  0.5618240000000  0.5549200000000  0.4772850000000 1.0
C      1  0.4810450000000  0.4357850000000  0.4385990000000 1.0
C      1  0.4752090000000  0.5649940000000  0.5614090000000 1.0
C      1  0.5268110000000  0.4328030000000  0.5617620000000 1.0
C      1  0.5574280000000  0.4807920000000  0.5661510000000 1.0
C      1  0.5563610000000  0.5173370000000  0.4355570000000 1.0
C      1  0.4407110000000  0.4752450000000  0.4333770000000 1.0
C      1  0.4796960000000  0.4834580000000  0.3815410000000 1.0
C      1  0.3938650000000  0.4738470000000  0.4864240000000 1.0
C      1  0.4871760000000  0.3850010000000  0.4851840000000 1.0
C      1  0.5115880000000  0.5186300000000  0.3840530000000 1.0
C      1  0.5119030000000  0.4853970000000  0.6185050000000 1.0
C      1  0.4727500000000  0.5123920000000  0.6088230000000 1.0
C      1  0.6076060000000  0.5198800000000  0.4833020000000 1.0
C      1  0.6084670000000  0.4799710000000  0.5160660000000 1.0
C      1  0.3840170000000  0.5118670000000  0.5146050000000 1.0
C      1  0.5164590000000  0.6095240000000  0.4850490000000 1.0
C      1  0.5155100000000  0.3939240000000  0.5230200000000 1.0
C      1  0.4868420000000  0.6095620000000  0.5247670000000 1.0
C      1  0.5285910000000  0.4316140000000  0.4277190000000 1.0
C      1  0.4313450000000  0.5382330000000  0.4374890000000 1.0
C      1  0.4404710000000  0.4295880000000  0.5292660000000 1.0
C      1  0.4749900000000  0.5679740000000  0.4325530000000 1.0
C      1  0.4725320000000  0.4387880000000  0.5700480000000 1.0
C      1  0.5347550000000  0.5666330000000  0.5764970000000 1.0
C      1  0.5718920000000  0.4627010000000  0.4336200000000 1.0
C      1  0.5765910000000  0.5364920000000  0.5663000000000 1.0
C      1  0.4310580000000  0.4706680000000  0.5608450000000 1.0
C      1  0.5656680000000  0.5766430000000  0.5343500000000 1.0
C      1  0.5631570000000  0.4225610000000  0.4666360000000 1.0
C      1  0.4369390000000  0.5796270000000  0.4699450000000 1.0
C      1  0.5121650000000  0.5929190000000  0.5291440000000 1.0
C      1  0.5192880000000  0.5086780000000  0.6026190000000 1.0
C      1  0.5929060000000  0.5242480000000  0.5096050000000 1.0
C      1  0.4863950000000  0.4076690000000  0.5295790000000 1.0
C      1  0.4919850000000  0.5947780000000  0.4803730000000 1.0
C      1  0.5092340000000  0.4023620000000  0.4769030000000 1.0
C      1  0.4698980000000  0.4841330000000  0.5924770000000 1.0
C      1  0.4710750000000  0.5026610000000  0.4019100000000 1.0
C      1  0.5235540000000  0.4941990000000  0.3953390000000 1.0
C      1  0.4093860000000  0.4694050000000  0.5151140000000 1.0
C      1  0.4006940000000  0.5202550000000  0.4921340000000 1.0
C      1  0.5933310000000  0.4753290000000  0.4901470000000 1.0
C      1  0.5339080000000  0.5004230000000  0.4214760000000 1.0
C      1  0.4230690000000  0.5348400000000  0.5037300000000 1.0
C      1  0.5097300000000  0.4323010000000  0.5321320000000 1.0
C      1  0.4685230000000  0.4878920000000  0.4268270000000 1.0
C      1  0.4696110000000  0.5092110000000  0.5692770000000 1.0
C      1  0.5336050000000  0.4986600000000  0.5795560000000 1.0
C      1  0.5696480000000  0.4730820000000  0.5098400000000 1.0
C      1  0.5688880000000  0.5267250000000  0.4900660000000 1.0
C      1  0.4332520000000  0.4700850000000  0.4907140000000 1.0
C      1  0.4903900000000  0.5711810000000  0.5348180000000 1.0
C      1  0.4968820000000  0.4260410000000  0.4646610000000 1.0
C      1  0.5026890000000  0.5659640000000  0.4738830000000 1.0
C      1  0.5588040000000  0.4378840000000  0.4151680000000 1.0
C      1  0.4214290000000  0.5695670000000  0.4424050000000 1.0
C      1  0.4639880000000  0.4212070000000  0.5462290000000 1.0
C      1  0.4454100000000  0.5620330000000  0.4190560000000 1.0
C      1  0.4546480000000  0.4617420000000  0.5782310000000 1.0
C      1  0.5658140000000  0.5610320000000  0.5860820000000 1.0
C      1  0.5812960000000  0.4316410000000  0.4402650000000 1.0
C      1  0.5858740000000  0.5673770000000  0.5590730000000 1.0
C      1  0.4230720000000  0.4535450000000  0.5374210000000 1.0
C      1  0.5583710000000  0.5871270000000  0.5649700000000 1.0
C      1  0.5535840000000  0.4116640000000  0.4368310000000 1.0
C      1  0.4496390000000  0.5889680000000  0.4400400000000 1.0
C      1  0.5337700000000  0.5077770000000  0.4887390000000 1.0
C      1  0.4876770000000  0.5333770000000  0.5102730000000 1.0
C      1  0.5092100000000  0.4893270000000  0.5352000000000 1.0
C      1  0.4667090000000  0.4917950000000  0.4906520000000 1.0
C      1  0.4670090000000  0.5093080000000  0.5141050000000 1.0
C      1  0.5336490000000  0.4923580000000  0.5139170000000 1.0
C      1  0.5119250000000  0.4675780000000  0.5113310000000 1.0
C      1  0.5115680000000  0.5319840000000  0.4926360000000 1.0
C      1  0.4883410000000  0.4676430000000  0.4938990000000 1.0
C      1  0.4912040000000  0.5126430000000  0.5358640000000 1.0
C      1  0.4912540000000  0.4878840000000  0.4692730000000 1.0
C      1  0.5093940000000  0.5105650000000  0.4679190000000 1.0
C      1  0.4531240000000  0.5459240000000  0.5476670000000 1.0
C      1  0.5451050000000  0.4562410000000  0.5472070000000 1.0
C      1  0.5424870000000  0.5381810000000  0.4569350000000 1.0
C      1  0.4564040000000  0.4538410000000  0.4517170000000 1.0
END
