TITL C-2782225-7408-598 3.1892052202702e-08 125000 -81.3553976382048 0 0 16 (Cs) n - 1
REM
REM in /home/nfs/bkarasulu/CARBON/AIRSS/Generating-Clusters/REBO/Higher-Symm/SD-CG/HFTN-CG
REM
REM
REM
REM
REM
REM ./C.cell (12c818d87b63d06a65506943cc24bca4)
REM
REM compiler GCC version 9.2.1 20190827 (Red Hat 9.2.1-1)
REM options -cpp -mtune=generic -march=x86-64 -g -O0 -fpre-include=/usr/include/finclude/math-vector-fortran.h
REM seed -1260705320 -2064466867 59313816 779559650 -1945006167 -388489541 1789613331 -437713816 -541357825 1263418246 -1369843269 1524429027 1367219909 -1429677046 -169778836 -1593204484 1061144511 1045047015 -536429478 -1773607977 -376590754 361585295 1063549007 618845457 1782626459 -1232598265 658513898 240484692 -1188219986 -328614201 -898367185 576297806 -1386349206
REM
CELL 1.54180   50.00000   50.00000   50.00000   90.00000   90.00000   90.00000
LATT -1
SFAC C  
C      1  0.5256970000000  0.4827230000000  0.4733460000000 1.0
C      1  0.5079620000000  0.4619660000000  0.4751230000000 1.0
C      1  0.4688160000000  0.4813390000000  0.4954240000000 1.0
C      1  0.5031040000000  0.4606580000000  0.5221930000000 1.0
C      1  0.5199850000000  0.4811860000000  0.5286890000000 1.0
C      1  0.4903980000000  0.5348170000000  0.4545060000000 1.0
C      1  0.4483620000000  0.5267530000000  0.4945750000000 1.0
C      1  0.4812890000000  0.5323650000000  0.5427610000000 1.0
C      1  0.5385100000000  0.5271230000000  0.5305670000000 1.0
C      1  0.5439540000000  0.5285880000000  0.4778160000000 1.0
C      1  0.4902150000000  0.5198500000000  0.5213910000000 1.0
C      1  0.5196670000000  0.5105420000000  0.5175020000000 1.0
C      1  0.5229360000000  0.5114220000000  0.4858290000000 1.0
C      1  0.4948460000000  0.5210960000000  0.4765280000000 1.0
C      1  0.4724560000000  0.5124650000000  0.4966650000000 1.0
C      1  0.4896020000000  0.4618510000000  0.4970280000000 1.0
END
