TITL C-2782238-9940-1076 0.00361559143784066 125000 -601.072759756181 0 0 104 (C1) n - 1
REM
REM in /home/nfs/bkarasulu/CARBON/AIRSS/Generating-Clusters/REBO/Higher-Symm/SD-CG/HFTN-CG
REM
REM
REM
REM
REM
REM ./C.cell (12c818d87b63d06a65506943cc24bca4)
REM
REM compiler GCC version 9.2.1 20190827 (Red Hat 9.2.1-1)
REM options -cpp -mtune=generic -march=x86-64 -g -O0 -fpre-include=/usr/include/finclude/math-vector-fortran.h
REM seed 568006532 -2108253949 1513846702 -287716181 376835931 -547553971 235727352 -1381879354 -279933445 -1545785841 622406865 1524553775 -374374627 304668285 1974008237 512998437 532584543 768602539 493887622 -1600853382 96773473 -1367847006 -965990967 60495164 1699588943 746496159 1462226657 1536635577 332532936 1515734517 1370323675 1563458032 -313270309
REM
CELL 1.54180   50.00000   50.00000   50.00000   90.00000   90.00000   90.00000
LATT -1
SFAC C  
C      1  0.4942640000000  0.5659840000000  0.4391230000000 1.0
C      1  0.4975610000000  0.5215800000000  0.5860490000000 1.0
C      1  0.4984850000000  0.4169100000000  0.4758730000000 1.0
C      1  0.5177910000000  0.5272780000000  0.5512180000000 1.0
C      1  0.5171570000000  0.4437770000000  0.5003950000000 1.0
C      1  0.5190390000000  0.5276120000000  0.4481930000000 1.0
C      1  0.4628810000000  0.4879570000000  0.5786180000000 1.0
C      1  0.4658600000000  0.4394000000000  0.4488740000000 1.0
C      1  0.4621400000000  0.5745580000000  0.4742060000000 1.0
C      1  0.4590790000000  0.4860860000000  0.4738210000000 1.0
C      1  0.4619180000000  0.5305520000000  0.4999070000000 1.0
C      1  0.4582780000000  0.4860560000000  0.5260650000000 1.0
C      1  0.5693840000000  0.4479030000000  0.5009160000000 1.0
C      1  0.5699650000000  0.5260850000000  0.4594420000000 1.0
C      1  0.5669440000000  0.5218100000000  0.5396940000000 1.0
C      1  0.4277120000000  0.5082140000000  0.4524630000000 1.0
C      1  0.4246300000000  0.5336050000000  0.5313770000000 1.0
C      1  0.4278150000000  0.4547160000000  0.5165590000000 1.0
C      1  0.4904170000000  0.4518770000000  0.5760770000000 1.0
C      1  0.4915540000000  0.4536850000000  0.4219120000000 1.0
C      1  0.4914690000000  0.5899100000000  0.5021930000000 1.0
C      1  0.4572330000000  0.5455410000000  0.4712980000000 1.0
C      1  0.4557700000000  0.5043310000000  0.5546500000000 1.0
C      1  0.4577920000000  0.4527810000000  0.4741200000000 1.0
C      1  0.5774740000000  0.4931200000000  0.4637120000000 1.0
C      1  0.5656320000000  0.5252810000000  0.5058790000000 1.0
C      1  0.5665230000000  0.4768480000000  0.5166780000000 1.0
C      1  0.5451560000000  0.5705310000000  0.5333920000000 1.0
C      1  0.5376730000000  0.4312610000000  0.5478850000000 1.0
C      1  0.5432110000000  0.4944590000000  0.4229640000000 1.0
C      1  0.4847340000000  0.5254830000000  0.4678000000000 1.0
C      1  0.4828530000000  0.5146790000000  0.5381680000000 1.0
C      1  0.4829200000000  0.4623710000000  0.4950970000000 1.0
C      1  0.4988430000000  0.5509200000000  0.5351150000000 1.0
C      1  0.4965020000000  0.4435250000000  0.5275110000000 1.0
C      1  0.4961510000000  0.5059980000000  0.4351280000000 1.0
C      1  0.5539060000000  0.5464670000000  0.4815450000000 1.0
C      1  0.5557020000000  0.4919290000000  0.5453910000000 1.0
C      1  0.5608080000000  0.4645600000000  0.4726740000000 1.0
C      1  0.5085970000000  0.4633610000000  0.4736560000000 1.0
C      1  0.5095100000000  0.5458680000000  0.4758640000000 1.0
C      1  0.5082920000000  0.4944180000000  0.5484410000000 1.0
C      1  0.5432580000000  0.4448510000000  0.5211280000000 1.0
C      1  0.5440110000000  0.5098820000000  0.4496070000000 1.0
C      1  0.5409680000000  0.5392830000000  0.5338720000000 1.0
C      1  0.5130430000000  0.4645330000000  0.4415010000000 1.0
C      1  0.5154300000000  0.5707100000000  0.4960980000000 1.0
C      1  0.5141050000000  0.4622760000000  0.5579230000000 1.0
C      1  0.5599120000000  0.4192740000000  0.4953560000000 1.0
C      1  0.5551600000000  0.5462920000000  0.4373900000000 1.0
C      1  0.5599140000000  0.5326470000000  0.5683940000000 1.0
C      1  0.4897910000000  0.4231810000000  0.4495180000000 1.0
C      1  0.4839210000000  0.5848890000000  0.4580930000000 1.0
C      1  0.4873990000000  0.4958060000000  0.5930080000000 1.0
C      1  0.5242830000000  0.5586580000000  0.4409750000000 1.0
C      1  0.5295670000000  0.5242600000000  0.5812910000000 1.0
C      1  0.5297510000000  0.4194360000000  0.4821740000000 1.0
C      1  0.4852860000000  0.4739590000000  0.5331220000000 1.0
C      1  0.4861980000000  0.4862850000000  0.4606170000000 1.0
C      1  0.4910810000000  0.5404050000000  0.5043300000000 1.0
C      1  0.5410290000000  0.5708110000000  0.4654580000000 1.0
C      1  0.5450570000000  0.4963260000000  0.5754580000000 1.0
C      1  0.5481340000000  0.4360940000000  0.4611760000000 1.0
C      1  0.4629750000000  0.5097510000000  0.4328500000000 1.0
C      1  0.4693170000000  0.5590260000000  0.5444670000000 1.0
C      1  0.4636570000000  0.4390490000000  0.5247940000000 1.0
C      1  0.4136890000000  0.5065920000000  0.5361990000000 1.0
C      1  0.4181080000000  0.4625780000000  0.4877120000000 1.0
C      1  0.4191970000000  0.5282100000000  0.4749890000000 1.0
C      1  0.5112190000000  0.4272460000000  0.4276380000000 1.0
C      1  0.5035430000000  0.6016880000000  0.4741010000000 1.0
C      1  0.5064290000000  0.4728070000000  0.5955600000000 1.0
C      1  0.4632840000000  0.5807230000000  0.5026700000000 1.0
C      1  0.4629530000000  0.4602360000000  0.5710510000000 1.0
C      1  0.4622480000000  0.4591420000000  0.4271630000000 1.0
C      1  0.4455430000000  0.5599750000000  0.5212070000000 1.0
C      1  0.4457750000000  0.4541320000000  0.5462920000000 1.0
C      1  0.4457310000000  0.4832770000000  0.4363460000000 1.0
C      1  0.4792460000000  0.4276020000000  0.4960240000000 1.0
C      1  0.4774390000000  0.5407520000000  0.4374570000000 1.0
C      1  0.4795570000000  0.5344030000000  0.5657720000000 1.0
C      1  0.4297790000000  0.5388680000000  0.4993480000000 1.0
C      1  0.4274790000000  0.4816170000000  0.5365750000000 1.0
C      1  0.4280100000000  0.4776040000000  0.4653280000000 1.0
C      1  0.5329100000000  0.5318960000000  0.5042030000000 1.0
C      1  0.5340620000000  0.4759080000000  0.5243120000000 1.0
C      1  0.5394950000000  0.4912180000000  0.4746960000000 1.0
C      1  0.5188420000000  0.5043380000000  0.4122990000000 1.0
C      1  0.5205310000000  0.5702870000000  0.5485980000000 1.0
C      1  0.5107770000000  0.4240270000000  0.5467310000000 1.0
C      1  0.4476140000000  0.5353580000000  0.5525530000000 1.0
C      1  0.4456870000000  0.4352290000000  0.4971450000000 1.0
C      1  0.4444130000000  0.5350240000000  0.4447190000000 1.0
C      1  0.5428180000000  0.4495730000000  0.5710310000000 1.0
C      1  0.5411290000000  0.4665340000000  0.4276600000000 1.0
C      1  0.5405940000000  0.5790100000000  0.5065710000000 1.0
C      1  0.5086850000000  0.5028120000000  0.4774630000000 1.0
C      1  0.5067540000000  0.5140730000000  0.5138630000000 1.0
C      1  0.5071420000000  0.4822220000000  0.5095320000000 1.0
C      1  0.5356000000000  0.4733110000000  0.5894910000000 1.0
C      1  0.5394090000000  0.4359070000000  0.4334450000000 1.0
C      1  0.5320450000000  0.5965810000000  0.4706150000000 1.0
C      1  0.5664260000000  0.4973210000000  0.4947680000000 1.0
C      1  0.4596840000000  0.5003930000000  0.5000180000000 1.0
END
