TITL C-2782235-7892-1470 0.000593350021713201 125000 -1171.19739809918 0 0 198 (C1) n - 1
REM
REM in /home/nfs/bkarasulu/CARBON/AIRSS/Generating-Clusters/REBO/Higher-Symm/SD-CG/HFTN-CG
REM
REM
REM
REM
REM
REM ./C.cell (12c818d87b63d06a65506943cc24bca4)
REM
REM compiler GCC version 9.2.1 20190827 (Red Hat 9.2.1-1)
REM options -cpp -mtune=generic -march=x86-64 -g -O0 -fpre-include=/usr/include/finclude/math-vector-fortran.h
REM seed -69635956 -223838555 -1852290415 -1725601363 -1589040668 1809169453 -871928332 -1803322713 -1484863772 1493792276 -1885033201 -328526670 351861170 1918861138 1330840087 -523065100 -534214646 -1956103078 -593318195 -454243534 -1829134517 2096194181 -667068358 -1811676394 719339822 231207920 -1963720522 -692391835 481131206 -396838262 -811324431 -682408685 1439221055
REM
CELL 1.54180   50.00000   50.00000   50.00000   90.00000   90.00000   90.00000
LATT -1
SFAC C  
C      1  0.4038690000000  0.5430240000000  0.5248210000000 1.0
C      1  0.5549800000000  0.5974080000000  0.4661480000000 1.0
C      1  0.5855770000000  0.4526170000000  0.5276390000000 1.0
C      1  0.4534470000000  0.4147000000000  0.4734310000000 1.0
C      1  0.4520780000000  0.5024410000000  0.4671140000000 1.0
C      1  0.5000410000000  0.5396750000000  0.5456420000000 1.0
C      1  0.5551800000000  0.4854970000000  0.4505190000000 1.0
C      1  0.5012100000000  0.4585290000000  0.5439880000000 1.0
C      1  0.4188460000000  0.5643380000000  0.5370350000000 1.0
C      1  0.5708200000000  0.5689800000000  0.4582350000000 1.0
C      1  0.5665170000000  0.4289300000000  0.5401180000000 1.0
C      1  0.4307220000000  0.4315190000000  0.4570410000000 1.0
C      1  0.4005820000000  0.4428210000000  0.5467730000000 1.0
C      1  0.4461650000000  0.5899300000000  0.4600700000000 1.0
C      1  0.5927880000000  0.5632220000000  0.5486790000000 1.0
C      1  0.5585020000000  0.4047970000000  0.4500650000000 1.0
C      1  0.5729350000000  0.5396480000000  0.4388560000000 1.0
C      1  0.5379180000000  0.4260720000000  0.5596200000000 1.0
C      1  0.4314280000000  0.4615930000000  0.4407100000000 1.0
C      1  0.4754980000000  0.5794220000000  0.5611480000000 1.0
C      1  0.6035320000000  0.4505610000000  0.4987870000000 1.0
C      1  0.4501550000000  0.3970420000000  0.5023460000000 1.0
C      1  0.3898460000000  0.5482960000000  0.4942850000000 1.0
C      1  0.5495230000000  0.6021330000000  0.4968550000000 1.0
C      1  0.4959730000000  0.4714260000000  0.6139790000000 1.0
C      1  0.4717600000000  0.5032730000000  0.3767080000000 1.0
C      1  0.5097280000000  0.5406260000000  0.6113320000000 1.0
C      1  0.5397250000000  0.4953300000000  0.3883500000000 1.0
C      1  0.4351420000000  0.4594570000000  0.5878830000000 1.0
C      1  0.4667950000000  0.5935620000000  0.4094450000000 1.0
C      1  0.5676460000000  0.5465680000000  0.5909260000000 1.0
C      1  0.5453240000000  0.4314070000000  0.4065070000000 1.0
C      1  0.5446630000000  0.6018900000000  0.5310980000000 1.0
C      1  0.5972310000000  0.4526340000000  0.4651490000000 1.0
C      1  0.4515550000000  0.4072890000000  0.5350190000000 1.0
C      1  0.4011010000000  0.5421150000000  0.4626960000000 1.0
C      1  0.5537310000000  0.5576870000000  0.5551750000000 1.0
C      1  0.5599740000000  0.4469310000000  0.4402530000000 1.0
C      1  0.4472670000000  0.4370390000000  0.5516420000000 1.0
C      1  0.4472740000000  0.5489780000000  0.4381030000000 1.0
C      1  0.4865410000000  0.4227180000000  0.5718620000000 1.0
C      1  0.4193170000000  0.5099520000000  0.4269160000000 1.0
C      1  0.5194810000000  0.5860410000000  0.5782970000000 1.0
C      1  0.5807170000000  0.4877070000000  0.4201040000000 1.0
C      1  0.5318950000000  0.4112640000000  0.5314780000000 1.0
C      1  0.4132300000000  0.4657870000000  0.4674720000000 1.0
C      1  0.4663720000000  0.5850290000000  0.5203880000000 1.0
C      1  0.5872670000000  0.5341550000000  0.4675360000000 1.0
C      1  0.4192840000000  0.5640490000000  0.4902850000000 1.0
C      1  0.5585570000000  0.5727630000000  0.5077250000000 1.0
C      1  0.5749010000000  0.4340710000000  0.4921120000000 1.0
C      1  0.4297230000000  0.4233560000000  0.5057200000000 1.0
C      1  0.4717800000000  0.5132100000000  0.5833300000000 1.0
C      1  0.5092450000000  0.5355240000000  0.4125750000000 1.0
C      1  0.5317150000000  0.4902330000000  0.5868550000000 1.0
C      1  0.4916300000000  0.4676190000000  0.4148070000000 1.0
C      1  0.5649750000000  0.4591840000000  0.4098600000000 1.0
C      1  0.4635770000000  0.4451830000000  0.5793400000000 1.0
C      1  0.4402710000000  0.5280100000000  0.4214550000000 1.0
C      1  0.5394130000000  0.5637550000000  0.5825760000000 1.0
C      1  0.3927090000000  0.4911430000000  0.4634430000000 1.0
C      1  0.4910450000000  0.5972920000000  0.5403510000000 1.0
C      1  0.6077440000000  0.5130870000000  0.4698450000000 1.0
C      1  0.5031240000000  0.3941750000000  0.5340330000000 1.0
C      1  0.4738340000000  0.5138760000000  0.4905030000000 1.0
C      1  0.4989130000000  0.5029900000000  0.5038740000000 1.0
C      1  0.5236150000000  0.4963510000000  0.4854290000000 1.0
C      1  0.4920010000000  0.4782170000000  0.5170450000000 1.0
C      1  0.4790690000000  0.5205560000000  0.4591590000000 1.0
C      1  0.5253360000000  0.5200670000000  0.5336470000000 1.0
C      1  0.5233800000000  0.4789150000000  0.4597010000000 1.0
C      1  0.4747160000000  0.4803780000000  0.5448620000000 1.0
C      1  0.4633330000000  0.5387540000000  0.6020220000000 1.0
C      1  0.5367420000000  0.5436150000000  0.3959890000000 1.0
C      1  0.5450410000000  0.4639020000000  0.6040760000000 1.0
C      1  0.4651840000000  0.4568500000000  0.3969570000000 1.0
C      1  0.4920530000000  0.4624240000000  0.5758460000000 1.0
C      1  0.4612850000000  0.5142630000000  0.4063380000000 1.0
C      1  0.5238370000000  0.5361770000000  0.5698820000000 1.0
C      1  0.5379490000000  0.4753100000000  0.4228610000000 1.0
C      1  0.4264240000000  0.4913720000000  0.4843870000000 1.0
C      1  0.4907630000000  0.5612460000000  0.5233380000000 1.0
C      1  0.5689880000000  0.5047150000000  0.4745070000000 1.0
C      1  0.5083170000000  0.4320760000000  0.5238410000000 1.0
C      1  0.4271240000000  0.5633710000000  0.4574680000000 1.0
C      1  0.5667470000000  0.5793060000000  0.5377660000000 1.0
C      1  0.5773130000000  0.4279260000000  0.4600920000000 1.0
C      1  0.4217710000000  0.4227950000000  0.5364590000000 1.0
C      1  0.4437570000000  0.4359130000000  0.4066460000000 1.0
C      1  0.4357620000000  0.5524870000000  0.5970880000000 1.0
C      1  0.5542860000000  0.5661790000000  0.4081030000000 1.0
C      1  0.5647600000000  0.4448590000000  0.5937240000000 1.0
C      1  0.5724700000000  0.5151650000000  0.4168290000000 1.0
C      1  0.5135320000000  0.4289660000000  0.5795820000000 1.0
C      1  0.4268970000000  0.4832370000000  0.4178290000000 1.0
C      1  0.4921400000000  0.5767400000000  0.5843810000000 1.0
C      1  0.6209030000000  0.4774110000000  0.5025230000000 1.0
C      1  0.4806500000000  0.3844840000000  0.4993040000000 1.0
C      1  0.3773520000000  0.5191970000000  0.5069180000000 1.0
C      1  0.5186710000000  0.6060090000000  0.4984630000000 1.0
C      1  0.4904210000000  0.4516580000000  0.5024400000000 1.0
C      1  0.4466390000000  0.5081680000000  0.5061010000000 1.0
C      1  0.5030310000000  0.5368530000000  0.5050530000000 1.0
C      1  0.5498630000000  0.4923310000000  0.5002040000000 1.0
C      1  0.5113360000000  0.5849180000000  0.5174790000000 1.0
C      1  0.5964430000000  0.4870850000000  0.4848500000000 1.0
C      1  0.4841900000000  0.4139960000000  0.5132960000000 1.0
C      1  0.4005310000000  0.5107660000000  0.4880300000000 1.0
C      1  0.5010930000000  0.3819400000000  0.4806780000000 1.0
C      1  0.3767350000000  0.5033460000000  0.5295030000000 1.0
C      1  0.4993000000000  0.6095250000000  0.4800240000000 1.0
C      1  0.6241820000000  0.4951210000000  0.5235310000000 1.0
C      1  0.5303220000000  0.4275450000000  0.4864790000000 1.0
C      1  0.4143750000000  0.4658690000000  0.5171560000000 1.0
C      1  0.4626750000000  0.5678030000000  0.4846440000000 1.0
C      1  0.5789470000000  0.5276290000000  0.5200830000000 1.0
C      1  0.4555330000000  0.5440550000000  0.5292380000000 1.0
C      1  0.5464590000000  0.5291820000000  0.4815800000000 1.0
C      1  0.5317410000000  0.4639060000000  0.5213790000000 1.0
C      1  0.4581850000000  0.4673160000000  0.4848850000000 1.0
C      1  0.4419220000000  0.5110580000000  0.5933620000000 1.0
C      1  0.5115610000000  0.5673550000000  0.4052290000000 1.0
C      1  0.5618000000000  0.4930920000000  0.5979220000000 1.0
C      1  0.4927830000000  0.4377170000000  0.4036060000000 1.0
C      1  0.5654160000000  0.5232300000000  0.6057710000000 1.0
C      1  0.5216200000000  0.4335970000000  0.3921150000000 1.0
C      1  0.4360310000000  0.4828800000000  0.6021620000000 1.0
C      1  0.4864450000000  0.5814760000000  0.3940210000000 1.0
C      1  0.5163840000000  0.4517270000000  0.6007810000000 1.0
C      1  0.4506250000000  0.4837530000000  0.3951320000000 1.0
C      1  0.4876970000000  0.5560020000000  0.6038940000000 1.0
C      1  0.5530730000000  0.5182090000000  0.3961140000000 1.0
C      1  0.5127890000000  0.4868800000000  0.4043210000000 1.0
C      1  0.4921240000000  0.4926180000000  0.5919770000000 1.0
C      1  0.4947360000000  0.5128040000000  0.4000810000000 1.0
C      1  0.5157480000000  0.5157040000000  0.5928160000000 1.0
C      1  0.4872860000000  0.4729010000000  0.4434970000000 1.0
C      1  0.4748260000000  0.5191830000000  0.5538680000000 1.0
C      1  0.5140150000000  0.5297210000000  0.4420450000000 1.0
C      1  0.5287210000000  0.4861530000000  0.5570270000000 1.0
C      1  0.4242790000000  0.5214630000000  0.5695950000000 1.0
C      1  0.5172540000000  0.5815800000000  0.4334250000000 1.0
C      1  0.5791070000000  0.4836290000000  0.5725960000000 1.0
C      1  0.4831770000000  0.4211030000000  0.4297160000000 1.0
C      1  0.5404580000000  0.4568040000000  0.5515100000000 1.0
C      1  0.4570510000000  0.4746830000000  0.4527040000000 1.0
C      1  0.4560260000000  0.5619060000000  0.5513240000000 1.0
C      1  0.5423580000000  0.5417220000000  0.4519670000000 1.0
C      1  0.4036990000000  0.4866200000000  0.5357050000000 1.0
C      1  0.4840440000000  0.5884100000000  0.4724330000000 1.0
C      1  0.5973080000000  0.5053860000000  0.5330320000000 1.0
C      1  0.5090550000000  0.4097850000000  0.4702300000000 1.0
C      1  0.4015000000000  0.5164240000000  0.4485190000000 1.0
C      1  0.5223040000000  0.6010100000000  0.5520950000000 1.0
C      1  0.5875790000000  0.4747610000000  0.4481760000000 1.0
C      1  0.4796460000000  0.4043230000000  0.5515980000000 1.0
C      1  0.5520770000000  0.5264820000000  0.5525270000000 1.0
C      1  0.5280950000000  0.4502860000000  0.4443290000000 1.0
C      1  0.4485500000000  0.4697950000000  0.5517770000000 1.0
C      1  0.4748100000000  0.5471410000000  0.4467270000000 1.0
C      1  0.5701770000000  0.4515410000000  0.5654520000000 1.0
C      1  0.4507800000000  0.4239120000000  0.4311960000000 1.0
C      1  0.4291120000000  0.5547600000000  0.5663130000000 1.0
C      1  0.5469010000000  0.5697130000000  0.4355780000000 1.0
C      1  0.5881390000000  0.5441630000000  0.5697650000000 1.0
C      1  0.5414520000000  0.4134620000000  0.4290870000000 1.0
C      1  0.4113230000000  0.4572840000000  0.5683080000000 1.0
C      1  0.4657450000000  0.5912430000000  0.4369950000000 1.0
C      1  0.5342710000000  0.6051240000000  0.4486590000000 1.0
C      1  0.5786460000000  0.4803330000000  0.5392030000000 1.0
C      1  0.4806620000000  0.4241870000000  0.4629530000000 1.0
C      1  0.4133420000000  0.5175110000000  0.5379570000000 1.0
C      1  0.5507110000000  0.4894410000000  0.5312280000000 1.0
C      1  0.4854200000000  0.4533170000000  0.4705980000000 1.0
C      1  0.4472380000000  0.5147400000000  0.5372950000000 1.0
C      1  0.5145120000000  0.5269920000000  0.4761070000000 1.0
C      1  0.4910810000000  0.5738330000000  0.4462630000000 1.0
C      1  0.5807380000000  0.5146250000000  0.5593010000000 1.0
C      1  0.5138170000000  0.4217530000000  0.4411870000000 1.0
C      1  0.4234940000000  0.4881040000000  0.5625340000000 1.0
C      1  0.3953720000000  0.4421390000000  0.5137390000000 1.0
C      1  0.4512100000000  0.5985590000000  0.4926370000000 1.0
C      1  0.5919520000000  0.5542350000000  0.5195910000000 1.0
C      1  0.5510050000000  0.4048680000000  0.4794100000000 1.0
C      1  0.5688530000000  0.4674380000000  0.4888150000000 1.0
C      1  0.4612030000000  0.4350050000000  0.5078500000000 1.0
C      1  0.4258250000000  0.5305630000000  0.4917250000000 1.0
C      1  0.5290950000000  0.5573560000000  0.5128970000000 1.0
C      1  0.5807660000000  0.5589590000000  0.4881880000000 1.0
C      1  0.5581190000000  0.4138470000000  0.5115810000000 1.0
C      1  0.4115530000000  0.4381820000000  0.4840880000000 1.0
C      1  0.4330260000000  0.5803450000000  0.5149550000000 1.0
C      1  0.5497560000000  0.5302820000000  0.5127840000000 1.0
C      1  0.5395510000000  0.4520500000000  0.4966160000000 1.0
C      1  0.4402050000000  0.4618590000000  0.5075990000000 1.0
C      1  0.4535270000000  0.5471050000000  0.5013200000000 1.0
C      1  0.5022910000000  0.5001990000000  0.5483820000000 1.0
C      1  0.5013830000000  0.5003560000000  0.4494930000000 1.0
END
