TITL C-2782232-2968-269 0.00725997355998413 125000 -536.776787162015 0 0 93 (C1) n - 1
REM
REM in /home/nfs/bkarasulu/CARBON/AIRSS/Generating-Clusters/REBO/Higher-Symm/SD-CG/HFTN-CG
REM
REM
REM
REM
REM
REM ./C.cell (12c818d87b63d06a65506943cc24bca4)
REM
REM compiler GCC version 9.2.1 20190827 (Red Hat 9.2.1-1)
REM options -cpp -mtune=generic -march=x86-64 -g -O0 -fpre-include=/usr/include/finclude/math-vector-fortran.h
REM seed 1260640904 1700358911 837417064 -1432701300 -1494455685 -76915882 258597672 516326110 2041134737 2067728222 1923007677 1116370976 1244594256 -1961635559 463256487 227639259 1794773657 -1895453542 -1935388657 -151310451 -320644036 -482487640 -13375144 -1008203611 -1462036811 1114285257 1550838190 355019321 -1345262923 1435008542 666722884 784894514 2118217516
REM
CELL 1.54180   50.00000   50.00000   50.00000   90.00000   90.00000   90.00000
LATT -1
SFAC C  
C      1  0.5318600000000  0.4346110000000  0.5323540000000 1.0
C      1  0.4635560000000  0.5579800000000  0.4686550000000 1.0
C      1  0.4276070000000  0.4609330000000  0.5516340000000 1.0
C      1  0.5678780000000  0.5415580000000  0.4465760000000 1.0
C      1  0.4581170000000  0.5909130000000  0.4706640000000 1.0
C      1  0.5354260000000  0.3992000000000  0.4918210000000 1.0
C      1  0.4889080000000  0.4241460000000  0.4384110000000 1.0
C      1  0.5109660000000  0.5774080000000  0.5627440000000 1.0
C      1  0.4947250000000  0.4638740000000  0.5169780000000 1.0
C      1  0.5008500000000  0.5357340000000  0.4860090000000 1.0
C      1  0.4920520000000  0.4153680000000  0.4650840000000 1.0
C      1  0.5046660000000  0.5845300000000  0.5359650000000 1.0
C      1  0.4494660000000  0.4334860000000  0.4814840000000 1.0
C      1  0.5462890000000  0.5670330000000  0.5180860000000 1.0
C      1  0.5182670000000  0.4239610000000  0.4778260000000 1.0
C      1  0.4805770000000  0.5731030000000  0.5246990000000 1.0
C      1  0.5130830000000  0.5424330000000  0.4387000000000 1.0
C      1  0.4885060000000  0.4530240000000  0.5670470000000 1.0
C      1  0.4559100000000  0.5040340000000  0.5127130000000 1.0
C      1  0.5418250000000  0.4922620000000  0.4906690000000 1.0
C      1  0.4781670000000  0.5772630000000  0.4930890000000 1.0
C      1  0.5163540000000  0.4182590000000  0.5115050000000 1.0
C      1  0.4397900000000  0.5055310000000  0.4438740000000 1.0
C      1  0.5631560000000  0.4963490000000  0.5623050000000 1.0
C      1  0.5888610000000  0.5231880000000  0.4641860000000 1.0
C      1  0.4248960000000  0.4818070000000  0.5246600000000 1.0
C      1  0.4192300000000  0.5106800000000  0.4286640000000 1.0
C      1  0.5835660000000  0.4945510000000  0.5780900000000 1.0
C      1  0.4752520000000  0.5277990000000  0.5635310000000 1.0
C      1  0.5306780000000  0.4688510000000  0.4410540000000 1.0
C      1  0.5565100000000  0.4601760000000  0.4614360000000 1.0
C      1  0.4469150000000  0.5361700000000  0.5468800000000 1.0
C      1  0.6072290000000  0.5373320000000  0.5080650000000 1.0
C      1  0.3973160000000  0.4881510000000  0.4814730000000 1.0
C      1  0.4628730000000  0.4792500000000  0.4928850000000 1.0
C      1  0.5400640000000  0.5188410000000  0.5075150000000 1.0
C      1  0.5117470000000  0.4944130000000  0.5872080000000 1.0
C      1  0.4928230000000  0.4994680000000  0.4171040000000 1.0
C      1  0.4800980000000  0.4803880000000  0.5557050000000 1.0
C      1  0.5215230000000  0.5152330000000  0.4505570000000 1.0
C      1  0.4847850000000  0.4197620000000  0.5118160000000 1.0
C      1  0.5094680000000  0.5800700000000  0.4890850000000 1.0
C      1  0.4593670000000  0.4599980000000  0.4715880000000 1.0
C      1  0.5386790000000  0.5410090000000  0.5308120000000 1.0
C      1  0.4237570000000  0.4864340000000  0.4917670000000 1.0
C      1  0.5852580000000  0.5256300000000  0.4947890000000 1.0
C      1  0.5025160000000  0.5256690000000  0.5768360000000 1.0
C      1  0.5061850000000  0.4712790000000  0.4227670000000 1.0
C      1  0.4467940000000  0.4477960000000  0.5271700000000 1.0
C      1  0.5463420000000  0.5530600000000  0.4695850000000 1.0
C      1  0.5689970000000  0.4668860000000  0.5187810000000 1.0
C      1  0.4172070000000  0.5469420000000  0.4911130000000 1.0
C      1  0.5117580000000  0.4804950000000  0.5498530000000 1.0
C      1  0.4894360000000  0.5142290000000  0.4539270000000 1.0
C      1  0.4758710000000  0.5453430000000  0.5344030000000 1.0
C      1  0.5252770000000  0.4518850000000  0.4702850000000 1.0
C      1  0.5240940000000  0.5848410000000  0.5140460000000 1.0
C      1  0.4719210000000  0.4154410000000  0.4859400000000 1.0
C      1  0.4120620000000  0.5319470000000  0.5137010000000 1.0
C      1  0.5789200000000  0.4974680000000  0.5042740000000 1.0
C      1  0.5328730000000  0.5032060000000  0.5640850000000 1.0
C      1  0.4674260000000  0.4946270000000  0.4375690000000 1.0
C      1  0.4819480000000  0.5254060000000  0.5124050000000 1.0
C      1  0.5168110000000  0.4723650000000  0.4927160000000 1.0
C      1  0.4765320000000  0.4444390000000  0.5231490000000 1.0
C      1  0.5170530000000  0.5557140000000  0.4764990000000 1.0
C      1  0.4324230000000  0.4544190000000  0.5001120000000 1.0
C      1  0.5584840000000  0.5438100000000  0.4964270000000 1.0
C      1  0.5100700000000  0.4654810000000  0.5866910000000 1.0
C      1  0.4923180000000  0.5298830000000  0.4175850000000 1.0
C      1  0.5115220000000  0.5572560000000  0.5811450000000 1.0
C      1  0.4863230000000  0.4512580000000  0.4306000000000 1.0
C      1  0.4671300000000  0.4658420000000  0.4454130000000 1.0
C      1  0.5274930000000  0.5324770000000  0.5546390000000 1.0
C      1  0.4769160000000  0.5046800000000  0.4790550000000 1.0
C      1  0.5242730000000  0.4950170000000  0.5259780000000 1.0
C      1  0.4352430000000  0.4924220000000  0.5548460000000 1.0
C      1  0.5669990000000  0.5084180000000  0.4452530000000 1.0
C      1  0.5565230000000  0.4927210000000  0.5324930000000 1.0
C      1  0.4432920000000  0.5089340000000  0.4752120000000 1.0
C      1  0.5586500000000  0.5738130000000  0.4454840000000 1.0
C      1  0.4313980000000  0.4275580000000  0.5499590000000 1.0
C      1  0.5196460000000  0.4486010000000  0.5556570000000 1.0
C      1  0.4800330000000  0.5456090000000  0.4463450000000 1.0
C      1  0.4615890000000  0.4999730000000  0.5594080000000 1.0
C      1  0.5418120000000  0.4975260000000  0.4460320000000 1.0
C      1  0.4465790000000  0.6118020000000  0.4613680000000 1.0
C      1  0.5516580000000  0.3795540000000  0.4893300000000 1.0
C      1  0.5563500000000  0.4438300000000  0.5240270000000 1.0
C      1  0.4397820000000  0.5402530000000  0.4773480000000 1.0
C      1  0.4346990000000  0.5204190000000  0.5264480000000 1.0
C      1  0.5664590000000  0.4778370000000  0.4808290000000 1.0
C      1  0.5008970000000  0.5000480000000  0.5025960000000 1.0
END
