TITL C-2782238-9940-828 0.00599520823481474 125000 -1045.85375667686 0 0 179 (C1) n - 1
REM
REM in /home/nfs/bkarasulu/CARBON/AIRSS/Generating-Clusters/REBO/Higher-Symm/SD-CG/HFTN-CG
REM
REM
REM
REM
REM
REM ./C.cell (12c818d87b63d06a65506943cc24bca4)
REM
REM compiler GCC version 9.2.1 20190827 (Red Hat 9.2.1-1)
REM options -cpp -mtune=generic -march=x86-64 -g -O0 -fpre-include=/usr/include/finclude/math-vector-fortran.h
REM seed -1025215103 1128729185 925857968 -846480106 687237656 -1570619483 1927424260 143751731 1478417786 1036460068 1687196320 1577886187 -1138418189 -1479212544 2066598861 1875101292 -1204419562 -1372459084 -1459926472 -1764698185 1291052165 310176416 -1793579329 765072628 888762989 -1371251096 -1990968847 -307922124 -2118454759 -181044165 1738459535 -2105804009 -9134453
REM
CELL 1.54180   50.00000   50.00000   50.00000   90.00000   90.00000   90.00000
LATT -1
SFAC C  
C      1  0.4725900000000  0.5794420000000  0.5641310000000 1.0
C      1  0.4711130000000  0.4237010000000  0.4427170000000 1.0
C      1  0.5266860000000  0.4263000000000  0.5565200000000 1.0
C      1  0.5289460000000  0.5722200000000  0.4455420000000 1.0
C      1  0.5174540000000  0.4602580000000  0.5841840000000 1.0
C      1  0.5229610000000  0.5389660000000  0.4083340000000 1.0
C      1  0.4835990000000  0.5402490000000  0.5943260000000 1.0
C      1  0.4790520000000  0.4585940000000  0.4092980000000 1.0
C      1  0.5735820000000  0.5420870000000  0.5012600000000 1.0
C      1  0.5651940000000  0.4663500000000  0.5024600000000 1.0
C      1  0.4270570000000  0.4696450000000  0.5019190000000 1.0
C      1  0.4275980000000  0.5396680000000  0.4997050000000 1.0
C      1  0.5317360000000  0.5289320000000  0.4856530000000 1.0
C      1  0.5250950000000  0.4714550000000  0.5174850000000 1.0
C      1  0.4806360000000  0.4659660000000  0.4948410000000 1.0
C      1  0.4750350000000  0.5321020000000  0.5100620000000 1.0
C      1  0.4914950000000  0.4417920000000  0.4822270000000 1.0
C      1  0.4873030000000  0.5587130000000  0.5167570000000 1.0
C      1  0.5149850000000  0.5545690000000  0.4786010000000 1.0
C      1  0.5148030000000  0.4389050000000  0.5153860000000 1.0
C      1  0.3939650000000  0.4659240000000  0.4988630000000 1.0
C      1  0.3953540000000  0.5349510000000  0.4995020000000 1.0
C      1  0.6060840000000  0.5391050000000  0.5028590000000 1.0
C      1  0.5993990000000  0.4661630000000  0.5039830000000 1.0
C      1  0.5256100000000  0.4404520000000  0.4358660000000 1.0
C      1  0.5208380000000  0.5527190000000  0.5605440000000 1.0
C      1  0.4768330000000  0.5484580000000  0.4370210000000 1.0
C      1  0.4729580000000  0.4480830000000  0.5613960000000 1.0
C      1  0.4230080000000  0.4315350000000  0.4914360000000 1.0
C      1  0.4025510000000  0.5737960000000  0.5044020000000 1.0
C      1  0.5930500000000  0.5765170000000  0.4978960000000 1.0
C      1  0.5790300000000  0.4292180000000  0.5047910000000 1.0
C      1  0.5707110000000  0.5091280000000  0.5448720000000 1.0
C      1  0.5664740000000  0.4966590000000  0.4589650000000 1.0
C      1  0.4318430000000  0.4997370000000  0.5428460000000 1.0
C      1  0.4313270000000  0.5092120000000  0.4506180000000 1.0
C      1  0.4826220000000  0.4923610000000  0.4733610000000 1.0
C      1  0.4789620000000  0.5131760000000  0.5318000000000 1.0
C      1  0.5344750000000  0.4994500000000  0.4694730000000 1.0
C      1  0.5162910000000  0.5004750000000  0.5267940000000 1.0
C      1  0.5531640000000  0.5746910000000  0.4594360000000 1.0
C      1  0.5534630000000  0.4200480000000  0.5529460000000 1.0
C      1  0.4443030000000  0.4209410000000  0.4502120000000 1.0
C      1  0.4463120000000  0.5829570000000  0.5629250000000 1.0
C      1  0.5582830000000  0.4388160000000  0.4293810000000 1.0
C      1  0.5523680000000  0.5511770000000  0.5591970000000 1.0
C      1  0.4478120000000  0.5551880000000  0.4383180000000 1.0
C      1  0.4442650000000  0.4410300000000  0.5589600000000 1.0
C      1  0.5724200000000  0.5454210000000  0.4273110000000 1.0
C      1  0.5710440000000  0.4559580000000  0.5758590000000 1.0
C      1  0.4269290000000  0.4542980000000  0.4236750000000 1.0
C      1  0.4301920000000  0.5518050000000  0.5818280000000 1.0
C      1  0.4574600000000  0.5330110000000  0.5738350000000 1.0
C      1  0.4555430000000  0.4694140000000  0.4288770000000 1.0
C      1  0.5442620000000  0.4714370000000  0.5691770000000 1.0
C      1  0.5434130000000  0.5305180000000  0.4283660000000 1.0
C      1  0.5028560000000  0.5806490000000  0.4315660000000 1.0
C      1  0.4989420000000  0.4156940000000  0.5652800000000 1.0
C      1  0.4971160000000  0.4134570000000  0.4284820000000 1.0
C      1  0.5021540000000  0.5857950000000  0.5725820000000 1.0
C      1  0.4907920000000  0.4791200000000  0.4448230000000 1.0
C      1  0.4925920000000  0.5249140000000  0.5566650000000 1.0
C      1  0.5129200000000  0.5122940000000  0.4466100000000 1.0
C      1  0.5080080000000  0.4864200000000  0.5555770000000 1.0
C      1  0.5283140000000  0.4572760000000  0.4002460000000 1.0
C      1  0.5346980000000  0.5489380000000  0.6068020000000 1.0
C      1  0.4712250000000  0.5378450000000  0.3989290000000 1.0
C      1  0.4646270000000  0.4507920000000  0.6005580000000 1.0
C      1  0.5516930000000  0.5081520000000  0.6279030000000 1.0
C      1  0.5458790000000  0.4996530000000  0.3822800000000 1.0
C      1  0.4470190000000  0.4949540000000  0.6062070000000 1.0
C      1  0.4424730000000  0.5012670000000  0.3894230000000 1.0
C      1  0.4626380000000  0.4127430000000  0.5255530000000 1.0
C      1  0.4668830000000  0.5740850000000  0.4678460000000 1.0
C      1  0.5395160000000  0.5797780000000  0.5253560000000 1.0
C      1  0.5363010000000  0.4163750000000  0.4683630000000 1.0
C      1  0.5595100000000  0.5375090000000  0.6019030000000 1.0
C      1  0.5514190000000  0.4800540000000  0.4070650000000 1.0
C      1  0.4430180000000  0.4691690000000  0.5949820000000 1.0
C      1  0.4448520000000  0.5273970000000  0.4008550000000 1.0
C      1  0.4443670000000  0.4551940000000  0.4813970000000 1.0
C      1  0.4340930000000  0.5712840000000  0.5056660000000 1.0
C      1  0.5636160000000  0.5681450000000  0.4864560000000 1.0
C      1  0.5488050000000  0.4395390000000  0.5164510000000 1.0
C      1  0.4577860000000  0.3968200000000  0.5030210000000 1.0
C      1  0.4527690000000  0.5862520000000  0.4935190000000 1.0
C      1  0.5441420000000  0.5980130000000  0.5046450000000 1.0
C      1  0.5438940000000  0.3985630000000  0.4886990000000 1.0
C      1  0.4284330000000  0.4611230000000  0.5713780000000 1.0
C      1  0.4301630000000  0.5383440000000  0.4232930000000 1.0
C      1  0.5707020000000  0.5370840000000  0.5756210000000 1.0
C      1  0.5728010000000  0.4633160000000  0.4227870000000 1.0
C      1  0.5154430000000  0.4027130000000  0.4468840000000 1.0
C      1  0.5176020000000  0.5908130000000  0.5490770000000 1.0
C      1  0.4841060000000  0.5925650000000  0.4488810000000 1.0
C      1  0.4872430000000  0.4034140000000  0.5431200000000 1.0
C      1  0.4916610000000  0.5093250000000  0.5843460000000 1.0
C      1  0.4876470000000  0.4913160000000  0.4129220000000 1.0
C      1  0.5163370000000  0.4925280000000  0.5882060000000 1.0
C      1  0.4966710000000  0.5180480000000  0.4026180000000 1.0
C      1  0.5588000000000  0.5301930000000  0.5258690000000 1.0
C      1  0.5572090000000  0.4667890000000  0.4725760000000 1.0
C      1  0.4405990000000  0.4767550000000  0.5244060000000 1.0
C      1  0.4414570000000  0.5278960000000  0.4737610000000 1.0
C      1  0.5921690000000  0.5690620000000  0.5256140000000 1.0
C      1  0.5834790000000  0.4364590000000  0.4775560000000 1.0
C      1  0.4177250000000  0.4315550000000  0.5201380000000 1.0
C      1  0.4075550000000  0.5650150000000  0.4761570000000 1.0
C      1  0.4704990000000  0.5219600000000  0.4806560000000 1.0
C      1  0.4692390000000  0.4667240000000  0.5262970000000 1.0
C      1  0.5289010000000  0.4727440000000  0.4869880000000 1.0
C      1  0.5303870000000  0.5256870000000  0.5169420000000 1.0
C      1  0.4411200000000  0.4697120000000  0.4575280000000 1.0
C      1  0.4388190000000  0.5461350000000  0.5493240000000 1.0
C      1  0.5519530000000  0.5337260000000  0.4595260000000 1.0
C      1  0.5490470000000  0.4638380000000  0.5387850000000 1.0
C      1  0.4834660000000  0.4374980000000  0.5226150000000 1.0
C      1  0.4837340000000  0.5505050000000  0.4761830000000 1.0
C      1  0.5189690000000  0.5554180000000  0.5206040000000 1.0
C      1  0.5230040000000  0.4436480000000  0.4767790000000 1.0
C      1  0.6156710000000  0.5112170000000  0.4955060000000 1.0
C      1  0.6124400000000  0.4914610000000  0.5146790000000 1.0
C      1  0.3759270000000  0.4882440000000  0.4883600000000 1.0
C      1  0.3868240000000  0.5168180000000  0.5231500000000 1.0
C      1  0.4942830000000  0.6024630000000  0.4741920000000 1.0
C      1  0.5054010000000  0.3965410000000  0.5229710000000 1.0
C      1  0.5042930000000  0.3928690000000  0.4722000000000 1.0
C      1  0.5026050000000  0.5948360000000  0.5242580000000 1.0
C      1  0.5359600000000  0.5024000000000  0.6086270000000 1.0
C      1  0.5246960000000  0.5175160000000  0.3833410000000 1.0
C      1  0.4672760000000  0.5125340000000  0.6063810000000 1.0
C      1  0.4621120000000  0.4828100000000  0.3921460000000 1.0
C      1  0.5983610000000  0.5540970000000  0.4727620000000 1.0
C      1  0.5868680000000  0.4490590000000  0.5308960000000 1.0
C      1  0.4064460000000  0.4524590000000  0.4698590000000 1.0
C      1  0.4048740000000  0.5530770000000  0.5295310000000 1.0
C      1  0.5637360000000  0.5631090000000  0.5336940000000 1.0
C      1  0.5581130000000  0.4359090000000  0.4596580000000 1.0
C      1  0.4383480000000  0.4244280000000  0.5378070000000 1.0
C      1  0.4364520000000  0.5610360000000  0.4671390000000 1.0
C      1  0.4948340000000  0.4473080000000  0.4491960000000 1.0
C      1  0.4900210000000  0.5568980000000  0.5481320000000 1.0
C      1  0.5093380000000  0.5444290000000  0.4468140000000 1.0
C      1  0.5057050000000  0.4528940000000  0.5529490000000 1.0
C      1  0.4919670000000  0.4388810000000  0.5875850000000 1.0
C      1  0.4964450000000  0.5570930000000  0.4111610000000 1.0
C      1  0.5080740000000  0.5585720000000  0.5909390000000 1.0
C      1  0.5019650000000  0.4402470000000  0.4104920000000 1.0
C      1  0.4097100000000  0.4747830000000  0.5500660000000 1.0
C      1  0.4065840000000  0.5294600000000  0.4424430000000 1.0
C      1  0.5964430000000  0.5254910000000  0.5571510000000 1.0
C      1  0.5862330000000  0.4745950000000  0.4465160000000 1.0
C      1  0.6072760000000  0.5062530000000  0.4696990000000 1.0
C      1  0.6097300000000  0.4996680000000  0.5406670000000 1.0
C      1  0.3840140000000  0.4968200000000  0.4657400000000 1.0
C      1  0.3919550000000  0.5004380000000  0.5406650000000 1.0
C      1  0.6094890000000  0.5460620000000  0.5352910000000 1.0
C      1  0.5981690000000  0.4611070000000  0.4702520000000 1.0
C      1  0.4011310000000  0.4539190000000  0.5277920000000 1.0
C      1  0.3933990000000  0.5403470000000  0.4658740000000 1.0
C      1  0.5463590000000  0.5020910000000  0.5635740000000 1.0
C      1  0.5382290000000  0.4989220000000  0.4296740000000 1.0
C      1  0.4560770000000  0.5027790000000  0.5626620000000 1.0
C      1  0.4576310000000  0.5001970000000  0.4377350000000 1.0
C      1  0.5780050000000  0.5624090000000  0.4482220000000 1.0
C      1  0.5761090000000  0.4369980000000  0.5563460000000 1.0
C      1  0.4213330000000  0.4373060000000  0.4450930000000 1.0
C      1  0.4156750000000  0.5698100000000  0.5566070000000 1.0
C      1  0.4259280000000  0.5259720000000  0.5295920000000 1.0
C      1  0.4113530000000  0.4839750000000  0.4567880000000 1.0
C      1  0.5752350000000  0.4817380000000  0.5314010000000 1.0
C      1  0.5824790000000  0.5255680000000  0.4627400000000 1.0
C      1  0.4805440000000  0.5173660000000  0.4422310000000 1.0
C      1  0.4770210000000  0.4805670000000  0.5546940000000 1.0
C      1  0.5190020000000  0.4728990000000  0.4293530000000 1.0
C      1  0.5262500000000  0.5210780000000  0.5620080000000 1.0
C      1  0.5015430000000  0.5808580000000  0.4951750000000 1.0
C      1  0.5034550000000  0.4132710000000  0.4956910000000 1.0
C      1  0.4896810000000  0.4950420000000  0.5068490000000 1.0
END
