TITL C-2782227-3064-425 0.000340372733294971 125000 -858.822991882501 0 0 144 (C1) n - 1
REM
REM in /home/nfs/bkarasulu/CARBON/AIRSS/Generating-Clusters/REBO/Higher-Symm/SD-CG/HFTN-CG
REM
REM
REM
REM
REM
REM ./C.cell (12c818d87b63d06a65506943cc24bca4)
REM
REM compiler GCC version 9.2.1 20190827 (Red Hat 9.2.1-1)
REM options -cpp -mtune=generic -march=x86-64 -g -O0 -fpre-include=/usr/include/finclude/math-vector-fortran.h
REM seed -1355423754 1818902068 -1477653461 1057495367 1272204964 -1751903303 1854475709 1378828625 -1413360863 1805969212 504631619 -1931775920 -1781717054 -802610942 -541217978 2000742124 -42917326 1158524215 327749253 -1364969898 -432310374 194379164 -52076241 -1965739565 -792779489 -220756262 -1780328254 -909271850 372207091 158916185 -1348986312 2032154286 35459781
REM
CELL 1.54180   50.00000   50.00000   50.00000   90.00000   90.00000   90.00000
LATT -1
SFAC C  
C      1  0.4311060000000  0.4993300000000  0.4863850000000 1.0
C      1  0.5312110000000  0.5585040000000  0.4997490000000 1.0
C      1  0.5307360000000  0.4435890000000  0.4858760000000 1.0
C      1  0.5730120000000  0.4871820000000  0.5109940000000 1.0
C      1  0.4544280000000  0.4382900000000  0.5330930000000 1.0
C      1  0.4777860000000  0.5599580000000  0.5140870000000 1.0
C      1  0.4685740000000  0.4810940000000  0.4585790000000 1.0
C      1  0.5068790000000  0.5500110000000  0.4539970000000 1.0
C      1  0.5506050000000  0.4581600000000  0.4533170000000 1.0
C      1  0.4774700000000  0.5255690000000  0.6089550000000 1.0
C      1  0.5184220000000  0.5020790000000  0.5985400000000 1.0
C      1  0.4983700000000  0.4790630000000  0.5975440000000 1.0
C      1  0.5196600000000  0.5171400000000  0.4898460000000 1.0
C      1  0.5014550000000  0.4803450000000  0.5207780000000 1.0
C      1  0.4661460000000  0.5257050000000  0.4742650000000 1.0
C      1  0.4994250000000  0.4312470000000  0.4484670000000 1.0
C      1  0.4254650000000  0.5470960000000  0.4488740000000 1.0
C      1  0.5557920000000  0.5288400000000  0.4484220000000 1.0
C      1  0.4566750000000  0.4557050000000  0.5587040000000 1.0
C      1  0.4970860000000  0.5568970000000  0.5372900000000 1.0
C      1  0.5517900000000  0.4746380000000  0.5307110000000 1.0
C      1  0.4871890000000  0.4394550000000  0.5788180000000 1.0
C      1  0.4535940000000  0.5422950000000  0.5739210000000 1.0
C      1  0.5545670000000  0.5183020000000  0.5717330000000 1.0
C      1  0.4697190000000  0.5041690000000  0.3973170000000 1.0
C      1  0.5182160000000  0.5300390000000  0.4095830000000 1.0
C      1  0.5168280000000  0.4753950000000  0.3948400000000 1.0
C      1  0.4827420000000  0.4772800000000  0.3969650000000 1.0
C      1  0.4882020000000  0.5323850000000  0.4023580000000 1.0
C      1  0.5438420000000  0.4855140000000  0.4133990000000 1.0
C      1  0.5246290000000  0.5499900000000  0.5298260000000 1.0
C      1  0.5336120000000  0.4528910000000  0.5171330000000 1.0
C      1  0.4564450000000  0.4876750000000  0.5348580000000 1.0
C      1  0.4558260000000  0.5813370000000  0.4746060000000 1.0
C      1  0.5968970000000  0.4983070000000  0.4794270000000 1.0
C      1  0.4531710000000  0.4253130000000  0.4702660000000 1.0
C      1  0.5683820000000  0.5581020000000  0.4571480000000 1.0
C      1  0.5054070000000  0.4024700000000  0.4639790000000 1.0
C      1  0.4010360000000  0.5333390000000  0.4619680000000 1.0
C      1  0.4022800000000  0.5353300000000  0.4907890000000 1.0
C      1  0.5777950000000  0.5619100000000  0.4841660000000 1.0
C      1  0.5062410000000  0.4013280000000  0.4928510000000 1.0
C      1  0.5218760000000  0.4868170000000  0.4997430000000 1.0
C      1  0.4699280000000  0.4732830000000  0.5106730000000 1.0
C      1  0.4953190000000  0.5330610000000  0.4904630000000 1.0
C      1  0.5117310000000  0.4924350000000  0.5498050000000 1.0
C      1  0.4743690000000  0.4891990000000  0.5634840000000 1.0
C      1  0.4937630000000  0.5139780000000  0.5611470000000 1.0
C      1  0.6056160000000  0.4814400000000  0.5145270000000 1.0
C      1  0.4308240000000  0.4211660000000  0.5170480000000 1.0
C      1  0.4744830000000  0.5889430000000  0.5094710000000 1.0
C      1  0.4265310000000  0.4789460000000  0.5344520000000 1.0
C      1  0.5245390000000  0.5940780000000  0.5285920000000 1.0
C      1  0.5645550000000  0.4375530000000  0.5229850000000 1.0
C      1  0.4350390000000  0.4463900000000  0.5807570000000 1.0
C      1  0.4921850000000  0.5778940000000  0.5597760000000 1.0
C      1  0.5673080000000  0.4667790000000  0.5559060000000 1.0
C      1  0.5618670000000  0.5542100000000  0.5425980000000 1.0
C      1  0.5200620000000  0.4179390000000  0.5488400000000 1.0
C      1  0.4287120000000  0.5270950000000  0.5465860000000 1.0
C      1  0.5734840000000  0.4888800000000  0.4246690000000 1.0
C      1  0.4664270000000  0.4548080000000  0.4150110000000 1.0
C      1  0.4724170000000  0.5585550000000  0.4174810000000 1.0
C      1  0.5440870000000  0.3839190000000  0.4379520000000 1.0
C      1  0.3718160000000  0.4969790000000  0.4362570000000 1.0
C      1  0.5568230000000  0.6051560000000  0.4481280000000 1.0
C      1  0.4244770000000  0.4521140000000  0.5274610000000 1.0
C      1  0.4991200000000  0.6008230000000  0.5190390000000 1.0
C      1  0.5850510000000  0.4559690000000  0.5193520000000 1.0
C      1  0.5502200000000  0.5805220000000  0.5271450000000 1.0
C      1  0.5426040000000  0.4154680000000  0.5266420000000 1.0
C      1  0.4133260000000  0.5041670000000  0.5302100000000 1.0
C      1  0.4409190000000  0.5104750000000  0.5738570000000 1.0
C      1  0.5355050000000  0.5448960000000  0.5624840000000 1.0
C      1  0.5206120000000  0.4402200000000  0.5721900000000 1.0
C      1  0.4744220000000  0.4627010000000  0.5933500000000 1.0
C      1  0.4769620000000  0.5471020000000  0.5909910000000 1.0
C      1  0.5438550000000  0.4956240000000  0.5869750000000 1.0
C      1  0.4555650000000  0.5186040000000  0.5308380000000 1.0
C      1  0.5470450000000  0.5265450000000  0.5290160000000 1.0
C      1  0.5078070000000  0.4423080000000  0.5305560000000 1.0
C      1  0.5292050000000  0.4553640000000  0.4197630000000 1.0
C      1  0.4426600000000  0.5063710000000  0.4178670000000 1.0
C      1  0.5297930000000  0.5550830000000  0.4102090000000 1.0
C      1  0.5442630000000  0.5351390000000  0.4785760000000 1.0
C      1  0.5127230000000  0.4540110000000  0.4619750000000 1.0
C      1  0.4385170000000  0.5195880000000  0.4640640000000 1.0
C      1  0.5920150000000  0.5447610000000  0.5007960000000 1.0
C      1  0.4844900000000  0.4024810000000  0.5124440000000 1.0
C      1  0.4145970000000  0.5578210000000  0.5027960000000 1.0
C      1  0.5078750000000  0.5564270000000  0.5790140000000 1.0
C      1  0.5459480000000  0.4628310000000  0.5777960000000 1.0
C      1  0.4441380000000  0.4782870000000  0.5866720000000 1.0
C      1  0.4718230000000  0.5198190000000  0.4272140000000 1.0
C      1  0.5330310000000  0.5104540000000  0.4318380000000 1.0
C      1  0.5005610000000  0.4730470000000  0.4245860000000 1.0
C      1  0.5803840000000  0.5138800000000  0.4366900000000 1.0
C      1  0.4789920000000  0.4305340000000  0.4220280000000 1.0
C      1  0.4453630000000  0.5601500000000  0.4251970000000 1.0
C      1  0.5382520000000  0.4324030000000  0.4390130000000 1.0
C      1  0.4235780000000  0.5088870000000  0.4377760000000 1.0
C      1  0.5279550000000  0.5672270000000  0.4356140000000 1.0
C      1  0.5785530000000  0.4679540000000  0.4434690000000 1.0
C      1  0.4525320000000  0.4650040000000  0.4378170000000 1.0
C      1  0.4884060000000  0.5712660000000  0.4371850000000 1.0
C      1  0.4857090000000  0.4628940000000  0.5462190000000 1.0
C      1  0.4805550000000  0.5322520000000  0.5430390000000 1.0
C      1  0.5381920000000  0.4996510000000  0.5404770000000 1.0
C      1  0.5149580000000  0.4725660000000  0.5718040000000 1.0
C      1  0.4660930000000  0.5017010000000  0.5944750000000 1.0
C      1  0.5088820000000  0.5247450000000  0.5844610000000 1.0
C      1  0.5303300000000  0.4060580000000  0.4459090000000 1.0
C      1  0.3939600000000  0.5098070000000  0.4438340000000 1.0
C      1  0.5517040000000  0.5786010000000  0.4465770000000 1.0
C      1  0.5785350000000  0.5135640000000  0.5571970000000 1.0
C      1  0.4727440000000  0.4193830000000  0.5632760000000 1.0
C      1  0.4471370000000  0.5636650000000  0.5573730000000 1.0
C      1  0.5294480000000  0.4156170000000  0.5010380000000 1.0
C      1  0.4107250000000  0.5102440000000  0.5026550000000 1.0
C      1  0.5581160000000  0.5763220000000  0.4986440000000 1.0
C      1  0.4950040000000  0.4922960000000  0.4490790000000 1.0
C      1  0.4893940000000  0.5235220000000  0.4522290000000 1.0
C      1  0.5274100000000  0.4831750000000  0.4518460000000 1.0
C      1  0.5479480000000  0.4713060000000  0.4846600000000 1.0
C      1  0.4525280000000  0.4773660000000  0.4862130000000 1.0
C      1  0.5046070000000  0.5630740000000  0.4844030000000 1.0
C      1  0.4697280000000  0.4160970000000  0.4497810000000 1.0
C      1  0.4385470000000  0.5762170000000  0.4530830000000 1.0
C      1  0.6020650000000  0.5134220000000  0.4555410000000 1.0
C      1  0.4429960000000  0.5764780000000  0.5044900000000 1.0
C      1  0.6017440000000  0.5143720000000  0.5075930000000 1.0
C      1  0.4589220000000  0.4182820000000  0.4990780000000 1.0
C      1  0.4322670000000  0.5572090000000  0.5308390000000 1.0
C      1  0.5862290000000  0.5326230000000  0.5321240000000 1.0
C      1  0.4890810000000  0.4085900000000  0.5408990000000 1.0
C      1  0.5870660000000  0.4861910000000  0.5598180000000 1.0
C      1  0.4449070000000  0.4197220000000  0.5712380000000 1.0
C      1  0.4656510000000  0.5851970000000  0.5602690000000 1.0
C      1  0.4828210000000  0.5788960000000  0.4671060000000 1.0
C      1  0.5795040000000  0.4767850000000  0.4732340000000 1.0
C      1  0.4438210000000  0.4515470000000  0.4658520000000 1.0
C      1  0.5500730000000  0.5066890000000  0.5031340000000 1.0
C      1  0.4794010000000  0.4419090000000  0.5132370000000 1.0
C      1  0.4655850000000  0.5328660000000  0.5059950000000 1.0
END
