TITL C-2782236-320-235 -2.22590042973987e-07 125000 -209.817724816115 0 0 36 (C2) n - 1
REM
REM in /home/nfs/bkarasulu/CARBON/AIRSS/Generating-Clusters/REBO/Higher-Symm/SD-CG/HFTN-CG
REM
REM
REM
REM
REM
REM ./C.cell (12c818d87b63d06a65506943cc24bca4)
REM
REM compiler GCC version 9.2.1 20190827 (Red Hat 9.2.1-1)
REM options -cpp -mtune=generic -march=x86-64 -g -O0 -fpre-include=/usr/include/finclude/math-vector-fortran.h
REM seed 671835619 554403720 1420054205 1924561306 1797995482 991035292 402130184 736421540 335584328 -497953129 -542450162 1115730609 1057035142 2146853214 -1585166451 -352252996 268609833 -1171900039 717608159 -1044635008 -1975505099 -210330956 -780364248 -1197467330 -1410057507 -43937000 1449080077 1025125509 447257004 -1208891060 -284064939 1343673466 -1832276269
REM
CELL 1.54180   50.00000   50.00000   50.00000   90.00000   90.00000   90.00000
LATT -1
SFAC C  
C      1  0.5588060000000  0.5105200000000  0.5127450000000 1.0
C      1  0.4411620000000  0.5104330000000  0.4873300000000 1.0
C      1  0.4665010000000  0.5677600000000  0.4947840000000 1.0
C      1  0.5332940000000  0.5678220000000  0.5057020000000 1.0
C      1  0.5149230000000  0.4587060000000  0.5369330000000 1.0
C      1  0.4852020000000  0.4589270000000  0.4627710000000 1.0
C      1  0.5026980000000  0.5443980000000  0.4738730000000 1.0
C      1  0.4971680000000  0.5442010000000  0.5264450000000 1.0
C      1  0.5293930000000  0.5031490000000  0.4754160000000 1.0
C      1  0.4705980000000  0.5028840000000  0.5246060000000 1.0
C      1  0.5065140000000  0.4490540000000  0.5116890000000 1.0
C      1  0.4936400000000  0.4491200000000  0.4879460000000 1.0
C      1  0.5057320000000  0.4689130000000  0.4460120000000 1.0
C      1  0.4943630000000  0.4685090000000  0.5537630000000 1.0
C      1  0.5220290000000  0.5644870000000  0.4805340000000 1.0
C      1  0.4777760000000  0.5642790000000  0.5199280000000 1.0
C      1  0.4574800000000  0.5286750000000  0.4664910000000 1.0
C      1  0.5424330000000  0.5285620000000  0.5337140000000 1.0
C      1  0.5559840000000  0.5034060000000  0.4857150000000 1.0
C      1  0.4440060000000  0.5031340000000  0.5143080000000 1.0
C      1  0.5771240000000  0.4954630000000  0.4705350000000 1.0
C      1  0.4228900000000  0.4950180000000  0.5294310000000 1.0
C      1  0.5466190000000  0.4962910000000  0.5390130000000 1.0
C      1  0.4533920000000  0.4964300000000  0.4609610000000 1.0
C      1  0.4760530000000  0.4876030000000  0.5476550000000 1.0
C      1  0.5239840000000  0.4880180000000  0.4522570000000 1.0
C      1  0.4926140000000  0.5182080000000  0.5130890000000 1.0
C      1  0.5073300000000  0.5183240000000  0.4870420000000 1.0
C      1  0.5817950000000  0.4338120000000  0.5531290000000 1.0
C      1  0.4184050000000  0.4339470000000  0.4463970000000 1.0
C      1  0.4743370000000  0.5506230000000  0.4730580000000 1.0
C      1  0.5255100000000  0.5505060000000  0.5273050000000 1.0
C      1  0.4377330000000  0.4508060000000  0.4517860000000 1.0
C      1  0.5624170000000  0.4506500000000  0.5478610000000 1.0
C      1  0.4583270000000  0.4687690000000  0.4575280000000 1.0
C      1  0.5417680000000  0.4685920000000  0.5422470000000 1.0
END
