TITL C-2782228-2999-565 0.00020867828035788 125000 -300.588565932471 0 0 52 (C1) n - 1
REM
REM in /home/nfs/bkarasulu/CARBON/AIRSS/Generating-Clusters/REBO/Higher-Symm/SD-CG/HFTN-CG
REM
REM
REM
REM
REM
REM ./C.cell (12c818d87b63d06a65506943cc24bca4)
REM
REM compiler GCC version 9.2.1 20190827 (Red Hat 9.2.1-1)
REM options -cpp -mtune=generic -march=x86-64 -g -O0 -fpre-include=/usr/include/finclude/math-vector-fortran.h
REM seed 1225829538 -197497232 -281376929 -1393246071 -2023622258 1170838446 1440194781 515431938 -2041361755 -759498362 1104411429 -291643543 1003964414 1015754395 1045896467 -1396843285 1922511206 -2045829751 -1082136537 -763323649 926472372 -1830246001 925202827 -1163451353 -1700276233 -1841543184 1512093523 -1961314169 -1019279999 -2093935611 -1638085924 1567574540 1642254456
REM
CELL 1.54180   50.00000   50.00000   50.00000   90.00000   90.00000   90.00000
LATT -1
SFAC C  
C      1  0.5072300000000  0.5276830000000  0.5194060000000 1.0
C      1  0.4753630000000  0.5319380000000  0.5191430000000 1.0
C      1  0.4914100000000  0.5298040000000  0.4913900000000 1.0
C      1  0.4260840000000  0.4477660000000  0.4603100000000 1.0
C      1  0.5803500000000  0.5479150000000  0.4851050000000 1.0
C      1  0.5083440000000  0.4667560000000  0.6033040000000 1.0
C      1  0.3984920000000  0.5163370000000  0.5328160000000 1.0
C      1  0.5168180000000  0.5242430000000  0.4160730000000 1.0
C      1  0.5762840000000  0.4923200000000  0.5428710000000 1.0
C      1  0.5817560000000  0.4411940000000  0.4063610000000 1.0
C      1  0.5967910000000  0.4419990000000  0.4284910000000 1.0
C      1  0.3013760000000  0.5671390000000  0.6099390000000 1.0
C      1  0.5930560000000  0.4826380000000  0.5226700000000 1.0
C      1  0.3782620000000  0.5269200000000  0.5488810000000 1.0
C      1  0.5145050000000  0.5049320000000  0.3958660000000 1.0
C      1  0.5842360000000  0.5696670000000  0.3981330000000 1.0
C      1  0.5976350000000  0.4662890000000  0.6196740000000 1.0
C      1  0.3512120000000  0.4646590000000  0.4941680000000 1.0
C      1  0.5590930000000  0.5448380000000  0.4423910000000 1.0
C      1  0.5525760000000  0.4747270000000  0.5866850000000 1.0
C      1  0.4066800000000  0.4760890000000  0.4933240000000 1.0
C      1  0.5153210000000  0.4792030000000  0.5574160000000 1.0
C      1  0.4543850000000  0.4757960000000  0.4867160000000 1.0
C      1  0.5410150000000  0.5210010000000  0.4797400000000 1.0
C      1  0.3935120000000  0.4959870000000  0.5148690000000 1.0
C      1  0.5400400000000  0.5397560000000  0.4170930000000 1.0
C      1  0.5782750000000  0.4831510000000  0.5691800000000 1.0
C      1  0.5226480000000  0.5048390000000  0.4904340000000 1.0
C      1  0.5090310000000  0.4843850000000  0.5320250000000 1.0
C      1  0.4787820000000  0.4833110000000  0.4944470000000 1.0
C      1  0.6075360000000  0.4590250000000  0.4774160000000 1.0
C      1  0.3396660000000  0.5471100000000  0.5795320000000 1.0
C      1  0.5411070000000  0.4625460000000  0.3812270000000 1.0
C      1  0.5603980000000  0.5383400000000  0.4691980000000 1.0
C      1  0.5252080000000  0.4736140000000  0.5830510000000 1.0
C      1  0.4288290000000  0.4665640000000  0.4798960000000 1.0
C      1  0.5543720000000  0.5084920000000  0.5361150000000 1.0
C      1  0.4245300000000  0.5265170000000  0.5341660000000 1.0
C      1  0.5004340000000  0.5247040000000  0.4388090000000 1.0
C      1  0.6032180000000  0.4709840000000  0.5008970000000 1.0
C      1  0.3589640000000  0.5370150000000  0.5642070000000 1.0
C      1  0.5237650000000  0.4829100000000  0.3835540000000 1.0
C      1  0.3749800000000  0.4750670000000  0.4990110000000 1.0
C      1  0.5672090000000  0.5566600000000  0.4135440000000 1.0
C      1  0.5819180000000  0.4724700000000  0.5993870000000 1.0
C      1  0.6054970000000  0.4486650000000  0.4528760000000 1.0
C      1  0.3203680000000  0.5572050000000  0.5948580000000 1.0
C      1  0.5620430000000  0.4479550000000  0.3895120000000 1.0
C      1  0.4932760000000  0.5274940000000  0.4644090000000 1.0
C      1  0.5314690000000  0.5204100000000  0.5293320000000 1.0
C      1  0.4502500000000  0.5317350000000  0.5293980000000 1.0
C      1  0.5036130000000  0.4904730000000  0.5051920000000 1.0
END
