TITL C-2782232-2968-1385 0.00459957830267126 125000 -732.430979178292 0 0 126 (C1) n - 1
REM
REM in /home/nfs/bkarasulu/CARBON/AIRSS/Generating-Clusters/REBO/Higher-Symm/SD-CG/HFTN-CG
REM
REM
REM
REM
REM
REM ./C.cell (12c818d87b63d06a65506943cc24bca4)
REM
REM compiler GCC version 9.2.1 20190827 (Red Hat 9.2.1-1)
REM options -cpp -mtune=generic -march=x86-64 -g -O0 -fpre-include=/usr/include/finclude/math-vector-fortran.h
REM seed 221022112 1964936622 1732306216 2042443656 1820180348 1724503957 -925195039 1298335580 -268984711 -1248406560 -446146880 -957146010 -411296465 1890023896 811467886 1199244186 938207703 244515929 -1413458041 785316502 1598246206 -1729351027 1387653214 -105050928 361187203 -1926794262 1926694032 1075036779 711019548 260884684 -327515363 765083619 -49009486
REM
CELL 1.54180   50.00000   50.00000   50.00000   90.00000   90.00000   90.00000
LATT -1
SFAC C  
C      1  0.4418030000000  0.5491750000000  0.4660150000000 1.0
C      1  0.4414520000000  0.5549850000000  0.5152480000000 1.0
C      1  0.4387950000000  0.5198120000000  0.5529420000000 1.0
C      1  0.4384190000000  0.4702790000000  0.5472560000000 1.0
C      1  0.4424780000000  0.4411150000000  0.5058620000000 1.0
C      1  0.4376580000000  0.4572640000000  0.4572130000000 1.0
C      1  0.4394570000000  0.5052400000000  0.4388720000000 1.0
C      1  0.5683480000000  0.4567880000000  0.4540210000000 1.0
C      1  0.5685730000000  0.5062540000000  0.4399850000000 1.0
C      1  0.5675100000000  0.5515490000000  0.4634250000000 1.0
C      1  0.5640190000000  0.5615070000000  0.5168050000000 1.0
C      1  0.5709770000000  0.5202320000000  0.5579830000000 1.0
C      1  0.5671040000000  0.4653020000000  0.5498550000000 1.0
C      1  0.5768850000000  0.4374220000000  0.5034350000000 1.0
C      1  0.4320450000000  0.5725510000000  0.5383470000000 1.0
C      1  0.4232120000000  0.5157860000000  0.5798560000000 1.0
C      1  0.4258190000000  0.4488200000000  0.5669220000000 1.0
C      1  0.4410060000000  0.4222950000000  0.4805500000000 1.0
C      1  0.4275220000000  0.4602250000000  0.4250900000000 1.0
C      1  0.4329760000000  0.5311400000000  0.4228910000000 1.0
C      1  0.4276680000000  0.5766640000000  0.4735800000000 1.0
C      1  0.4980780000000  0.4225060000000  0.5759900000000 1.0
C      1  0.5236620000000  0.3740730000000  0.4993600000000 1.0
C      1  0.5165530000000  0.4542350000000  0.4021210000000 1.0
C      1  0.5048490000000  0.5257440000000  0.4112960000000 1.0
C      1  0.5066770000000  0.6037170000000  0.4650810000000 1.0
C      1  0.4999240000000  0.5761400000000  0.5406120000000 1.0
C      1  0.5161250000000  0.5110660000000  0.5930220000000 1.0
C      1  0.4709870000000  0.5229520000000  0.4322200000000 1.0
C      1  0.4722920000000  0.5633400000000  0.4727550000000 1.0
C      1  0.4711730000000  0.5703360000000  0.5304130000000 1.0
C      1  0.4705190000000  0.5254620000000  0.5639710000000 1.0
C      1  0.4644920000000  0.4578510000000  0.5622920000000 1.0
C      1  0.4653630000000  0.4215630000000  0.5195270000000 1.0
C      1  0.4587940000000  0.4704910000000  0.4353090000000 1.0
C      1  0.5823540000000  0.5036870000000  0.4662530000000 1.0
C      1  0.5806470000000  0.5280130000000  0.4807390000000 1.0
C      1  0.5784560000000  0.5318350000000  0.5086080000000 1.0
C      1  0.5804160000000  0.5114660000000  0.5283120000000 1.0
C      1  0.5808920000000  0.4830930000000  0.5248510000000 1.0
C      1  0.5848830000000  0.4676700000000  0.5012380000000 1.0
C      1  0.5840170000000  0.4767500000000  0.4746010000000 1.0
C      1  0.4197810000000  0.4831450000000  0.5252830000000 1.0
C      1  0.4203130000000  0.4666870000000  0.5024930000000 1.0
C      1  0.4198840000000  0.4760600000000  0.4758990000000 1.0
C      1  0.4206620000000  0.5024200000000  0.4654270000000 1.0
C      1  0.4215360000000  0.5267190000000  0.4794780000000 1.0
C      1  0.4213900000000  0.5309070000000  0.5073450000000 1.0
C      1  0.4204510000000  0.5112950000000  0.5275070000000 1.0
C      1  0.5530000000000  0.5376370000000  0.5812420000000 1.0
C      1  0.5354130000000  0.4608570000000  0.5622790000000 1.0
C      1  0.5554700000000  0.4112410000000  0.5084640000000 1.0
C      1  0.5364880000000  0.4457730000000  0.4483350000000 1.0
C      1  0.5452590000000  0.5008150000000  0.4117620000000 1.0
C      1  0.5413210000000  0.5686200000000  0.4488080000000 1.0
C      1  0.5392110000000  0.5855900000000  0.5159320000000 1.0
C      1  0.4614230000000  0.5256040000000  0.4797550000000 1.0
C      1  0.4613040000000  0.5302000000000  0.5077850000000 1.0
C      1  0.4603560000000  0.5109630000000  0.5282600000000 1.0
C      1  0.4596940000000  0.4832290000000  0.5252300000000 1.0
C      1  0.4601850000000  0.4679900000000  0.5018070000000 1.0
C      1  0.4597890000000  0.4757750000000  0.4749070000000 1.0
C      1  0.4605630000000  0.5019160000000  0.4645760000000 1.0
C      1  0.4671600000000  0.5819690000000  0.5011020000000 1.0
C      1  0.4726270000000  0.5561710000000  0.5616750000000 1.0
C      1  0.4664660000000  0.5014960000000  0.5878280000000 1.0
C      1  0.4673080000000  0.4258860000000  0.5540500000000 1.0
C      1  0.4860640000000  0.4125130000000  0.4956530000000 1.0
C      1  0.4716610000000  0.4947980000000  0.4175800000000 1.0
C      1  0.4731680000000  0.5559290000000  0.4410230000000 1.0
C      1  0.4445840000000  0.5717290000000  0.5602330000000 1.0
C      1  0.4402320000000  0.5051450000000  0.5990270000000 1.0
C      1  0.4395110000000  0.4279110000000  0.5708790000000 1.0
C      1  0.4623820000000  0.4101480000000  0.4747060000000 1.0
C      1  0.4412600000000  0.4833230000000  0.4075290000000 1.0
C      1  0.4450320000000  0.5527490000000  0.4262010000000 1.0
C      1  0.4377810000000  0.5897860000000  0.4927520000000 1.0
C      1  0.5066860000000  0.4337540000000  0.4881230000000 1.0
C      1  0.5155220000000  0.4707930000000  0.4510970000000 1.0
C      1  0.5001670000000  0.5267820000000  0.4450480000000 1.0
C      1  0.5012730000000  0.5616420000000  0.4866510000000 1.0
C      1  0.5126580000000  0.5524810000000  0.5485280000000 1.0
C      1  0.4978570000000  0.5088380000000  0.5644480000000 1.0
C      1  0.5193740000000  0.4478410000000  0.5376590000000 1.0
C      1  0.5306550000000  0.4275710000000  0.4745380000000 1.0
C      1  0.5283720000000  0.4753350000000  0.4227800000000 1.0
C      1  0.5265160000000  0.5435480000000  0.4394820000000 1.0
C      1  0.5250450000000  0.5768600000000  0.4882620000000 1.0
C      1  0.5378340000000  0.5557870000000  0.5612000000000 1.0
C      1  0.5256900000000  0.4898520000000  0.5705250000000 1.0
C      1  0.5378290000000  0.4276120000000  0.5290430000000 1.0
C      1  0.5035950000000  0.4810770000000  0.4739610000000 1.0
C      1  0.5023810000000  0.5130850000000  0.4719230000000 1.0
C      1  0.5061550000000  0.5339510000000  0.4967500000000 1.0
C      1  0.5099620000000  0.5287150000000  0.5298190000000 1.0
C      1  0.5062640000000  0.4956720000000  0.5360480000000 1.0
C      1  0.5041290000000  0.4666830000000  0.5230720000000 1.0
C      1  0.5017030000000  0.4618440000000  0.4952790000000 1.0
C      1  0.5336080000000  0.5115960000000  0.4783790000000 1.0
C      1  0.5391070000000  0.5275270000000  0.5027290000000 1.0
C      1  0.5406390000000  0.5147730000000  0.5294950000000 1.0
C      1  0.5383550000000  0.4855490000000  0.5310850000000 1.0
C      1  0.5466980000000  0.4652710000000  0.5142510000000 1.0
C      1  0.5475170000000  0.4662550000000  0.4870870000000 1.0
C      1  0.5458700000000  0.4879020000000  0.4706880000000 1.0
C      1  0.4670190000000  0.3955190000000  0.5394230000000 1.0
C      1  0.4990700000000  0.3849630000000  0.4999620000000 1.0
C      1  0.4950080000000  0.4857540000000  0.4034350000000 1.0
C      1  0.4927510000000  0.5706050000000  0.4271470000000 1.0
C      1  0.4885530000000  0.5994760000000  0.4844020000000 1.0
C      1  0.4916610000000  0.5674480000000  0.5790890000000 1.0
C      1  0.4750040000000  0.4752830000000  0.5804370000000 1.0
C      1  0.5275120000000  0.5203020000000  0.4009100000000 1.0
C      1  0.5275450000000  0.5926460000000  0.4516400000000 1.0
C      1  0.5192200000000  0.5954850000000  0.5337370000000 1.0
C      1  0.5362340000000  0.5272080000000  0.6014520000000 1.0
C      1  0.5190970000000  0.4371120000000  0.5761220000000 1.0
C      1  0.5482100000000  0.3856410000000  0.5010240000000 1.0
C      1  0.5280700000000  0.4355060000000  0.4192860000000 1.0
C      1  0.5669280000000  0.4377310000000  0.5348540000000 1.0
C      1  0.5620650000000  0.4316460000000  0.4750200000000 1.0
C      1  0.5604850000000  0.4765680000000  0.4303060000000 1.0
C      1  0.5546470000000  0.5322750000000  0.4405130000000 1.0
C      1  0.5554060000000  0.5686070000000  0.4859530000000 1.0
C      1  0.5627570000000  0.5492960000000  0.5448980000000 1.0
C      1  0.5576890000000  0.4929470000000  0.5649080000000 1.0
END
