TITL C-2782231-7322-170 0.00702900631137122 125000 -940.297026154798 0 0 158 (C1) n - 1
REM
REM in /home/nfs/bkarasulu/CARBON/AIRSS/Generating-Clusters/REBO/Higher-Symm/SD-CG/HFTN-CG
REM
REM
REM
REM
REM
REM ./C.cell (12c818d87b63d06a65506943cc24bca4)
REM
REM compiler GCC version 9.2.1 20190827 (Red Hat 9.2.1-1)
REM options -cpp -mtune=generic -march=x86-64 -g -O0 -fpre-include=/usr/include/finclude/math-vector-fortran.h
REM seed 1735576124 -998337511 -1583010215 -1308759527 1712261269 1390415193 439389295 902302166 -289806818 -413796856 1375247830 272111036 975401569 -1812371905 59198977 -1986899423 -477531959 1678213340 -1197784226 1141290651 -518665341 1467105058 94536055 -1346874696 860310447 355791314 234685788 -613794288 1717224792 393514533 -1888016291 1846889273 -42440924
REM
CELL 1.54180   50.00000   50.00000   50.00000   90.00000   90.00000   90.00000
LATT -1
SFAC C  
C      1  0.5047980000000  0.4416310000000  0.5707210000000 1.0
C      1  0.4968800000000  0.5595410000000  0.5672570000000 1.0
C      1  0.5044750000000  0.5593610000000  0.4345920000000 1.0
C      1  0.4955970000000  0.4393310000000  0.4287290000000 1.0
C      1  0.4622990000000  0.4648640000000  0.4809550000000 1.0
C      1  0.5374180000000  0.5346080000000  0.4874760000000 1.0
C      1  0.4616750000000  0.5369430000000  0.5160240000000 1.0
C      1  0.5353330000000  0.4660960000000  0.5153810000000 1.0
C      1  0.5080610000000  0.5382660000000  0.4610450000000 1.0
C      1  0.4924860000000  0.4597380000000  0.4555430000000 1.0
C      1  0.5075630000000  0.4588450000000  0.5431180000000 1.0
C      1  0.4932700000000  0.5402660000000  0.5398970000000 1.0
C      1  0.4841400000000  0.5137830000000  0.4648090000000 1.0
C      1  0.5160240000000  0.4829450000000  0.4650790000000 1.0
C      1  0.4851250000000  0.4838970000000  0.5343560000000 1.0
C      1  0.5169870000000  0.5158870000000  0.5348210000000 1.0
C      1  0.4239100000000  0.4471590000000  0.5356530000000 1.0
C      1  0.5814900000000  0.5510300000000  0.5393870000000 1.0
C      1  0.4187420000000  0.5532510000000  0.4632640000000 1.0
C      1  0.5787150000000  0.4453600000000  0.4636560000000 1.0
C      1  0.5075970000000  0.4366700000000  0.4908970000000 1.0
C      1  0.4899830000000  0.5556470000000  0.4921370000000 1.0
C      1  0.5083640000000  0.5645420000000  0.5119270000000 1.0
C      1  0.4830300000000  0.4452740000000  0.5087810000000 1.0
C      1  0.4959340000000  0.5211620000000  0.4276340000000 1.0
C      1  0.5082930000000  0.4808520000000  0.4260910000000 1.0
C      1  0.4949870000000  0.4820920000000  0.5727780000000 1.0
C      1  0.5047180000000  0.5208380000000  0.5723070000000 1.0
C      1  0.5986930000000  0.4849380000000  0.4909950000000 1.0
C      1  0.4002060000000  0.5126080000000  0.4893370000000 1.0
C      1  0.5997740000000  0.5106450000000  0.5120260000000 1.0
C      1  0.4005120000000  0.4873450000000  0.5105960000000 1.0
C      1  0.4315970000000  0.5396440000000  0.5286970000000 1.0
C      1  0.5641600000000  0.4613780000000  0.5295290000000 1.0
C      1  0.4326040000000  0.4601530000000  0.4701820000000 1.0
C      1  0.5670130000000  0.5376980000000  0.4737720000000 1.0
C      1  0.5348980000000  0.4023490000000  0.4820500000000 1.0
C      1  0.4540100000000  0.6000330000000  0.4870470000000 1.0
C      1  0.5383540000000  0.6015330000000  0.5152320000000 1.0
C      1  0.4690550000000  0.4019650000000  0.5207980000000 1.0
C      1  0.5688880000000  0.5577510000000  0.4537390000000 1.0
C      1  0.4288080000000  0.4410960000000  0.4496530000000 1.0
C      1  0.5653300000000  0.4401020000000  0.5517680000000 1.0
C      1  0.4291280000000  0.5585340000000  0.5498660000000 1.0
C      1  0.4880770000000  0.5945550000000  0.5288140000000 1.0
C      1  0.5172160000000  0.4099690000000  0.5321880000000 1.0
C      1  0.4870890000000  0.4063340000000  0.4707110000000 1.0
C      1  0.5069780000000  0.5906150000000  0.4748030000000 1.0
C      1  0.5482590000000  0.4786950000000  0.5639600000000 1.0
C      1  0.4517990000000  0.5215810000000  0.5605680000000 1.0
C      1  0.5482160000000  0.5193740000000  0.4366040000000 1.0
C      1  0.4535890000000  0.4809170000000  0.4337710000000 1.0
C      1  0.5260320000000  0.5330000000000  0.5950460000000 1.0
C      1  0.4751250000000  0.4655260000000  0.5962330000000 1.0
C      1  0.5268850000000  0.4624820000000  0.4043630000000 1.0
C      1  0.4736250000000  0.5331840000000  0.4060140000000 1.0
C      1  0.5254260000000  0.5630040000000  0.5346040000000 1.0
C      1  0.4738650000000  0.4391490000000  0.5347190000000 1.0
C      1  0.5231340000000  0.4376950000000  0.4675790000000 1.0
C      1  0.4777290000000  0.5631130000000  0.4675790000000 1.0
C      1  0.4364930000000  0.5167200000000  0.4312320000000 1.0
C      1  0.5622870000000  0.4824730000000  0.4327830000000 1.0
C      1  0.4387440000000  0.4847800000000  0.5682570000000 1.0
C      1  0.5634170000000  0.5147780000000  0.5711020000000 1.0
C      1  0.4565790000000  0.4878210000000  0.5935410000000 1.0
C      1  0.5465370000000  0.5139260000000  0.5971820000000 1.0
C      1  0.4524980000000  0.5144810000000  0.4053110000000 1.0
C      1  0.5437600000000  0.4865430000000  0.4087110000000 1.0
C      1  0.5287810000000  0.5986100000000  0.4571330000000 1.0
C      1  0.4655350000000  0.3994690000000  0.4526080000000 1.0
C      1  0.5346170000000  0.4031130000000  0.5532120000000 1.0
C      1  0.4661210000000  0.6008090000000  0.5467890000000 1.0
C      1  0.4669790000000  0.4126090000000  0.5486650000000 1.0
C      1  0.5425620000000  0.5869730000000  0.5415630000000 1.0
C      1  0.4625070000000  0.5877960000000  0.4613200000000 1.0
C      1  0.5348850000000  0.4126470000000  0.4538120000000 1.0
C      1  0.4709250000000  0.5605800000000  0.5795150000000 1.0
C      1  0.5305120000000  0.4399450000000  0.5839480000000 1.0
C      1  0.4689160000000  0.4379650000000  0.4174000000000 1.0
C      1  0.5302910000000  0.5612090000000  0.4206670000000 1.0
C      1  0.4550420000000  0.4962580000000  0.4858870000000 1.0
C      1  0.5495880000000  0.5047610000000  0.4882290000000 1.0
C      1  0.4557200000000  0.5053100000000  0.5127590000000 1.0
C      1  0.5483160000000  0.4950440000000  0.5148610000000 1.0
C      1  0.4459230000000  0.4909060000000  0.5346910000000 1.0
C      1  0.5561800000000  0.5090420000000  0.5374220000000 1.0
C      1  0.4445330000000  0.5110700000000  0.4647300000000 1.0
C      1  0.5554430000000  0.4892850000000  0.4661250000000 1.0
C      1  0.4237830000000  0.4869150000000  0.4418050000000 1.0
C      1  0.5779000000000  0.5112400000000  0.4425420000000 1.0
C      1  0.4224500000000  0.5127080000000  0.5574680000000 1.0
C      1  0.5782080000000  0.4859780000000  0.5601980000000 1.0
C      1  0.5481250000000  0.4239660000000  0.5673810000000 1.0
C      1  0.4531310000000  0.5749290000000  0.5590940000000 1.0
C      1  0.5440890000000  0.5734790000000  0.4455670000000 1.0
C      1  0.4524060000000  0.4247240000000  0.4394350000000 1.0
C      1  0.5821480000000  0.5635990000000  0.5139080000000 1.0
C      1  0.4252460000000  0.4323020000000  0.5106230000000 1.0
C      1  0.5784620000000  0.4333280000000  0.4894160000000 1.0
C      1  0.4143090000000  0.5652860000000  0.4884490000000 1.0
C      1  0.4659030000000  0.4898180000000  0.3967770000000 1.0
C      1  0.5281620000000  0.5096840000000  0.4032650000000 1.0
C      1  0.4710110000000  0.5117730000000  0.6005240000000 1.0
C      1  0.5330810000000  0.4890390000000  0.6058660000000 1.0
C      1  0.4118400000000  0.4592180000000  0.4951040000000 1.0
C      1  0.5905450000000  0.5390950000000  0.4957900000000 1.0
C      1  0.4078100000000  0.5410410000000  0.5064640000000 1.0
C      1  0.5877840000000  0.4572100000000  0.5075420000000 1.0
C      1  0.4860270000000  0.5246820000000  0.4952810000000 1.0
C      1  0.5148940000000  0.4849560000000  0.4954690000000 1.0
C      1  0.4850500000000  0.4766820000000  0.5035230000000 1.0
C      1  0.5147520000000  0.5153040000000  0.5043080000000 1.0
C      1  0.5200470000000  0.4387210000000  0.5217760000000 1.0
C      1  0.4736360000000  0.5646480000000  0.5317020000000 1.0
C      1  0.5245830000000  0.5624250000000  0.4732610000000 1.0
C      1  0.4731700000000  0.4362280000000  0.4661510000000 1.0
C      1  0.5208480000000  0.4363940000000  0.4145570000000 1.0
C      1  0.4813610000000  0.5690210000000  0.4218190000000 1.0
C      1  0.5201500000000  0.5691440000000  0.5794370000000 1.0
C      1  0.4804720000000  0.4391910000000  0.5861440000000 1.0
C      1  0.5591170000000  0.4125380000000  0.4948640000000 1.0
C      1  0.4291130000000  0.5887620000000  0.4957390000000 1.0
C      1  0.5644420000000  0.5855770000000  0.5081670000000 1.0
C      1  0.4454350000000  0.4121840000000  0.5065660000000 1.0
C      1  0.5455260000000  0.5729000000000  0.5676740000000 1.0
C      1  0.4583280000000  0.4286200000000  0.5716330000000 1.0
C      1  0.5429250000000  0.4262720000000  0.4297200000000 1.0
C      1  0.4569950000000  0.5739430000000  0.4352210000000 1.0
C      1  0.4213340000000  0.4752370000000  0.5305010000000 1.0
C      1  0.5826420000000  0.5222330000000  0.5359960000000 1.0
C      1  0.4181810000000  0.5241420000000  0.4661670000000 1.0
C      1  0.5810120000000  0.4742220000000  0.4671440000000 1.0
C      1  0.4091060000000  0.5143840000000  0.5281000000000 1.0
C      1  0.5897180000000  0.4834250000000  0.5297530000000 1.0
C      1  0.4108950000000  0.4852920000000  0.4722560000000 1.0
C      1  0.5895660000000  0.5127210000000  0.4735680000000 1.0
C      1  0.5206450000000  0.5109730000000  0.4489770000000 1.0
C      1  0.4814770000000  0.4887790000000  0.4461050000000 1.0
C      1  0.5207820000000  0.4885190000000  0.5512980000000 1.0
C      1  0.4804510000000  0.5116290000000  0.5500690000000 1.0
C      1  0.5401510000000  0.5359230000000  0.4123350000000 1.0
C      1  0.4584480000000  0.4633730000000  0.4092800000000 1.0
C      1  0.5411740000000  0.4663820000000  0.5898630000000 1.0
C      1  0.4610890000000  0.5345190000000  0.5859040000000 1.0
C      1  0.5620060000000  0.4503410000000  0.4381800000000 1.0
C      1  0.4394120000000  0.5479620000000  0.4406000000000 1.0
C      1  0.5617980000000  0.5463080000000  0.5628010000000 1.0
C      1  0.4392610000000  0.4520960000000  0.5617450000000 1.0
C      1  0.4706710000000  0.4641100000000  0.5565380000000 1.0
C      1  0.5294960000000  0.5383130000000  0.5557330000000 1.0
C      1  0.4717230000000  0.5382690000000  0.4454680000000 1.0
C      1  0.5303470000000  0.4614450000000  0.4441970000000 1.0
C      1  0.5098980000000  0.6062050000000  0.5113090000000 1.0
C      1  0.4977650000000  0.3964840000000  0.5155360000000 1.0
C      1  0.5066540000000  0.3967580000000  0.4885680000000 1.0
C      1  0.4847460000000  0.6039910000000  0.4903160000000 1.0
C      1  0.5031100000000  0.5006580000000  0.5997350000000 1.0
C      1  0.4955200000000  0.5000190000000  0.4015750000000 1.0
END
