TITL C-2782232-2968-145 -0.0214287665061031 125000 -232.608299471558 0 0 42 (Ci) n - 1
REM
REM in /home/nfs/bkarasulu/CARBON/AIRSS/Generating-Clusters/REBO/Higher-Symm/SD-CG/HFTN-CG
REM
REM
REM
REM
REM
REM ./C.cell (12c818d87b63d06a65506943cc24bca4)
REM
REM compiler GCC version 9.2.1 20190827 (Red Hat 9.2.1-1)
REM options -cpp -mtune=generic -march=x86-64 -g -O0 -fpre-include=/usr/include/finclude/math-vector-fortran.h
REM seed -289242961 -2132547558 608413377 -1458284140 -471238666 1804381975 -1938559311 -1301536441 1978669991 -539511872 -1704426370 2121583158 405831808 -1391603734 -374260854 258798253 1985597179 -2102871570 -2089021382 358194216 -1687228536 1014629500 1171148349 -195237215 -412197864 -1332681509 -145953063 -280239779 -1515543419 -78301632 768952716 1534361792 -683611292
REM
CELL 1.54180   50.00000   50.00000   50.00000   90.00000   90.00000   90.00000
LATT -1
SFAC C  
C      1  0.5016590000000  0.5695750000000  0.4597280000000 1.0
C      1  0.4983410000000  0.4304250000000  0.5402720000000 1.0
C      1  0.5487920000000  0.4793220000000  0.4797050000000 1.0
C      1  0.4512080000000  0.5206780000000  0.5202950000000 1.0
C      1  0.5294080000000  0.5476760000000  0.5104470000000 1.0
C      1  0.4705920000000  0.4523240000000  0.4895530000000 1.0
C      1  0.4879440000000  0.5724500000000  0.4833290000000 1.0
C      1  0.5120560000000  0.4275500000000  0.5166710000000 1.0
C      1  0.5253940000000  0.4103800000000  0.4468630000000 1.0
C      1  0.4746060000000  0.5896200000000  0.5531370000000 1.0
C      1  0.5073020000000  0.4836320000000  0.5149050000000 1.0
C      1  0.4926980000000  0.5163680000000  0.4850950000000 1.0
C      1  0.4820240000000  0.5606880000000  0.5082240000000 1.0
C      1  0.5179760000000  0.4393120000000  0.4917760000000 1.0
C      1  0.5217900000000  0.4244370000000  0.4686860000000 1.0
C      1  0.4782100000000  0.5755630000000  0.5313140000000 1.0
C      1  0.4581550000000  0.4792240000000  0.4856070000000 1.0
C      1  0.5418450000000  0.5207760000000  0.5143930000000 1.0
C      1  0.4504610000000  0.4884270000000  0.5147050000000 1.0
C      1  0.5495390000000  0.5115730000000  0.4852950000000 1.0
C      1  0.5720290000000  0.4605580000000  0.4812810000000 1.0
C      1  0.4279710000000  0.5394420000000  0.5187190000000 1.0
C      1  0.5084460000000  0.4889520000000  0.5727690000000 1.0
C      1  0.4915540000000  0.5110480000000  0.4272310000000 1.0
C      1  0.4708510000000  0.4985290000000  0.4695380000000 1.0
C      1  0.5291490000000  0.5014710000000  0.5304620000000 1.0
C      1  0.5164310000000  0.5174660000000  0.4443390000000 1.0
C      1  0.4835690000000  0.4825340000000  0.5556610000000 1.0
C      1  0.5202080000000  0.4693270000000  0.4904290000000 1.0
C      1  0.4797920000000  0.5306730000000  0.5095710000000 1.0
C      1  0.4830130000000  0.4522650000000  0.5448420000000 1.0
C      1  0.5169870000000  0.5477350000000  0.4551580000000 1.0
C      1  0.5428780000000  0.5006840000000  0.4537750000000 1.0
C      1  0.4571220000000  0.4993160000000  0.5462250000000 1.0
C      1  0.5918560000000  0.4445470000000  0.4826270000000 1.0
C      1  0.4081440000000  0.5554530000000  0.5173730000000 1.0
C      1  0.5298640000000  0.4985930000000  0.5585590000000 1.0
C      1  0.4701360000000  0.5014070000000  0.4414410000000 1.0
C      1  0.5132050000000  0.4940570000000  0.4696460000000 1.0
C      1  0.4867950000000  0.5059430000000  0.5303540000000 1.0
C      1  0.4781680000000  0.4688970000000  0.5184580000000 1.0
C      1  0.5218320000000  0.5311030000000  0.4815420000000 1.0
END
