TITL C-2782236-320-187 0.0031912546672004 125000 -1005.78009984252 0 0 172 (C1) n - 1
REM
REM in /home/nfs/bkarasulu/CARBON/AIRSS/Generating-Clusters/REBO/Higher-Symm/SD-CG/HFTN-CG
REM
REM
REM
REM
REM
REM ./C.cell (12c818d87b63d06a65506943cc24bca4)
REM
REM compiler GCC version 9.2.1 20190827 (Red Hat 9.2.1-1)
REM options -cpp -mtune=generic -march=x86-64 -g -O0 -fpre-include=/usr/include/finclude/math-vector-fortran.h
REM seed -453511511 -5415000 377093228 -1595204137 -1795073551 2126101746 -1711428713 -1186871730 257636155 295216009 1126470818 1582900694 -398874037 478396956 -780175817 -448768400 -1586019972 -1579695610 1937965899 1952547822 1577798990 -1863735641 -804753495 1058235855 -809785452 -232021027 170053475 655784176 1209339778 -1639893567 1990200115 1456605444 2143038809
REM
CELL 1.54180   50.00000   50.00000   50.00000   90.00000   90.00000   90.00000
LATT -1
SFAC C  
C      1  0.4461780000000  0.5417420000000  0.4113110000000 1.0
C      1  0.5233410000000  0.5056450000000  0.4488850000000 1.0
C      1  0.5650430000000  0.4862980000000  0.4416840000000 1.0
C      1  0.4117580000000  0.5296180000000  0.5337860000000 1.0
C      1  0.5242520000000  0.5849030000000  0.4949000000000 1.0
C      1  0.5208440000000  0.5656860000000  0.5205530000000 1.0
C      1  0.5205670000000  0.4948280000000  0.4204260000000 1.0
C      1  0.5062520000000  0.5223880000000  0.5852540000000 1.0
C      1  0.4765180000000  0.5763390000000  0.4312550000000 1.0
C      1  0.4050270000000  0.4662160000000  0.4754770000000 1.0
C      1  0.5086840000000  0.5546410000000  0.5945130000000 1.0
C      1  0.5131880000000  0.5544410000000  0.4830510000000 1.0
C      1  0.4138440000000  0.4870290000000  0.4500530000000 1.0
C      1  0.3810630000000  0.5545530000000  0.5622710000000 1.0
C      1  0.4927770000000  0.5587570000000  0.5270310000000 1.0
C      1  0.4918850000000  0.4870960000000  0.5089210000000 1.0
C      1  0.5105170000000  0.3840150000000  0.4789710000000 1.0
C      1  0.4269260000000  0.4781090000000  0.4963300000000 1.0
C      1  0.4127490000000  0.5080360000000  0.5070790000000 1.0
C      1  0.4472210000000  0.3933310000000  0.5290340000000 1.0
C      1  0.4939960000000  0.4238470000000  0.4683610000000 1.0
C      1  0.4583880000000  0.5965900000000  0.4728970000000 1.0
C      1  0.5605730000000  0.5686890000000  0.4429860000000 1.0
C      1  0.5312150000000  0.5486530000000  0.5625350000000 1.0
C      1  0.4542230000000  0.5796660000000  0.4503880000000 1.0
C      1  0.5016200000000  0.5393430000000  0.4260210000000 1.0
C      1  0.5576450000000  0.5039390000000  0.5406780000000 1.0
C      1  0.4536660000000  0.4899540000000  0.6063500000000 1.0
C      1  0.5582030000000  0.4074050000000  0.4956530000000 1.0
C      1  0.4066940000000  0.5254630000000  0.4821380000000 1.0
C      1  0.5253180000000  0.4832050000000  0.4693730000000 1.0
C      1  0.4812400000000  0.4875840000000  0.4127500000000 1.0
C      1  0.4866870000000  0.5741050000000  0.4898140000000 1.0
C      1  0.5234560000000  0.5231220000000  0.4940140000000 1.0
C      1  0.4628680000000  0.3963830000000  0.5007000000000 1.0
C      1  0.5344780000000  0.5394900000000  0.5169940000000 1.0
C      1  0.5167600000000  0.4203090000000  0.5541570000000 1.0
C      1  0.5744950000000  0.5563690000000  0.5300100000000 1.0
C      1  0.5633550000000  0.4673140000000  0.4961910000000 1.0
C      1  0.6064440000000  0.4836660000000  0.4853740000000 1.0
C      1  0.4813580000000  0.5128300000000  0.4667840000000 1.0
C      1  0.5237010000000  0.4422400000000  0.5311170000000 1.0
C      1  0.4778550000000  0.4851810000000  0.5580570000000 1.0
C      1  0.4336080000000  0.4088570000000  0.5429280000000 1.0
C      1  0.4497240000000  0.5775380000000  0.5509560000000 1.0
C      1  0.5918310000000  0.4989270000000  0.4593960000000 1.0
C      1  0.5362830000000  0.5113480000000  0.5776800000000 1.0
C      1  0.5419430000000  0.4673060000000  0.5226050000000 1.0
C      1  0.4375730000000  0.5886130000000  0.5229270000000 1.0
C      1  0.4681980000000  0.4822740000000  0.5275530000000 1.0
C      1  0.5189820000000  0.4499370000000  0.5920170000000 1.0
C      1  0.4354800000000  0.4941440000000  0.4251790000000 1.0
C      1  0.4449630000000  0.5863320000000  0.4973910000000 1.0
C      1  0.4985220000000  0.4628380000000  0.4918080000000 1.0
C      1  0.5894670000000  0.4658840000000  0.4656530000000 1.0
C      1  0.5561720000000  0.4868580000000  0.4727750000000 1.0
C      1  0.5152810000000  0.6049570000000  0.5208780000000 1.0
C      1  0.4508850000000  0.4965550000000  0.5039120000000 1.0
C      1  0.5694280000000  0.4617420000000  0.5392400000000 1.0
C      1  0.5097200000000  0.5812450000000  0.4368700000000 1.0
C      1  0.4441080000000  0.5257880000000  0.5299050000000 1.0
C      1  0.4339440000000  0.5428220000000  0.5039860000000 1.0
C      1  0.5130700000000  0.4403610000000  0.4127840000000 1.0
C      1  0.4726990000000  0.5274340000000  0.5414930000000 1.0
C      1  0.4362590000000  0.4161990000000  0.4982000000000 1.0
C      1  0.4150050000000  0.5580600000000  0.4805050000000 1.0
C      1  0.4275630000000  0.4406440000000  0.5439610000000 1.0
C      1  0.5021060000000  0.5996440000000  0.5497990000000 1.0
C      1  0.4555460000000  0.4542280000000  0.5421860000000 1.0
C      1  0.4929930000000  0.4621070000000  0.5993210000000 1.0
C      1  0.5628370000000  0.5172510000000  0.4806750000000 1.0
C      1  0.5848270000000  0.5036100000000  0.5916940000000 1.0
C      1  0.3972640000000  0.5780860000000  0.4878060000000 1.0
C      1  0.4458720000000  0.5192440000000  0.4840350000000 1.0
C      1  0.4518510000000  0.4462660000000  0.4363610000000 1.0
C      1  0.4709350000000  0.6019190000000  0.5400510000000 1.0
C      1  0.6108200000000  0.5322920000000  0.5118160000000 1.0
C      1  0.4625170000000  0.5384180000000  0.4617620000000 1.0
C      1  0.4741330000000  0.4884820000000  0.4530750000000 1.0
C      1  0.5410560000000  0.4622510000000  0.5795450000000 1.0
C      1  0.4861760000000  0.5958970000000  0.5137380000000 1.0
C      1  0.5304110000000  0.5540720000000  0.4366160000000 1.0
C      1  0.4407670000000  0.5119690000000  0.5851850000000 1.0
C      1  0.4063180000000  0.5482270000000  0.5543380000000 1.0
C      1  0.4862080000000  0.4191850000000  0.5012160000000 1.0
C      1  0.5952220000000  0.5557570000000  0.5086910000000 1.0
C      1  0.5165750000000  0.4675120000000  0.4029650000000 1.0
C      1  0.4991940000000  0.4917600000000  0.3873720000000 1.0
C      1  0.4368770000000  0.4284510000000  0.4688360000000 1.0
C      1  0.4767610000000  0.4083710000000  0.4468460000000 1.0
C      1  0.4829850000000  0.3866020000000  0.4750670000000 1.0
C      1  0.5007480000000  0.5168770000000  0.5536170000000 1.0
C      1  0.4307800000000  0.5387120000000  0.4374550000000 1.0
C      1  0.5085260000000  0.5181680000000  0.4046980000000 1.0
C      1  0.5704900000000  0.4005440000000  0.5194990000000 1.0
C      1  0.4766350000000  0.5448340000000  0.5991590000000 1.0
C      1  0.5948410000000  0.5090090000000  0.5269590000000 1.0
C      1  0.5435090000000  0.5982860000000  0.4757600000000 1.0
C      1  0.5818730000000  0.5601870000000  0.4596230000000 1.0
C      1  0.5698470000000  0.5173450000000  0.4318700000000 1.0
C      1  0.4871810000000  0.4874760000000  0.5851980000000 1.0
C      1  0.5051190000000  0.6077270000000  0.4551680000000 1.0
C      1  0.5469740000000  0.4660710000000  0.4288310000000 1.0
C      1  0.5606780000000  0.4240490000000  0.4441460000000 1.0
C      1  0.5808460000000  0.5300400000000  0.3791960000000 1.0
C      1  0.5538870000000  0.4536370000000  0.4066280000000 1.0
C      1  0.4220370000000  0.4730050000000  0.5528850000000 1.0
C      1  0.4758110000000  0.4463580000000  0.5665360000000 1.0
C      1  0.5255710000000  0.4899460000000  0.5027890000000 1.0
C      1  0.5860780000000  0.5716910000000  0.4856320000000 1.0
C      1  0.4272360000000  0.4633690000000  0.4248600000000 1.0
C      1  0.4441160000000  0.5455620000000  0.5883100000000 1.0
C      1  0.5825070000000  0.4391510000000  0.4952090000000 1.0
C      1  0.5789190000000  0.4150220000000  0.4714670000000 1.0
C      1  0.5026780000000  0.4320470000000  0.5749050000000 1.0
C      1  0.4315290000000  0.5622970000000  0.4536140000000 1.0
C      1  0.5083750000000  0.5733790000000  0.5678750000000 1.0
C      1  0.5786100000000  0.5300480000000  0.5483650000000 1.0
C      1  0.4776790000000  0.5367720000000  0.5104320000000 1.0
C      1  0.4474400000000  0.4087990000000  0.4511680000000 1.0
C      1  0.5130690000000  0.4140210000000  0.5150630000000 1.0
C      1  0.3982340000000  0.4715730000000  0.5283560000000 1.0
C      1  0.4306600000000  0.4946310000000  0.5323330000000 1.0
C      1  0.5679610000000  0.4986670000000  0.5088510000000 1.0
C      1  0.4601720000000  0.5053760000000  0.4198120000000 1.0
C      1  0.4802050000000  0.5114360000000  0.6046270000000 1.0
C      1  0.5403170000000  0.5414210000000  0.5933920000000 1.0
C      1  0.5454510000000  0.4344410000000  0.4795760000000 1.0
C      1  0.5215050000000  0.4303150000000  0.4586040000000 1.0
C      1  0.3978480000000  0.4532350000000  0.5062920000000 1.0
C      1  0.4603830000000  0.5561360000000  0.4892950000000 1.0
C      1  0.5852300000000  0.5308310000000  0.4590890000000 1.0
C      1  0.5206250000000  0.4612260000000  0.4464770000000 1.0
C      1  0.4447990000000  0.4491610000000  0.4954660000000 1.0
C      1  0.4706450000000  0.5331970000000  0.4326000000000 1.0
C      1  0.5919250000000  0.4567400000000  0.5216460000000 1.0
C      1  0.4596030000000  0.4595760000000  0.5918820000000 1.0
C      1  0.5363090000000  0.4867370000000  0.5591170000000 1.0
C      1  0.4871560000000  0.6046810000000  0.4752070000000 1.0
C      1  0.4348240000000  0.4793720000000  0.5793390000000 1.0
C      1  0.5678860000000  0.4509020000000  0.4600300000000 1.0
C      1  0.5334180000000  0.4275990000000  0.4290140000000 1.0
C      1  0.4800140000000  0.4497800000000  0.4765550000000 1.0
C      1  0.4920420000000  0.4664220000000  0.4343560000000 1.0
C      1  0.4666820000000  0.5281050000000  0.5711070000000 1.0
C      1  0.5281330000000  0.3991190000000  0.4935520000000 1.0
C      1  0.5113560000000  0.3941370000000  0.5421780000000 1.0
C      1  0.5404940000000  0.5902880000000  0.4491000000000 1.0
C      1  0.5665210000000  0.5250560000000  0.5783460000000 1.0
C      1  0.6129500000000  0.4637960000000  0.5883230000000 1.0
C      1  0.6038810000000  0.4815770000000  0.5129730000000 1.0
C      1  0.5222790000000  0.4509810000000  0.4925780000000 1.0
C      1  0.5088310000000  0.4851510000000  0.5449170000000 1.0
C      1  0.4948470000000  0.4547390000000  0.5388680000000 1.0
C      1  0.5060960000000  0.5322470000000  0.4591590000000 1.0
C      1  0.5393280000000  0.5302790000000  0.5426060000000 1.0
C      1  0.5895190000000  0.4767230000000  0.5834300000000 1.0
C      1  0.5459510000000  0.5284870000000  0.4528010000000 1.0
C      1  0.4195470000000  0.4483360000000  0.4534370000000 1.0
C      1  0.4926330000000  0.5149130000000  0.4954480000000 1.0
C      1  0.4621670000000  0.4625950000000  0.4604960000000 1.0
C      1  0.5685330000000  0.4645020000000  0.5672980000000 1.0
C      1  0.4822450000000  0.4348510000000  0.4261820000000 1.0
C      1  0.4151560000000  0.4316840000000  0.5157960000000 1.0
C      1  0.4248010000000  0.5154690000000  0.4572740000000 1.0
C      1  0.5639610000000  0.5879350000000  0.4956690000000 1.0
C      1  0.4296360000000  0.5613410000000  0.5668850000000 1.0
C      1  0.4811710000000  0.5658050000000  0.5526800000000 1.0
C      1  0.4669820000000  0.5637870000000  0.4072190000000 1.0
C      1  0.5537850000000  0.5743180000000  0.5203190000000 1.0
C      1  0.5757690000000  0.5241800000000  0.4035090000000 1.0
C      1  0.4721160000000  0.4444370000000  0.5152880000000 1.0
END
