TITL C-2782233-7966-1284 -0.0015562432627449 125000 -273.045030385074 0 0 49 (C5) n - 1
REM
REM in /home/nfs/bkarasulu/CARBON/AIRSS/Generating-Clusters/REBO/Higher-Symm/SD-CG/HFTN-CG
REM
REM
REM
REM
REM
REM ./C.cell (12c818d87b63d06a65506943cc24bca4)
REM
REM compiler GCC version 9.2.1 20190827 (Red Hat 9.2.1-1)
REM options -cpp -mtune=generic -march=x86-64 -g -O0 -fpre-include=/usr/include/finclude/math-vector-fortran.h
REM seed 797074112 498182313 866190306 -1541665273 1433943991 47832201 44910770 905181255 -276993110 -1383578151 -1554417835 2099976797 339888661 1688408993 -1306937338 256449846 559667171 -161997774 -1089574409 1265966028 -1803261360 -1128971221 1808285225 2067140903 -330625666 574729586 1047316448 292753222 -1081520741 -915914986 -2105075361 -1920622011 -2077816225
REM
CELL 1.54180   50.00000   50.00000   50.00000   90.00000   90.00000   90.00000
LATT -1
SFAC C  
C      1  0.4641880000000  0.5410810000000  0.5306860000000 1.0
C      1  0.4642290000000  0.5428750000000  0.4709500000000 1.0
C      1  0.4644110000000  0.4866170000000  0.4507840000000 1.0
C      1  0.4644830000000  0.4500530000000  0.4980580000000 1.0
C      1  0.4643450000000  0.4837140000000  0.5474400000000 1.0
C      1  0.4874400000000  0.4836590000000  0.5295770000000 1.0
C      1  0.4873240000000  0.5241050000000  0.5252960000000 1.0
C      1  0.4873300000000  0.5325330000000  0.4855060000000 1.0
C      1  0.4874500000000  0.4972950000000  0.4651960000000 1.0
C      1  0.4875180000000  0.4670890000000  0.4924330000000 1.0
C      1  0.4509870000000  0.5088030000000  0.4384750000000 1.0
C      1  0.4511480000000  0.4451850000000  0.4731090000000 1.0
C      1  0.4510530000000  0.4584640000000  0.5443160000000 1.0
C      1  0.4508330000000  0.5302900000000  0.5536900000000 1.0
C      1  0.4507920000000  0.5614010000000  0.4882770000000 1.0
C      1  0.5527360000000  0.5309230000000  0.4819060000000 1.0
C      1  0.5528590000000  0.4934590000000  0.4658340000000 1.0
C      1  0.5529150000000  0.4665960000000  0.4964980000000 1.0
C      1  0.5528260000000  0.4874580000000  0.5315220000000 1.0
C      1  0.5527150000000  0.5272140000000  0.5225040000000 1.0
C      1  0.5215400000000  0.5384630000000  0.4464110000000 1.0
C      1  0.5217650000000  0.4619900000000  0.4475890000000 1.0
C      1  0.5217750000000  0.4394790000000  0.5206840000000 1.0
C      1  0.5215550000000  0.5020400000000  0.5646810000000 1.0
C      1  0.5214100000000  0.5632160000000  0.5187770000000 1.0
C      1  0.5323260000000  0.5421330000000  0.5335460000000 1.0
C      1  0.5323630000000  0.5460080000000  0.4710620000000 1.0
C      1  0.5325540000000  0.4877800000000  0.4480680000000 1.0
C      1  0.5326340000000  0.4479180000000  0.4963400000000 1.0
C      1  0.5324930000000  0.4815100000000  0.5491690000000 1.0
C      1  0.4922180000000  0.5736970000000  0.5099780000000 1.0
C      1  0.4923970000000  0.5332950000000  0.4336250000000 1.0
C      1  0.4926370000000  0.4481960000000  0.4484550000000 1.0
C      1  0.4926070000000  0.4360020000000  0.5339730000000 1.0
C      1  0.4923470000000  0.5135660000000  0.5719960000000 1.0
C      1  0.5103760000000  0.5532970000000  0.4897020000000 1.0
C      1  0.5105440000000  0.5077320000000  0.4468220000000 1.0
C      1  0.5106830000000  0.4528700000000  0.4769070000000 1.0
C      1  0.5106000000000  0.4645290000000  0.5383800000000 1.0
C      1  0.5104110000000  0.5265960000000  0.5462880000000 1.0
C      1  0.4647910000000  0.5648930000000  0.5135880000000 1.0
C      1  0.4649370000000  0.5339720000000  0.4430220000000 1.0
C      1  0.4651580000000  0.4573060000000  0.4506230000000 1.0
C      1  0.4651480000000  0.4408430000000  0.5258870000000 1.0
C      1  0.4649210000000  0.5073360000000  0.5648010000000 1.0
C      1  0.5199090000000  0.5010330000000  0.4996270000000 1.0
C      1  0.5537910000000  0.5011330000000  0.4996540000000 1.0
C      1  0.4859110000000  0.5009320000000  0.4996000000000 1.0
C      1  0.4531630000000  0.5008350000000  0.4995750000000 1.0
END
