TITL C-2782240-8521-1414 -0.000360476277278373 125000 -637.803412332048 0 0 106 (C1) n - 1
REM
REM in /home/nfs/bkarasulu/CARBON/AIRSS/Generating-Clusters/REBO/Higher-Symm/SD-CG/HFTN-CG
REM
REM
REM
REM
REM
REM ./C.cell (12c818d87b63d06a65506943cc24bca4)
REM
REM compiler GCC version 9.2.1 20190827 (Red Hat 9.2.1-1)
REM options -cpp -mtune=generic -march=x86-64 -g -O0 -fpre-include=/usr/include/finclude/math-vector-fortran.h
REM seed -365449939 -123516978 -2133365279 -201734158 -1566411865 1401381462 -255058614 -2005404464 759928334 -1099780755 -1402312399 -529266191 -753260233 654070714 -1786853278 1312509033 -456692420 5937864 1475934664 -882712039 -688944513 1545720816 -1071555236 1967958007 -281946895 -1529244886 -1020162738 1412771647 1757577031 -1936793462 116197507 1353582385 -1387358861
REM
CELL 1.54180   50.00000   50.00000   50.00000   90.00000   90.00000   90.00000
LATT -1
SFAC C  
C      1  0.4989330000000  0.5159670000000  0.3725240000000 1.0
C      1  0.5884290000000  0.5146740000000  0.4447660000000 1.0
C      1  0.5705760000000  0.5143550000000  0.5405770000000 1.0
C      1  0.4651470000000  0.5150920000000  0.5982240000000 1.0
C      1  0.4222530000000  0.5152000000000  0.5117010000000 1.0
C      1  0.4985710000000  0.4875160000000  0.3726860000000 1.0
C      1  0.5889980000000  0.4861300000000  0.4446480000000 1.0
C      1  0.5707840000000  0.4857040000000  0.5404870000000 1.0
C      1  0.4669280000000  0.4867090000000  0.5963110000000 1.0
C      1  0.4214540000000  0.4867200000000  0.5113760000000 1.0
C      1  0.4497960000000  0.5510060000000  0.4498470000000 1.0
C      1  0.5277940000000  0.5464940000000  0.4369060000000 1.0
C      1  0.5683550000000  0.5331640000000  0.5164780000000 1.0
C      1  0.5112080000000  0.5396950000000  0.5710200000000 1.0
C      1  0.4281570000000  0.5394890000000  0.5340680000000 1.0
C      1  0.4485140000000  0.4502070000000  0.4506170000000 1.0
C      1  0.5261300000000  0.4564120000000  0.4374780000000 1.0
C      1  0.5692370000000  0.4668090000000  0.5162740000000 1.0
C      1  0.5106470000000  0.4612760000000  0.5701120000000 1.0
C      1  0.4301010000000  0.4635350000000  0.5318700000000 1.0
C      1  0.5242750000000  0.4080900000000  0.4933790000000 1.0
C      1  0.5245830000000  0.3954200000000  0.5199960000000 1.0
C      1  0.4982720000000  0.3998480000000  0.5318270000000 1.0
C      1  0.4787420000000  0.3974780000000  0.5084350000000 1.0
C      1  0.4962220000000  0.4064210000000  0.4834680000000 1.0
C      1  0.5217910000000  0.5912560000000  0.4920420000000 1.0
C      1  0.5161780000000  0.6051590000000  0.5171360000000 1.0
C      1  0.4886170000000  0.5967120000000  0.5266790000000 1.0
C      1  0.4807370000000  0.6065390000000  0.4986600000000 1.0
C      1  0.4952030000000  0.5903160000000  0.4779640000000 1.0
C      1  0.5390190000000  0.5460260000000  0.5662350000000 1.0
C      1  0.4462430000000  0.5450780000000  0.5603230000000 1.0
C      1  0.4329770000000  0.5502680000000  0.4752080000000 1.0
C      1  0.5129740000000  0.5481590000000  0.4119620000000 1.0
C      1  0.5731800000000  0.5397830000000  0.4864120000000 1.0
C      1  0.5382600000000  0.4545550000000  0.5649400000000 1.0
C      1  0.4493460000000  0.4579370000000  0.5562270000000 1.0
C      1  0.4314510000000  0.4506050000000  0.4756380000000 1.0
C      1  0.5115870000000  0.4553480000000  0.4123310000000 1.0
C      1  0.5742760000000  0.4604680000000  0.4860260000000 1.0
C      1  0.5330100000000  0.4358390000000  0.4947340000000 1.0
C      1  0.5155720000000  0.4490340000000  0.5207730000000 1.0
C      1  0.4868770000000  0.4317440000000  0.5272300000000 1.0
C      1  0.4665760000000  0.4270850000000  0.5002320000000 1.0
C      1  0.4839670000000  0.4326300000000  0.4732230000000 1.0
C      1  0.5324980000000  0.5647410000000  0.4962110000000 1.0
C      1  0.5160770000000  0.5510890000000  0.5227470000000 1.0
C      1  0.4854510000000  0.5650270000000  0.5283640000000 1.0
C      1  0.4690850000000  0.5573140000000  0.5025930000000 1.0
C      1  0.4845620000000  0.5638210000000  0.4764070000000 1.0
C      1  0.5155570000000  0.4771300000000  0.3943250000000 1.0
C      1  0.5925430000000  0.4764310000000  0.4723090000000 1.0
C      1  0.5579040000000  0.4760820000000  0.5657020000000 1.0
C      1  0.4470960000000  0.4766390000000  0.5770490000000 1.0
C      1  0.4241440000000  0.4769430000000  0.4843040000000 1.0
C      1  0.5161950000000  0.5261580000000  0.3940250000000 1.0
C      1  0.5916220000000  0.5242720000000  0.4724890000000 1.0
C      1  0.5580910000000  0.5238760000000  0.5660960000000 1.0
C      1  0.4441410000000  0.5251280000000  0.5801370000000 1.0
C      1  0.4255800000000  0.5243200000000  0.4844430000000 1.0
C      1  0.5291180000000  0.5167330000000  0.4765020000000 1.0
C      1  0.5188660000000  0.5167390000000  0.5247800000000 1.0
C      1  0.4741270000000  0.5157660000000  0.5460150000000 1.0
C      1  0.4655010000000  0.5245500000000  0.4963060000000 1.0
C      1  0.4871630000000  0.5398260000000  0.4618840000000 1.0
C      1  0.5222550000000  0.4862240000000  0.4796000000000 1.0
C      1  0.5184310000000  0.4832260000000  0.5243470000000 1.0
C      1  0.4740020000000  0.4873260000000  0.5449810000000 1.0
C      1  0.4665940000000  0.4909270000000  0.4959970000000 1.0
C      1  0.4856360000000  0.4580290000000  0.4630440000000 1.0
C      1  0.4900310000000  0.5576990000000  0.5777600000000 1.0
C      1  0.4235270000000  0.5663570000000  0.5194340000000 1.0
C      1  0.4648280000000  0.5611240000000  0.4290100000000 1.0
C      1  0.5490830000000  0.5606020000000  0.4492230000000 1.0
C      1  0.5642370000000  0.5613550000000  0.5294570000000 1.0
C      1  0.4903040000000  0.4419790000000  0.5756380000000 1.0
C      1  0.4232210000000  0.4364860000000  0.5193580000000 1.0
C      1  0.4633780000000  0.4415350000000  0.4289960000000 1.0
C      1  0.5488360000000  0.4431550000000  0.4479570000000 1.0
C      1  0.5640340000000  0.4386710000000  0.5288920000000 1.0
C      1  0.4585980000000  0.4777700000000  0.5227700000000 1.0
C      1  0.4606170000000  0.4767850000000  0.4681160000000 1.0
C      1  0.5110890000000  0.4687910000000  0.4581250000000 1.0
C      1  0.5406080000000  0.4741420000000  0.5023270000000 1.0
C      1  0.5003660000000  0.4775140000000  0.5491350000000 1.0
C      1  0.4573530000000  0.5274480000000  0.5264010000000 1.0
C      1  0.4597900000000  0.5226560000000  0.4639710000000 1.0
C      1  0.5137290000000  0.5309360000000  0.4567600000000 1.0
C      1  0.5392690000000  0.5258270000000  0.5022230000000 1.0
C      1  0.5010600000000  0.5244850000000  0.5492520000000 1.0
C      1  0.4399730000000  0.5680000000000  0.4974310000000 1.0
C      1  0.4874610000000  0.5605330000000  0.4140640000000 1.0
C      1  0.5528960000000  0.5568290000000  0.4773520000000 1.0
C      1  0.5398540000000  0.5617690000000  0.5421250000000 1.0
C      1  0.4707530000000  0.5588480000000  0.5563140000000 1.0
C      1  0.4374650000000  0.4321930000000  0.4964620000000 1.0
C      1  0.4859330000000  0.4431870000000  0.4140050000000 1.0
C      1  0.5534680000000  0.4443530000000  0.4761390000000 1.0
C      1  0.5393370000000  0.4388650000000  0.5409010000000 1.0
C      1  0.4716940000000  0.4409570000000  0.5535930000000 1.0
C      1  0.4299410000000  0.5003030000000  0.5725450000000 1.0
C      1  0.6019300000000  0.5004890000000  0.4864860000000 1.0
C      1  0.5544210000000  0.4998510000000  0.5822700000000 1.0
C      1  0.4365540000000  0.5001490000000  0.4655600000000 1.0
C      1  0.5294020000000  0.5015160000000  0.4039630000000 1.0
C      1  0.4974650000000  0.5006720000000  0.4948950000000 1.0
END
