TITL C-2782228-2999-1027 0.00480850743011859 125000 -336.870015982716 0 0 56 (C3h) n - 1
REM
REM in /home/nfs/bkarasulu/CARBON/AIRSS/Generating-Clusters/REBO/Higher-Symm/SD-CG/HFTN-CG
REM
REM
REM
REM
REM
REM ./C.cell (12c818d87b63d06a65506943cc24bca4)
REM
REM compiler GCC version 9.2.1 20190827 (Red Hat 9.2.1-1)
REM options -cpp -mtune=generic -march=x86-64 -g -O0 -fpre-include=/usr/include/finclude/math-vector-fortran.h
REM seed 362884063 424474350 331796165 -1258560945 -937260918 -739539248 1633963005 -1192489421 -498920899 -1611738035 566346388 -505925787 145063370 1167867585 337760496 761718025 -323119249 -936287543 446194372 -1380942563 -1750665411 545787688 1940533427 -28959775 1495059334 -672078727 -1507490898 -1797350258 -268007571 -305690319 1739728724 -385541405 -441134008
REM
CELL 1.54180   50.00000   50.00000   50.00000   90.00000   90.00000   90.00000
LATT -1
SFAC C  
C      1  0.5598790000000  0.4618840000000  0.5395670000000 1.0
C      1  0.5025260000000  0.5705360000000  0.5395800000000 1.0
C      1  0.4371080000000  0.4665410000000  0.5395750000000 1.0
C      1  0.5598750000000  0.4618900000000  0.4640980000000 1.0
C      1  0.5025210000000  0.5705420000000  0.4641100000000 1.0
C      1  0.4371030000000  0.4665470000000  0.4641060000000 1.0
C      1  0.5296650000000  0.4737150000000  0.5490880000000 1.0
C      1  0.5073870000000  0.5384520000000  0.5490950000000 1.0
C      1  0.4624630000000  0.4867910000000  0.5490940000000 1.0
C      1  0.5296590000000  0.4737230000000  0.4545820000000 1.0
C      1  0.5073820000000  0.5384600000000  0.4545890000000 1.0
C      1  0.4624570000000  0.4867990000000  0.4545880000000 1.0
C      1  0.5151900000000  0.4362870000000  0.5161170000000 1.0
C      1  0.5470380000000  0.5446370000000  0.5161240000000 1.0
C      1  0.4372810000000  0.5180430000000  0.5161290000000 1.0
C      1  0.5151880000000  0.4362890000000  0.4875490000000 1.0
C      1  0.5470360000000  0.5446390000000  0.4875560000000 1.0
C      1  0.4372790000000  0.5180450000000  0.4875610000000 1.0
C      1  0.5577740000000  0.4938020000000  0.4747180000000 1.0
C      1  0.4759360000000  0.5527650000000  0.4747280000000 1.0
C      1  0.4657910000000  0.4524100000000  0.4747210000000 1.0
C      1  0.5577770000000  0.4937970000000  0.5289520000000 1.0
C      1  0.4759400000000  0.5527600000000  0.5289620000000 1.0
C      1  0.4657950000000  0.4524060000000  0.5289550000000 1.0
C      1  0.5019110000000  0.5393530000000  0.5152880000000 1.0
C      1  0.4644190000000  0.4816040000000  0.5152860000000 1.0
C      1  0.5331780000000  0.4780090000000  0.5152810000000 1.0
C      1  0.5019100000000  0.5393560000000  0.4883970000000 1.0
C      1  0.4644180000000  0.4816060000000  0.4883950000000 1.0
C      1  0.5331760000000  0.4780120000000  0.4883900000000 1.0
C      1  0.5271350000000  0.4986230000000  0.5674350000000 1.0
C      1  0.4870820000000  0.5238040000000  0.5674390000000 1.0
C      1  0.4853010000000  0.4765260000000  0.5674350000000 1.0
C      1  0.5271270000000  0.4986340000000  0.4362410000000 1.0
C      1  0.4870740000000  0.5238150000000  0.4362450000000 1.0
C      1  0.4852930000000  0.4765370000000  0.4362410000000 1.0
C      1  0.4278630000000  0.4932950000000  0.5280190000000 1.0
C      1  0.5413320000000  0.4405030000000  0.5280070000000 1.0
C      1  0.5303160000000  0.5651660000000  0.5280190000000 1.0
C      1  0.4278600000000  0.4932990000000  0.4756680000000 1.0
C      1  0.5413280000000  0.4405070000000  0.4756560000000 1.0
C      1  0.5303130000000  0.5651700000000  0.4756670000000 1.0
C      1  0.5333610000000  0.5232770000000  0.5551070000000 1.0
C      1  0.4626180000000  0.5168710000000  0.5551110000000 1.0
C      1  0.5035370000000  0.4588080000000  0.5551030000000 1.0
C      1  0.5333550000000  0.5232860000000  0.4485720000000 1.0
C      1  0.4626110000000  0.5168800000000  0.4485760000000 1.0
C      1  0.5035310000000  0.4588170000000  0.4485680000000 1.0
C      1  0.5514610000000  0.5217750000000  0.5333740000000 1.0
C      1  0.4548690000000  0.5333010000000  0.5333810000000 1.0
C      1  0.4931830000000  0.4438870000000  0.5333710000000 1.0
C      1  0.5514570000000  0.5217800000000  0.4703020000000 1.0
C      1  0.4548650000000  0.5333060000000  0.4703100000000 1.0
C      1  0.4931790000000  0.4438920000000  0.4703000000000 1.0
C      1  0.4998400000000  0.4996500000000  0.5776450000000 1.0
C      1  0.4998310000000  0.4996630000000  0.4260340000000 1.0
END
