TITL C-2782226-7400-1164 0.00204260531072545 125000 -1068.94532592388 0 0 184 (C1) n - 1
REM
REM in /home/nfs/bkarasulu/CARBON/AIRSS/Generating-Clusters/REBO/Higher-Symm/SD-CG/HFTN-CG
REM
REM
REM
REM
REM
REM ./C.cell (12c818d87b63d06a65506943cc24bca4)
REM
REM compiler GCC version 9.2.1 20190827 (Red Hat 9.2.1-1)
REM options -cpp -mtune=generic -march=x86-64 -g -O0 -fpre-include=/usr/include/finclude/math-vector-fortran.h
REM seed -654571486 -1149398991 -405247723 1962102869 355716122 741052699 1814853062 57642693 1516319183 -1580910377 201190402 1108494082 233154120 -1672005550 1772346107 351451512 -1837182347 219996440 -526702485 1589710233 1796637292 -2091301517 -883152233 745181444 -117593206 -538315872 -1125420926 1981900870 -8702543 1356885132 1679260895 -1558527991 -727016737
REM
CELL 1.54180   50.00000   50.00000   50.00000   90.00000   90.00000   90.00000
LATT -1
SFAC C  
C      1  0.4947190000000  0.5173580000000  0.4700390000000 1.0
C      1  0.4759920000000  0.5187970000000  0.5230200000000 1.0
C      1  0.5290110000000  0.5216860000000  0.5102350000000 1.0
C      1  0.4153420000000  0.4515550000000  0.4858040000000 1.0
C      1  0.5383990000000  0.4462560000000  0.5804300000000 1.0
C      1  0.5493150000000  0.4498030000000  0.4290350000000 1.0
C      1  0.4219450000000  0.5378490000000  0.4452720000000 1.0
C      1  0.4923260000000  0.5379480000000  0.5903100000000 1.0
C      1  0.5903430000000  0.5347400000000  0.4646200000000 1.0
C      1  0.4804520000000  0.4819860000000  0.4682110000000 1.0
C      1  0.4767630000000  0.4833330000000  0.5445550000000 1.0
C      1  0.5280420000000  0.4700680000000  0.4901020000000 1.0
C      1  0.5591140000000  0.4967540000000  0.5509830000000 1.0
C      1  0.5173190000000  0.4995000000000  0.4275880000000 1.0
C      1  0.4307740000000  0.5019710000000  0.5225790000000 1.0
C      1  0.4927030000000  0.4535710000000  0.4821300000000 1.0
C      1  0.4860890000000  0.4529120000000  0.5324320000000 1.0
C      1  0.5305740000000  0.4410800000000  0.5046150000000 1.0
C      1  0.4319230000000  0.5633730000000  0.5879720000000 1.0
C      1  0.6109850000000  0.5540240000000  0.5330900000000 1.0
C      1  0.4526190000000  0.5620740000000  0.3956040000000 1.0
C      1  0.4036480000000  0.5161370000000  0.4498450000000 1.0
C      1  0.5066130000000  0.5163980000000  0.6025820000000 1.0
C      1  0.5940840000000  0.5087850000000  0.4481800000000 1.0
C      1  0.6081200000000  0.4886160000000  0.5689880000000 1.0
C      1  0.5039920000000  0.5066480000000  0.3906820000000 1.0
C      1  0.4015260000000  0.5065210000000  0.5492530000000 1.0
C      1  0.4858460000000  0.4586400000000  0.4335390000000 1.0
C      1  0.4521460000000  0.4540680000000  0.5534950000000 1.0
C      1  0.5640890000000  0.4670110000000  0.5135940000000 1.0
C      1  0.5319400000000  0.4023860000000  0.4693830000000 1.0
C      1  0.4607740000000  0.4041320000000  0.4805610000000 1.0
C      1  0.5071590000000  0.4049650000000  0.5422310000000 1.0
C      1  0.5672720000000  0.4167450000000  0.5064340000000 1.0
C      1  0.4706210000000  0.4107280000000  0.4333370000000 1.0
C      1  0.4567410000000  0.4141720000000  0.5509770000000 1.0
C      1  0.5226970000000  0.3939030000000  0.5218530000000 1.0
C      1  0.5062940000000  0.3953670000000  0.4627550000000 1.0
C      1  0.4725130000000  0.4070330000000  0.5050540000000 1.0
C      1  0.5604320000000  0.4925720000000  0.4624120000000 1.0
C      1  0.4370640000000  0.4875980000000  0.4673990000000 1.0
C      1  0.5062110000000  0.4792720000000  0.5708100000000 1.0
C      1  0.4560690000000  0.6064770000000  0.4825530000000 1.0
C      1  0.5089410000000  0.6019170000000  0.5386030000000 1.0
C      1  0.5340430000000  0.6011390000000  0.4620610000000 1.0
C      1  0.5953290000000  0.4789180000000  0.4444740000000 1.0
C      1  0.4010950000000  0.4836350000000  0.4432240000000 1.0
C      1  0.5040240000000  0.4842860000000  0.6102880000000 1.0
C      1  0.4394510000000  0.4478820000000  0.4303940000000 1.0
C      1  0.4640550000000  0.4357280000000  0.5908720000000 1.0
C      1  0.5935480000000  0.4463650000000  0.4826390000000 1.0
C      1  0.4307630000000  0.5864580000000  0.4780900000000 1.0
C      1  0.5170370000000  0.5858460000000  0.5666390000000 1.0
C      1  0.5605820000000  0.5802270000000  0.4570030000000 1.0
C      1  0.4568780000000  0.4645010000000  0.4515550000000 1.0
C      1  0.4807980000000  0.4565100000000  0.5718480000000 1.0
C      1  0.5677360000000  0.4673000000000  0.4816840000000 1.0
C      1  0.4725450000000  0.5498160000000  0.4583220000000 1.0
C      1  0.4781650000000  0.5566930000000  0.5452420000000 1.0
C      1  0.5500400000000  0.5635140000000  0.5018630000000 1.0
C      1  0.4487180000000  0.4634900000000  0.5945500000000 1.0
C      1  0.6066790000000  0.4693120000000  0.5023440000000 1.0
C      1  0.4418460000000  0.4645690000000  0.4034480000000 1.0
C      1  0.4519140000000  0.4412310000000  0.5062730000000 1.0
C      1  0.5284990000000  0.4415120000000  0.5368030000000 1.0
C      1  0.5181180000000  0.4396450000000  0.4666840000000 1.0
C      1  0.5504790000000  0.4206760000000  0.5523890000000 1.0
C      1  0.5197620000000  0.4245120000000  0.4375460000000 1.0
C      1  0.4249930000000  0.4205240000000  0.5085350000000 1.0
C      1  0.5676640000000  0.4473380000000  0.5626310000000 1.0
C      1  0.5189070000000  0.4486350000000  0.4134720000000 1.0
C      1  0.4132580000000  0.4507360000000  0.5201900000000 1.0
C      1  0.5719560000000  0.5625050000000  0.5351520000000 1.0
C      1  0.4933170000000  0.5541110000000  0.4215400000000 1.0
C      1  0.4373480000000  0.5585070000000  0.5447230000000 1.0
C      1  0.5469640000000  0.5884680000000  0.5692060000000 1.0
C      1  0.5378030000000  0.5866130000000  0.4325130000000 1.0
C      1  0.4125110000000  0.5861340000000  0.5016200000000 1.0
C      1  0.4770380000000  0.4763500000000  0.6094080000000 1.0
C      1  0.6103140000000  0.4794970000000  0.4699320000000 1.0
C      1  0.4138860000000  0.4764760000000  0.4195460000000 1.0
C      1  0.5206670000000  0.5677960000000  0.4995980000000 1.0
C      1  0.4924650000000  0.5754250000000  0.4666620000000 1.0
C      1  0.4754020000000  0.5778630000000  0.5183440000000 1.0
C      1  0.4091120000000  0.5032870000000  0.4768540000000 1.0
C      1  0.5265300000000  0.5034780000000  0.5836210000000 1.0
C      1  0.5644060000000  0.5180160000000  0.4397470000000 1.0
C      1  0.5172250000000  0.4916950000000  0.4716320000000 1.0
C      1  0.4674060000000  0.4930700000000  0.5071560000000 1.0
C      1  0.5163540000000  0.4921660000000  0.5207950000000 1.0
C      1  0.4820600000000  0.5215130000000  0.3990440000000 1.0
C      1  0.4178740000000  0.5201320000000  0.5668560000000 1.0
C      1  0.6189390000000  0.5031380000000  0.5510810000000 1.0
C      1  0.5599600000000  0.5128910000000  0.4106760000000 1.0
C      1  0.3868980000000  0.5072820000000  0.4968700000000 1.0
C      1  0.5549570000000  0.5119650000000  0.5916330000000 1.0
C      1  0.5577110000000  0.5376150000000  0.5194410000000 1.0
C      1  0.4888970000000  0.5302030000000  0.4395330000000 1.0
C      1  0.4554850000000  0.5340790000000  0.5430740000000 1.0
C      1  0.4381540000000  0.4987550000000  0.5794170000000 1.0
C      1  0.6048960000000  0.5037580000000  0.5224570000000 1.0
C      1  0.4606910000000  0.4991680000000  0.4093280000000 1.0
C      1  0.4467330000000  0.5384910000000  0.4913120000000 1.0
C      1  0.5191700000000  0.5376970000000  0.5454300000000 1.0
C      1  0.5339300000000  0.5377750000000  0.4559730000000 1.0
C      1  0.5088880000000  0.5479320000000  0.4746030000000 1.0
C      1  0.4744600000000  0.5469090000000  0.5067230000000 1.0
C      1  0.5063690000000  0.5444530000000  0.5143660000000 1.0
C      1  0.4574760000000  0.5074070000000  0.4489640000000 1.0
C      1  0.4855690000000  0.5060590000000  0.5672870000000 1.0
C      1  0.5623640000000  0.5082980000000  0.4926310000000 1.0
C      1  0.4326190000000  0.4300480000000  0.5393150000000 1.0
C      1  0.5675310000000  0.4373640000000  0.5295520000000 1.0
C      1  0.4919780000000  0.4287200000000  0.4227140000000 1.0
C      1  0.5299720000000  0.4693440000000  0.6039710000000 1.0
C      1  0.5757960000000  0.4689830000000  0.4250410000000 1.0
C      1  0.3940720000000  0.4675410000000  0.4674800000000 1.0
C      1  0.4846560000000  0.4983390000000  0.4339550000000 1.0
C      1  0.4503150000000  0.5024660000000  0.5488710000000 1.0
C      1  0.5724900000000  0.5096460000000  0.5242090000000 1.0
C      1  0.5811910000000  0.4739790000000  0.5609210000000 1.0
C      1  0.5077050000000  0.4759460000000  0.4049370000000 1.0
C      1  0.4135090000000  0.4767040000000  0.5378660000000 1.0
C      1  0.4341820000000  0.5548290000000  0.4682420000000 1.0
C      1  0.5043590000000  0.5556570000000  0.5669050000000 1.0
C      1  0.5633740000000  0.5498170000000  0.4523570000000 1.0
C      1  0.4392010000000  0.5386140000000  0.5793170000000 1.0
C      1  0.5985540000000  0.5421460000000  0.5133050000000 1.0
C      1  0.4587450000000  0.5389600000000  0.4085120000000 1.0
C      1  0.4750450000000  0.4708590000000  0.4058640000000 1.0
C      1  0.4287040000000  0.4703440000000  0.5676670000000 1.0
C      1  0.5903090000000  0.4744670000000  0.5299970000000 1.0
C      1  0.4538440000000  0.5880610000000  0.5423550000000 1.0
C      1  0.5775440000000  0.5891450000000  0.5149650000000 1.0
C      1  0.4811730000000  0.5818730000000  0.4361920000000 1.0
C      1  0.5502280000000  0.4232150000000  0.4496260000000 1.0
C      1  0.4336230000000  0.4242970000000  0.4758290000000 1.0
C      1  0.5224240000000  0.4184260000000  0.5688620000000 1.0
C      1  0.5597730000000  0.5387950000000  0.5777240000000 1.0
C      1  0.5437010000000  0.5341550000000  0.3978660000000 1.0
C      1  0.3926120000000  0.5299740000000  0.5118450000000 1.0
C      1  0.4812670000000  0.4192170000000  0.5329200000000 1.0
C      1  0.5376340000000  0.4087610000000  0.4987200000000 1.0
C      1  0.4781300000000  0.3991120000000  0.4583080000000 1.0
C      1  0.4078380000000  0.5581770000000  0.5204420000000 1.0
C      1  0.5659290000000  0.5643360000000  0.5674140000000 1.0
C      1  0.5303340000000  0.5593700000000  0.4136930000000 1.0
C      1  0.4541500000000  0.5781920000000  0.4545900000000 1.0
C      1  0.4844790000000  0.5883990000000  0.5557990000000 1.0
C      1  0.5677940000000  0.5833090000000  0.4875140000000 1.0
C      1  0.5530950000000  0.4868020000000  0.6083380000000 1.0
C      1  0.5705790000000  0.4877110000000  0.4035600000000 1.0
C      1  0.3758760000000  0.4822510000000  0.4847240000000 1.0
C      1  0.5267680000000  0.5280460000000  0.4270360000000 1.0
C      1  0.4259800000000  0.5309130000000  0.5123950000000 1.0
C      1  0.5453660000000  0.5247300000000  0.5551700000000 1.0
C      1  0.4512280000000  0.4950480000000  0.6074910000000 1.0
C      1  0.6194500000000  0.4997870000000  0.4938650000000 1.0
C      1  0.4305770000000  0.4968250000000  0.4014300000000 1.0
C      1  0.5504690000000  0.4400540000000  0.4774640000000 1.0
C      1  0.4620240000000  0.4436190000000  0.4762150000000 1.0
C      1  0.5041190000000  0.4420510000000  0.5564920000000 1.0
C      1  0.4585170000000  0.4126090000000  0.5780880000000 1.0
C      1  0.5871440000000  0.4206380000000  0.4882210000000 1.0
C      1  0.4443460000000  0.4208970000000  0.4298170000000 1.0
C      1  0.5089690000000  0.5989830000000  0.4774620000000 1.0
C      1  0.4798510000000  0.5997640000000  0.4956640000000 1.0
C      1  0.5099730000000  0.5961820000000  0.5102320000000 1.0
C      1  0.4504530000000  0.4672590000000  0.5220560000000 1.0
C      1  0.5374480000000  0.4720290000000  0.5287420000000 1.0
C      1  0.5113980000000  0.4665670000000  0.4493800000000 1.0
C      1  0.4651950000000  0.5282340000000  0.5813260000000 1.0
C      1  0.5862780000000  0.5293690000000  0.4922900000000 1.0
C      1  0.4449410000000  0.5288020000000  0.4310460000000 1.0
C      1  0.5015950000000  0.5134630000000  0.5389370000000 1.0
C      1  0.5335800000000  0.5168220000000  0.4791290000000 1.0
C      1  0.4638250000000  0.5134510000000  0.4820210000000 1.0
C      1  0.5082800000000  0.5843820000000  0.4170800000000 1.0
C      1  0.4218700000000  0.5863840000000  0.5334370000000 1.0
C      1  0.5624130000000  0.5952010000000  0.5428890000000 1.0
C      1  0.4314960000000  0.4783620000000  0.4980800000000 1.0
C      1  0.5369060000000  0.4727490000000  0.5607290000000 1.0
C      1  0.5404160000000  0.4803610000000  0.4411230000000 1.0
C      1  0.4926760000000  0.4731360000000  0.5085320000000 1.0
END
