TITL C-2782238-9940-465 -0.000597366419044785 125000 -942.134332224063 0 0 160 (C1) n - 1
REM
REM in /home/nfs/bkarasulu/CARBON/AIRSS/Generating-Clusters/REBO/Higher-Symm/SD-CG/HFTN-CG
REM
REM
REM
REM
REM
REM ./C.cell (12c818d87b63d06a65506943cc24bca4)
REM
REM compiler GCC version 9.2.1 20190827 (Red Hat 9.2.1-1)
REM options -cpp -mtune=generic -march=x86-64 -g -O0 -fpre-include=/usr/include/finclude/math-vector-fortran.h
REM seed 1344462069 -170913219 -1092605196 -244362273 -822699821 1287922889 -2094601424 -1339398638 892200717 -1241168409 -114566332 808243926 1205997668 -929666721 -144601188 1549646392 1653568729 -1728346915 -659836871 768398303 2120459568 -164486180 -1308036174 -1315730175 1962520114 1953031195 -1712002540 120445169 -424769595 1799209544 -1316763998 1781697313 -842550302
REM
CELL 1.54180   50.00000   50.00000   50.00000   90.00000   90.00000   90.00000
LATT -1
SFAC C  
C      1  0.4737150000000  0.4529120000000  0.4066070000000 1.0
C      1  0.4308450000000  0.4407400000000  0.5689420000000 1.0
C      1  0.5962320000000  0.4499290000000  0.5216330000000 1.0
C      1  0.4484640000000  0.4656640000000  0.5203500000000 1.0
C      1  0.5416260000000  0.4633280000000  0.5274100000000 1.0
C      1  0.5078760000000  0.4608350000000  0.4469530000000 1.0
C      1  0.3843220000000  0.4842010000000  0.5349080000000 1.0
C      1  0.5816180000000  0.4848120000000  0.5801610000000 1.0
C      1  0.5213500000000  0.4874310000000  0.3906650000000 1.0
C      1  0.5293180000000  0.5643810000000  0.4228560000000 1.0
C      1  0.4233730000000  0.5525630000000  0.5162540000000 1.0
C      1  0.5552420000000  0.5585670000000  0.5565630000000 1.0
C      1  0.4914440000000  0.4447110000000  0.5289180000000 1.0
C      1  0.5190230000000  0.4556460000000  0.4953240000000 1.0
C      1  0.4874000000000  0.4531240000000  0.4824390000000 1.0
C      1  0.5482370000000  0.4176870000000  0.4734230000000 1.0
C      1  0.4642950000000  0.4211500000000  0.4771940000000 1.0
C      1  0.4878010000000  0.4029980000000  0.5528510000000 1.0
C      1  0.4853250000000  0.5861880000000  0.4766280000000 1.0
C      1  0.4903710000000  0.5887390000000  0.5264730000000 1.0
C      1  0.5300360000000  0.5873660000000  0.4965660000000 1.0
C      1  0.6021440000000  0.4978720000000  0.5328910000000 1.0
C      1  0.4786740000000  0.5114870000000  0.4045620000000 1.0
C      1  0.4181240000000  0.5136280000000  0.5842260000000 1.0
C      1  0.4655890000000  0.4802340000000  0.4093880000000 1.0
C      1  0.4436680000000  0.4678270000000  0.5789350000000 1.0
C      1  0.6039090000000  0.4766800000000  0.5133470000000 1.0
C      1  0.4405090000000  0.5037030000000  0.5061260000000 1.0
C      1  0.5326000000000  0.5018950000000  0.5316350000000 1.0
C      1  0.5198860000000  0.5107450000000  0.4443810000000 1.0
C      1  0.4996300000000  0.5245930000000  0.4636190000000 1.0
C      1  0.4646850000000  0.5202580000000  0.5204760000000 1.0
C      1  0.5318930000000  0.5253490000000  0.5104600000000 1.0
C      1  0.4430740000000  0.4928030000000  0.4760330000000 1.0
C      1  0.5127490000000  0.5020750000000  0.5561290000000 1.0
C      1  0.5484110000000  0.4987860000000  0.4576010000000 1.0
C      1  0.5215110000000  0.4394290000000  0.4676340000000 1.0
C      1  0.4580910000000  0.4449900000000  0.4949190000000 1.0
C      1  0.5183790000000  0.4435750000000  0.5331790000000 1.0
C      1  0.5074460000000  0.5513990000000  0.4738970000000 1.0
C      1  0.4689400000000  0.5501560000000  0.5058120000000 1.0
C      1  0.5179470000000  0.5485680000000  0.5188760000000 1.0
C      1  0.5579230000000  0.4713170000000  0.5050420000000 1.0
C      1  0.4734900000000  0.4601640000000  0.4458770000000 1.0
C      1  0.4588560000000  0.4767640000000  0.5509660000000 1.0
C      1  0.4589310000000  0.5444300000000  0.4530670000000 1.0
C      1  0.4882040000000  0.5538960000000  0.5630020000000 1.0
C      1  0.5625370000000  0.5515850000000  0.4800040000000 1.0
C      1  0.4267620000000  0.4947410000000  0.5355840000000 1.0
C      1  0.5624550000000  0.4969160000000  0.5353840000000 1.0
C      1  0.4978900000000  0.4902050000000  0.4370530000000 1.0
C      1  0.5370060000000  0.4272230000000  0.5022200000000 1.0
C      1  0.4842080000000  0.4307430000000  0.4561040000000 1.0
C      1  0.4754550000000  0.4227240000000  0.5384580000000 1.0
C      1  0.5333810000000  0.4514540000000  0.4291740000000 1.0
C      1  0.4216200000000  0.4515100000000  0.5045060000000 1.0
C      1  0.5426400000000  0.4575660000000  0.5611790000000 1.0
C      1  0.5825330000000  0.5156180000000  0.5547470000000 1.0
C      1  0.5023640000000  0.5289760000000  0.3990860000000 1.0
C      1  0.4141830000000  0.5207910000000  0.5531160000000 1.0
C      1  0.6076930000000  0.5172930000000  0.4905660000000 1.0
C      1  0.4450670000000  0.5141640000000  0.4091640000000 1.0
C      1  0.4463250000000  0.5096330000000  0.6030680000000 1.0
C      1  0.5877000000000  0.4350420000000  0.4989080000000 1.0
C      1  0.4544650000000  0.4343780000000  0.4165820000000 1.0
C      1  0.4590880000000  0.4314070000000  0.5738690000000 1.0
C      1  0.4469630000000  0.4385590000000  0.4447150000000 1.0
C      1  0.4774970000000  0.4519900000000  0.5655990000000 1.0
C      1  0.5669250000000  0.4502770000000  0.4868970000000 1.0
C      1  0.6136860000000  0.5384810000000  0.4743910000000 1.0
C      1  0.4303020000000  0.5412620000000  0.4116370000000 1.0
C      1  0.4612480000000  0.5401330000000  0.6007910000000 1.0
C      1  0.6025880000000  0.4885220000000  0.4840890000000 1.0
C      1  0.4370400000000  0.4846030000000  0.4241710000000 1.0
C      1  0.4615620000000  0.4827300000000  0.5988720000000 1.0
C      1  0.5086860000000  0.4206140000000  0.4350960000000 1.0
C      1  0.4476960000000  0.4193100000000  0.5316200000000 1.0
C      1  0.5578290000000  0.4269410000000  0.5282060000000 1.0
C      1  0.5265250000000  0.4286340000000  0.5688930000000 1.0
C      1  0.5424780000000  0.4204110000000  0.4398740000000 1.0
C      1  0.4266060000000  0.4207710000000  0.4905550000000 1.0
C      1  0.4914860000000  0.4846490000000  0.4947860000000 1.0
C      1  0.4799920000000  0.4678770000000  0.5186800000000 1.0
C      1  0.5216930000000  0.4877240000000  0.5028290000000 1.0
C      1  0.4754360000000  0.5751930000000  0.5477260000000 1.0
C      1  0.5553580000000  0.5737320000000  0.4984740000000 1.0
C      1  0.4756670000000  0.5707260000000  0.4538070000000 1.0
C      1  0.5134280000000  0.5418220000000  0.5488920000000 1.0
C      1  0.5367130000000  0.5389660000000  0.4670610000000 1.0
C      1  0.4569500000000  0.5317440000000  0.4829570000000 1.0
C      1  0.4050980000000  0.5315670000000  0.4543380000000 1.0
C      1  0.4943440000000  0.5188480000000  0.6022080000000 1.0
C      1  0.5904420000000  0.5192910000000  0.4483480000000 1.0
C      1  0.5239850000000  0.5048980000000  0.6028070000000 1.0
C      1  0.5727260000000  0.5023150000000  0.4265210000000 1.0
C      1  0.3973550000000  0.5012410000000  0.4449590000000 1.0
C      1  0.4226910000000  0.4676740000000  0.4743330000000 1.0
C      1  0.5184040000000  0.4780210000000  0.5740160000000 1.0
C      1  0.5577540000000  0.4712310000000  0.4428530000000 1.0
C      1  0.5248310000000  0.5884590000000  0.5749060000000 1.0
C      1  0.5544570000000  0.5898400000000  0.4405290000000 1.0
C      1  0.4278880000000  0.5835440000000  0.4809110000000 1.0
C      1  0.4954590000000  0.4858130000000  0.5980780000000 1.0
C      1  0.5862320000000  0.4864900000000  0.4542550000000 1.0
C      1  0.4162290000000  0.4806130000000  0.4435540000000 1.0
C      1  0.5607150000000  0.4439310000000  0.4569980000000 1.0
C      1  0.4298480000000  0.4383720000000  0.4667450000000 1.0
C      1  0.5045270000000  0.4500420000000  0.5701330000000 1.0
C      1  0.4665360000000  0.4905970000000  0.4514570000000 1.0
C      1  0.4631370000000  0.5080270000000  0.5513220000000 1.0
C      1  0.5710420000000  0.5027120000000  0.5037280000000 1.0
C      1  0.4959660000000  0.5178410000000  0.5312210000000 1.0
C      1  0.5317180000000  0.5104820000000  0.4825540000000 1.0
C      1  0.4811320000000  0.5107140000000  0.4821390000000 1.0
C      1  0.5886060000000  0.5505490000000  0.4587800000000 1.0
C      1  0.4294830000000  0.5496450000000  0.4390120000000 1.0
C      1  0.4905410000000  0.5507830000000  0.5958180000000 1.0
C      1  0.4228300000000  0.4407600000000  0.5375010000000 1.0
C      1  0.5738870000000  0.4476760000000  0.5447930000000 1.0
C      1  0.5046740000000  0.4429090000000  0.4115060000000 1.0
C      1  0.5355210000000  0.5419140000000  0.5723500000000 1.0
C      1  0.5444690000000  0.5421070000000  0.4372430000000 1.0
C      1  0.4258480000000  0.5365570000000  0.4887130000000 1.0
C      1  0.5447410000000  0.5191670000000  0.5895370000000 1.0
C      1  0.5452820000000  0.5159050000000  0.4216930000000 1.0
C      1  0.4087720000000  0.5164530000000  0.5074560000000 1.0
C      1  0.5184300000000  0.5908320000000  0.5229730000000 1.0
C      1  0.5136360000000  0.5911740000000  0.4736390000000 1.0
C      1  0.4745770000000  0.5908130000000  0.5024100000000 1.0
C      1  0.5699670000000  0.5184470000000  0.4754930000000 1.0
C      1  0.4332820000000  0.5140490000000  0.4566720000000 1.0
C      1  0.4875490000000  0.5204110000000  0.5699690000000 1.0
C      1  0.5640520000000  0.5723280000000  0.5271290000000 1.0
C      1  0.4930670000000  0.5754500000000  0.4319800000000 1.0
C      1  0.4481410000000  0.5706450000000  0.5416230000000 1.0
C      1  0.5390720000000  0.5864420000000  0.5457150000000 1.0
C      1  0.5218250000000  0.5900350000000  0.4435730000000 1.0
C      1  0.4461000000000  0.5761820000000  0.5074880000000 1.0
C      1  0.5267200000000  0.5143230000000  0.3968750000000 1.0
C      1  0.3912420000000  0.5120230000000  0.5307940000000 1.0
C      1  0.5713890000000  0.5121600000000  0.5850110000000 1.0
C      1  0.5770350000000  0.4760660000000  0.5547930000000 1.0
C      1  0.5069770000000  0.4744600000000  0.4095590000000 1.0
C      1  0.4096370000000  0.4697980000000  0.5375640000000 1.0
C      1  0.5006220000000  0.3947850000000  0.4905470000000 1.0
C      1  0.4713790000000  0.3964420000000  0.4924720000000 1.0
C      1  0.5159390000000  0.4034570000000  0.5123110000000 1.0
C      1  0.5799050000000  0.5450080000000  0.5393370000000 1.0
C      1  0.5030880000000  0.5547740000000  0.4101870000000 1.0
C      1  0.4262990000000  0.5475160000000  0.5455450000000 1.0
C      1  0.5183130000000  0.5638940000000  0.5871540000000 1.0
C      1  0.5664000000000  0.5646900000000  0.4417710000000 1.0
C      1  0.4168970000000  0.5601010000000  0.4683270000000 1.0
C      1  0.5925010000000  0.5256510000000  0.5176720000000 1.0
C      1  0.4665020000000  0.5177890000000  0.4353080000000 1.0
C      1  0.4481660000000  0.5254200000000  0.5733910000000 1.0
C      1  0.5125690000000  0.4062910000000  0.4659790000000 1.0
C      1  0.4439850000000  0.4046510000000  0.5071240000000 1.0
C      1  0.5301290000000  0.4133380000000  0.5403510000000 1.0
C      1  0.4987050000000  0.5568940000000  0.5002840000000 1.0
END
