TITL C-2782234-8014-454 0.0763310473993188 125000 -224.597360839227 0 0 40 (C1) n - 1
REM
REM in /home/nfs/bkarasulu/CARBON/AIRSS/Generating-Clusters/REBO/Higher-Symm/SD-CG/HFTN-CG
REM
REM
REM
REM
REM
REM ./C.cell (12c818d87b63d06a65506943cc24bca4)
REM
REM compiler GCC version 9.2.1 20190827 (Red Hat 9.2.1-1)
REM options -cpp -mtune=generic -march=x86-64 -g -O0 -fpre-include=/usr/include/finclude/math-vector-fortran.h
REM seed 1572922684 1172605000 -1114587923 1876148220 845511329 -1321036292 -1324221035 -1042450704 485241056 -185640882 1156982033 552949620 452067338 510240120 -706783204 -1037977154 -337743779 -1049646764 939811952 1508208121 966708149 1874004475 494483515 1603413594 388687063 -922116662 707109534 1732607531 1581703446 472149592 1863410891 -1875472168 -400790476
REM
CELL 1.54180   50.00000   50.00000   50.00000   90.00000   90.00000   90.00000
LATT -1
SFAC C  
C      1  0.5304060000000  0.5238380000000  0.5570010000000 1.0
C      1  0.5094620000000  0.4438080000000  0.4435860000000 1.0
C      1  0.5530280000000  0.4802190000000  0.5288630000000 1.0
C      1  0.5142830000000  0.5423240000000  0.4795350000000 1.0
C      1  0.4658100000000  0.4692950000000  0.5304710000000 1.0
C      1  0.4689320000000  0.5553390000000  0.5112050000000 1.0
C      1  0.5007530000000  0.4777370000000  0.4836450000000 1.0
C      1  0.4558160000000  0.4939270000000  0.5163580000000 1.0
C      1  0.4855460000000  0.5251690000000  0.4842630000000 1.0
C      1  0.5625910000000  0.4554020000000  0.5342800000000 1.0
C      1  0.5235270000000  0.5130070000000  0.4835820000000 1.0
C      1  0.5443920000000  0.5034540000000  0.4651520000000 1.0
C      1  0.5518970000000  0.4922680000000  0.5026850000000 1.0
C      1  0.5228520000000  0.5576200000000  0.5032350000000 1.0
C      1  0.4889150000000  0.4623850000000  0.5371150000000 1.0
C      1  0.4976450000000  0.5447490000000  0.4517910000000 1.0
C      1  0.4947500000000  0.4967290000000  0.5566780000000 1.0
C      1  0.4849390000000  0.4573650000000  0.4449010000000 1.0
C      1  0.3990020000000  0.4881860000000  0.5117650000000 1.0
C      1  0.5358560000000  0.4512780000000  0.4609010000000 1.0
C      1  0.5121850000000  0.4955070000000  0.5053180000000 1.0
C      1  0.4617850000000  0.4999320000000  0.4644860000000 1.0
C      1  0.4999810000000  0.5639740000000  0.5188730000000 1.0
C      1  0.4460060000000  0.5105380000000  0.4886420000000 1.0
C      1  0.4796300000000  0.4767860000000  0.4651670000000 1.0
C      1  0.5498570000000  0.4066360000000  0.4295830000000 1.0
C      1  0.3740920000000  0.4814040000000  0.5162750000000 1.0
C      1  0.4236120000000  0.4948860000000  0.5073100000000 1.0
C      1  0.4510450000000  0.5416090000000  0.4959280000000 1.0
C      1  0.5457100000000  0.5450700000000  0.5158350000000 1.0
C      1  0.5009830000000  0.5242020000000  0.5568700000000 1.0
C      1  0.5450210000000  0.5447500000000  0.5444320000000 1.0
C      1  0.4869070000000  0.5378390000000  0.5345490000000 1.0
C      1  0.4785900000000  0.5166700000000  0.5107160000000 1.0
C      1  0.5366730000000  0.4266570000000  0.4406470000000 1.0
C      1  0.4748590000000  0.5246470000000  0.4527290000000 1.0
C      1  0.5342360000000  0.4747520000000  0.4793130000000 1.0
C      1  0.5569710000000  0.5210070000000  0.5036720000000 1.0
C      1  0.5381360000000  0.4966470000000  0.5497320000000 1.0
C      1  0.5133220000000  0.4823860000000  0.5329100000000 1.0
END
