TITL C-2782240-8521-1221 -2.25504016189005e-06 125000 -79.4585254299651 0 0 19 (Th) n - 1
REM
REM in /home/nfs/bkarasulu/CARBON/AIRSS/Generating-Clusters/REBO/Higher-Symm/SD-CG/HFTN-CG
REM
REM
REM
REM
REM
REM ./C.cell (12c818d87b63d06a65506943cc24bca4)
REM
REM compiler GCC version 9.2.1 20190827 (Red Hat 9.2.1-1)
REM options -cpp -mtune=generic -march=x86-64 -g -O0 -fpre-include=/usr/include/finclude/math-vector-fortran.h
REM seed -620327761 -272953085 1638333920 406681824 -1399329427 -400502671 -685303624 -1020582145 -755777216 -754663950 803907173 -888711763 285596484 317600832 183001721 63561489 657321247 739378639 -687916340 -2022175085 -132168739 50271484 51533563 -2134439756 -843150403 1769166755 961782398 434802458 1400281144 -987537767 -1935542421 -524475154 1547474157
REM
CELL 1.54180   50.00000   50.00000   50.00000   90.00000   90.00000   90.00000
LATT -1
SFAC C  
C      1  0.5001180000000  0.4751410000000  0.4523960000000 1.0
C      1  0.4533710000000  0.4997240000000  0.4745610000000 1.0
C      1  0.5247000000000  0.4529770000000  0.4991430000000 1.0
C      1  0.4755350000000  0.5464710000000  0.4991430000000 1.0
C      1  0.5001180000000  0.5243060000000  0.4523960000000 1.0
C      1  0.5001180000000  0.4751410000000  0.5458900000000 1.0
C      1  0.5468650000000  0.4997240000000  0.4745610000000 1.0
C      1  0.5468650000000  0.4997240000000  0.5237260000000 1.0
C      1  0.4533710000000  0.4997240000000  0.5237260000000 1.0
C      1  0.5001180000000  0.5243060000000  0.5458900000000 1.0
C      1  0.4755350000000  0.4529770000000  0.4991430000000 1.0
C      1  0.5247000000000  0.5464710000000  0.4991430000000 1.0
C      1  0.4660680000000  0.4997240000000  0.4991430000000 1.0
C      1  0.5001180000000  0.4656750000000  0.4991430000000 1.0
C      1  0.5001180000000  0.4997240000000  0.4650940000000 1.0
C      1  0.5341670000000  0.4997240000000  0.4991430000000 1.0
C      1  0.5001180000000  0.5337730000000  0.4991430000000 1.0
C      1  0.5001180000000  0.4997240000000  0.5331930000000 1.0
C      1  0.5001180000000  0.4997240000000  0.4991430000000 1.0
END
