TITL C-2782240-8521-691 5.09736483502925e-06 125000 -639.745682145457 0 0 109 (C1) n - 1
REM
REM in /home/nfs/bkarasulu/CARBON/AIRSS/Generating-Clusters/REBO/Higher-Symm/SD-CG/HFTN-CG
REM
REM
REM
REM
REM
REM ./C.cell (12c818d87b63d06a65506943cc24bca4)
REM
REM compiler GCC version 9.2.1 20190827 (Red Hat 9.2.1-1)
REM options -cpp -mtune=generic -march=x86-64 -g -O0 -fpre-include=/usr/include/finclude/math-vector-fortran.h
REM seed -422806312 112787543 1835707408 933820884 1877028027 -1346938302 -1710604286 1941462736 -432501281 -416096357 -1861071711 1833379897 1008576780 -1711497883 909152683 1893330745 -1595716465 -329916231 1131907079 -878614519 -577304060 1426387051 561960160 -2121171053 28344369 311786831 1305054540 1151755194 -153048740 1978297335 1375139899 1430468497 2028368576
REM
CELL 1.54180   50.00000   50.00000   50.00000   90.00000   90.00000   90.00000
LATT -1
SFAC C  
C      1  0.4426900000000  0.5407480000000  0.4739410000000 1.0
C      1  0.5225310000000  0.5374350000000  0.4450000000000 1.0
C      1  0.5554990000000  0.5398490000000  0.5233160000000 1.0
C      1  0.4770130000000  0.5378690000000  0.5621200000000 1.0
C      1  0.5649270000000  0.4547860000000  0.4610470000000 1.0
C      1  0.4555410000000  0.4566950000000  0.4444200000000 1.0
C      1  0.4339860000000  0.4575490000000  0.5404990000000 1.0
C      1  0.5435150000000  0.4552800000000  0.5544170000000 1.0
C      1  0.5217340000000  0.5517730000000  0.5030620000000 1.0
C      1  0.4943150000000  0.5548240000000  0.5195570000000 1.0
C      1  0.4733810000000  0.5549040000000  0.4952420000000 1.0
C      1  0.5010750000000  0.5513700000000  0.4775860000000 1.0
C      1  0.4748440000000  0.4518490000000  0.5086990000000 1.0
C      1  0.5059230000000  0.4512860000000  0.5190410000000 1.0
C      1  0.5243820000000  0.4499180000000  0.4924400000000 1.0
C      1  0.4928270000000  0.4508130000000  0.4813480000000 1.0
C      1  0.5691930000000  0.5503410000000  0.4720440000000 1.0
C      1  0.5278130000000  0.5480270000000  0.5699850000000 1.0
C      1  0.4334620000000  0.5533530000000  0.5257090000000 1.0
C      1  0.4723950000000  0.5485520000000  0.4275000000000 1.0
C      1  0.4365240000000  0.4510410000000  0.4716460000000 1.0
C      1  0.4744490000000  0.4477630000000  0.5635370000000 1.0
C      1  0.5646220000000  0.4503790000000  0.5293800000000 1.0
C      1  0.5250790000000  0.4469790000000  0.4370380000000 1.0
C      1  0.4817700000000  0.5252840000000  0.5309550000000 1.0
C      1  0.4709850000000  0.5237260000000  0.4813800000000 1.0
C      1  0.5166880000000  0.5212670000000  0.4729650000000 1.0
C      1  0.5283690000000  0.5215820000000  0.5174250000000 1.0
C      1  0.5175190000000  0.4699130000000  0.5422140000000 1.0
C      1  0.5459110000000  0.4699210000000  0.4819970000000 1.0
C      1  0.4820710000000  0.4702030000000  0.4577150000000 1.0
C      1  0.4539210000000  0.4723150000000  0.5198990000000 1.0
C      1  0.5171020000000  0.4219970000000  0.4480270000000 1.0
C      1  0.5587110000000  0.4205750000000  0.5194030000000 1.0
C      1  0.4814740000000  0.4226670000000  0.5520870000000 1.0
C      1  0.4462730000000  0.4213280000000  0.4816750000000 1.0
C      1  0.4704520000000  0.5731980000000  0.4440270000000 1.0
C      1  0.4466000000000  0.5784900000000  0.5233580000000 1.0
C      1  0.5264000000000  0.5723430000000  0.5520150000000 1.0
C      1  0.5505690000000  0.5735680000000  0.4707030000000 1.0
C      1  0.5748940000000  0.5328680000000  0.4995010000000 1.0
C      1  0.5020900000000  0.5282140000000  0.5779560000000 1.0
C      1  0.4250820000000  0.5342500000000  0.4997640000000 1.0
C      1  0.4996350000000  0.5297460000000  0.4250670000000 1.0
C      1  0.4314290000000  0.4725310000000  0.4973250000000 1.0
C      1  0.4974120000000  0.4703750000000  0.5646880000000 1.0
C      1  0.5686000000000  0.4713620000000  0.5038670000000 1.0
C      1  0.5027320000000  0.4703100000000  0.4355530000000 1.0
C      1  0.5632720000000  0.4272690000000  0.4658400000000 1.0
C      1  0.5389820000000  0.4252820000000  0.5468750000000 1.0
C      1  0.4348310000000  0.4300640000000  0.5350350000000 1.0
C      1  0.4598250000000  0.4267270000000  0.4504110000000 1.0
C      1  0.4478190000000  0.5684830000000  0.4677360000000 1.0
C      1  0.4752710000000  0.5678890000000  0.5647930000000 1.0
C      1  0.5487780000000  0.5675850000000  0.5277700000000 1.0
C      1  0.5261420000000  0.5655370000000  0.4498550000000 1.0
C      1  0.5524840000000  0.4703970000000  0.5793130000000 1.0
C      1  0.4156570000000  0.4760980000000  0.5513700000000 1.0
C      1  0.4482180000000  0.4720500000000  0.4192080000000 1.0
C      1  0.5834910000000  0.4727300000000  0.4496140000000 1.0
C      1  0.4523030000000  0.5237480000000  0.5753890000000 1.0
C      1  0.5715650000000  0.5283130000000  0.5479140000000 1.0
C      1  0.5476240000000  0.5242800000000  0.4310560000000 1.0
C      1  0.4270210000000  0.5274280000000  0.4502280000000 1.0
C      1  0.4327400000000  0.5195610000000  0.5299140000000 1.0
C      1  0.4696770000000  0.5150540000000  0.4328320000000 1.0
C      1  0.5665900000000  0.5164320000000  0.4705240000000 1.0
C      1  0.5313660000000  0.5142950000000  0.5670700000000 1.0
C      1  0.5615380000000  0.4842010000000  0.5337780000000 1.0
C      1  0.5343870000000  0.4792220000000  0.4431130000000 1.0
C      1  0.4389460000000  0.4848270000000  0.4671500000000 1.0
C      1  0.4656440000000  0.4803400000000  0.5584400000000 1.0
C      1  0.4937040000000  0.4842530000000  0.4101780000000 1.0
C      1  0.5926130000000  0.4880990000000  0.4941000000000 1.0
C      1  0.5078450000000  0.4825430000000  0.5904560000000 1.0
C      1  0.4072040000000  0.4895590000000  0.5064220000000 1.0
C      1  0.5120610000000  0.5060880000000  0.4081560000000 1.0
C      1  0.4059900000000  0.5114500000000  0.4882150000000 1.0
C      1  0.4896640000000  0.5042530000000  0.5943690000000 1.0
C      1  0.5940630000000  0.5106690000000  0.5115270000000 1.0
C      1  0.4975390000000  0.5786820000000  0.4590400000000 1.0
C      1  0.5382550000000  0.5801910000000  0.4991960000000 1.0
C      1  0.4965970000000  0.5763510000000  0.5413820000000 1.0
C      1  0.4570150000000  0.5835240000000  0.4953190000000 1.0
C      1  0.4910970000000  0.4238770000000  0.4628340000000 1.0
C      1  0.4557890000000  0.4260430000000  0.5092710000000 1.0
C      1  0.5069790000000  0.4240460000000  0.5363870000000 1.0
C      1  0.5425550000000  0.4223820000000  0.4920490000000 1.0
C      1  0.4161420000000  0.5045750000000  0.4618040000000 1.0
C      1  0.5382010000000  0.5004090000000  0.4199030000000 1.0
C      1  0.5835540000000  0.5050750000000  0.5381930000000 1.0
C      1  0.4629400000000  0.4991600000000  0.5837150000000 1.0
C      1  0.5893940000000  0.4951600000000  0.4659370000000 1.0
C      1  0.4657300000000  0.4919470000000  0.4120980000000 1.0
C      1  0.4101740000000  0.4979390000000  0.5341010000000 1.0
C      1  0.5355380000000  0.4904580000000  0.5872700000000 1.0
C      1  0.5294020000000  0.4033080000000  0.5224390000000 1.0
C      1  0.4600140000000  0.4109750000000  0.5381330000000 1.0
C      1  0.4682490000000  0.3990610000000  0.4681250000000 1.0
C      1  0.5376760000000  0.4090840000000  0.4621460000000 1.0
C      1  0.4644300000000  0.5876620000000  0.5430130000000 1.0
C      1  0.5314200000000  0.5966930000000  0.5282190000000 1.0
C      1  0.5260790000000  0.5966360000000  0.4636940000000 1.0
C      1  0.4631400000000  0.5988310000000  0.4655690000000 1.0
C      1  0.5329460000000  0.4989930000000  0.5386720000000 1.0
C      1  0.5392900000000  0.4996410000000  0.4698880000000 1.0
C      1  0.4597440000000  0.5020840000000  0.5329090000000 1.0
C      1  0.4672230000000  0.5000250000000  0.4611880000000 1.0
C      1  0.4981660000000  0.5195780000000  0.5015530000000 1.0
END
