TITL C-2782231-7322-186 -0.00219209939096457 125000 -178.617246114292 0 0 32 (C2h) n - 1
REM
REM in /home/nfs/bkarasulu/CARBON/AIRSS/Generating-Clusters/REBO/Higher-Symm/SD-CG/HFTN-CG
REM
REM
REM
REM
REM
REM ./C.cell (12c818d87b63d06a65506943cc24bca4)
REM
REM compiler GCC version 9.2.1 20190827 (Red Hat 9.2.1-1)
REM options -cpp -mtune=generic -march=x86-64 -g -O0 -fpre-include=/usr/include/finclude/math-vector-fortran.h
REM seed -951702994 1485808578 410385771 1040230328 1327761862 -372291686 1173996338 -2062804909 1258536970 407685554 -1010604548 648903608 -207326694 233708614 52662037 -266688547 1276952611 -1691325740 79445459 517855741 623681432 1146312747 -617272981 -1795372992 60961906 -2060048984 1632981623 -1344600216 877154738 1298826721 540007407 1030309557 1790769432
REM
CELL 1.54180   50.00000   50.00000   50.00000   90.00000   90.00000   90.00000
LATT -1
SFAC C  
C      1  0.4653220000000  0.5333550000000  0.4623400000000 1.0
C      1  0.5346780000000  0.4667410000000  0.4622550000000 1.0
C      1  0.4653220000000  0.5332590000000  0.5377450000000 1.0
C      1  0.5346780000000  0.4666450000000  0.5376600000000 1.0
C      1  0.4828220000000  0.5006320000000  0.4323660000000 1.0
C      1  0.5171780000000  0.4995410000000  0.4323640000000 1.0
C      1  0.4828220000000  0.5004590000000  0.5676360000000 1.0
C      1  0.5171780000000  0.4993680000000  0.5676340000000 1.0
C      1  0.4856550000000  0.5466010000000  0.5505000000000 1.0
C      1  0.5143450000000  0.4532700000000  0.5503800000000 1.0
C      1  0.4856550000000  0.5467300000000  0.4496200000000 1.0
C      1  0.5143450000000  0.4533990000000  0.4495000000000 1.0
C      1  0.4821200000000  0.4544310000000  0.4491440000000 1.0
C      1  0.5178800000000  0.5456990000000  0.4492610000000 1.0
C      1  0.4821200000000  0.4543010000000  0.5507390000000 1.0
C      1  0.5178800000000  0.5455690000000  0.5508560000000 1.0
C      1  0.5407320000000  0.4850880000000  0.5130300000000 1.0
C      1  0.4592680000000  0.5148780000000  0.5130680000000 1.0
C      1  0.5407320000000  0.4851220000000  0.4869320000000 1.0
C      1  0.4592680000000  0.5149120000000  0.4869700000000 1.0
C      1  0.4614440000000  0.4684930000000  0.4600170000000 1.0
C      1  0.5385550000000  0.5316090000000  0.4600980000000 1.0
C      1  0.4614450000000  0.4683910000000  0.5399020000000 1.0
C      1  0.5385560000000  0.5315070000000  0.5399830000000 1.0
C      1  0.4627810000000  0.4997880000000  0.4568750000000 1.0
C      1  0.5372190000000  0.5003220000000  0.4568760000000 1.0
C      1  0.4627810000000  0.4996780000000  0.5431240000000 1.0
C      1  0.5372190000000  0.5002120000000  0.5431250000000 1.0
C      1  0.4992830000000  0.4716110000000  0.4260410000000 1.0
C      1  0.5007170000000  0.5285780000000  0.4261140000000 1.0
C      1  0.4992830000000  0.4714220000000  0.5738860000000 1.0
C      1  0.5007170000000  0.5283890000000  0.5739590000000 1.0
END
