TITL C-2782225-7408-1426 -1.20964630253932e-07 125000 -116.814683888047 0 0 20 (D3h) n - 1
REM
REM in /home/nfs/bkarasulu/CARBON/AIRSS/Generating-Clusters/REBO/Higher-Symm/SD-CG/HFTN-CG
REM
REM
REM
REM
REM
REM ./C.cell (12c818d87b63d06a65506943cc24bca4)
REM
REM compiler GCC version 9.2.1 20190827 (Red Hat 9.2.1-1)
REM options -cpp -mtune=generic -march=x86-64 -g -O0 -fpre-include=/usr/include/finclude/math-vector-fortran.h
REM seed -1803052693 -1820460804 -1113081570 263619031 -1050697344 -902182951 -692601354 1421070905 -2032263862 -1311234144 1031443988 -619267823 1976671558 184644834 860408515 513264479 -599192114 1762417910 -88142809 -787635279 -1805205196 998115634 -2087375709 -960957012 1243328221 -1019449041 158959503 -938161001 761854225 211247601 862286973 1376778504 -203618415
REM
CELL 1.54180   50.00000   50.00000   50.00000   90.00000   90.00000   90.00000
LATT -1
SFAC C  
C      1  0.4964460000000  0.5285480000000  0.5126700000000 1.0
C      1  0.5248890000000  0.4892780000000  0.5127510000000 1.0
C      1  0.4766590000000  0.4842810000000  0.5127180000000 1.0
C      1  0.4964710000000  0.5285060000000  0.4831840000000 1.0
C      1  0.5249140000000  0.4892360000000  0.4832640000000 1.0
C      1  0.4766840000000  0.4842380000000  0.4832310000000 1.0
C      1  0.4561070000000  0.4693080000000  0.4706700000000 1.0
C      1  0.4938610000000  0.5537730000000  0.4705800000000 1.0
C      1  0.5481320000000  0.4788450000000  0.4707330000000 1.0
C      1  0.4560610000000  0.4693870000000  0.5252870000000 1.0
C      1  0.4938150000000  0.5538520000000  0.5251970000000 1.0
C      1  0.5480870000000  0.4789230000000  0.5253500000000 1.0
C      1  0.5702090000000  0.4689910000000  0.4842120000000 1.0
C      1  0.4365020000000  0.4551360000000  0.4841200000000 1.0
C      1  0.4913560000000  0.5778570000000  0.4839900000000 1.0
C      1  0.5701860000000  0.4690310000000  0.5119360000000 1.0
C      1  0.4364780000000  0.4551750000000  0.5118440000000 1.0
C      1  0.4913330000000  0.5778970000000  0.5117140000000 1.0
C      1  0.4993640000000  0.5006460000000  0.4736230000000 1.0
C      1  0.4993240000000  0.5007160000000  0.5223160000000 1.0
END
