TITL C-2782227-3064-1297 0.00308802996882901 125000 -332.487912895359 0 0 57 (C3) n - 1
REM
REM in /home/nfs/bkarasulu/CARBON/AIRSS/Generating-Clusters/REBO/Higher-Symm/SD-CG/HFTN-CG
REM
REM
REM
REM
REM
REM ./C.cell (12c818d87b63d06a65506943cc24bca4)
REM
REM compiler GCC version 9.2.1 20190827 (Red Hat 9.2.1-1)
REM options -cpp -mtune=generic -march=x86-64 -g -O0 -fpre-include=/usr/include/finclude/math-vector-fortran.h
REM seed -973775278 -1300252862 1704614924 862073810 496947675 3195146 949893538 -1816044509 853492667 -1638233474 -177480586 2089642370 2125495894 -1323468554 -1230256091 -765629611 -2012043014 774783205 -1745168700 -1942737565 417258325 -1780322580 1579789192 -1644790254 -1673028073 406139760 263754031 -182883245 -473441028 -902183858 -1743203736 -1097104083 1698400147
REM
CELL 1.54180   50.00000   50.00000   50.00000   90.00000   90.00000   90.00000
LATT -1
SFAC C  
C      1  0.4434860000000  0.5263520000000  0.4936170000000 1.0
C      1  0.5053330000000  0.4378380000000  0.4939580000000 1.0
C      1  0.5510640000000  0.5356520000000  0.4928960000000 1.0
C      1  0.5614040000000  0.4440170000000  0.5137120000000 1.0
C      1  0.5179970000000  0.5812590000000  0.5128670000000 1.0
C      1  0.4208450000000  0.4750530000000  0.5143050000000 1.0
C      1  0.5775510000000  0.4919680000000  0.5197520000000 1.0
C      1  0.4684990000000  0.5713140000000  0.5197680000000 1.0
C      1  0.4543130000000  0.4372040000000  0.5209320000000 1.0
C      1  0.4527590000000  0.4985950000000  0.4814010000000 1.0
C      1  0.5245380000000  0.4596610000000  0.4812840000000 1.0
C      1  0.5223630000000  0.5412880000000  0.4806400000000 1.0
C      1  0.5489260000000  0.4461480000000  0.4674510000000 1.0
C      1  0.5216510000000  0.5690690000000  0.4666250000000 1.0
C      1  0.4288350000000  0.4839930000000  0.4678660000000 1.0
C      1  0.5643330000000  0.4564790000000  0.4463420000000 1.0
C      1  0.5046660000000  0.5771030000000  0.4457290000000 1.0
C      1  0.4300370000000  0.4651240000000  0.4470780000000 1.0
C      1  0.5468980000000  0.4836990000000  0.5286900000000 1.0
C      1  0.4911270000000  0.5489630000000  0.5284990000000 1.0
C      1  0.4624940000000  0.4680350000000  0.5293220000000 1.0
C      1  0.4915510000000  0.4724220000000  0.5453670000000 1.0
C      1  0.5288280000000  0.5067810000000  0.5448660000000 1.0
C      1  0.4804320000000  0.5218860000000  0.5450350000000 1.0
C      1  0.5879080000000  0.4698680000000  0.4504200000000 1.0
C      1  0.4813500000000  0.5908550000000  0.4500860000000 1.0
C      1  0.4298550000000  0.4380860000000  0.4516240000000 1.0
C      1  0.4563500000000  0.5748230000000  0.4919570000000 1.0
C      1  0.4569050000000  0.4247370000000  0.4931610000000 1.0
C      1  0.5866070000000  0.5002540000000  0.4917760000000 1.0
C      1  0.5740740000000  0.5238750000000  0.4826710000000 1.0
C      1  0.4420160000000  0.5520980000000  0.4832360000000 1.0
C      1  0.4836090000000  0.4236240000000  0.4840200000000 1.0
C      1  0.5972850000000  0.4836000000000  0.4720070000000 1.0
C      1  0.4651170000000  0.5922600000000  0.4719250000000 1.0
C      1  0.4371030000000  0.4234750000000  0.4734520000000 1.0
C      1  0.5114690000000  0.5274390000000  0.5453940000000 1.0
C      1  0.4712320000000  0.4965280000000  0.5458840000000 1.0
C      1  0.5181210000000  0.4771360000000  0.5457590000000 1.0
C      1  0.4454120000000  0.5247570000000  0.5235040000000 1.0
C      1  0.5062290000000  0.4405090000000  0.5238170000000 1.0
C      1  0.5487800000000  0.5352980000000  0.5227990000000 1.0
C      1  0.5804600000000  0.4603060000000  0.5250200000000 1.0
C      1  0.4945450000000  0.5896980000000  0.5244940000000 1.0
C      1  0.4254480000000  0.4506040000000  0.5260280000000 1.0
C      1  0.5267160000000  0.5891930000000  0.4867660000000 1.0
C      1  0.4091990000000  0.4784580000000  0.4883620000000 1.0
C      1  0.5638630000000  0.4320500000000  0.4878080000000 1.0
C      1  0.5658160000000  0.5182750000000  0.5353160000000 1.0
C      1  0.4518350000000  0.5481080000000  0.5357600000000 1.0
C      1  0.4829940000000  0.4344840000000  0.5364880000000 1.0
C      1  0.4468190000000  0.4927840000000  0.5145750000000 1.0
C      1  0.5330690000000  0.4576500000000  0.5143400000000 1.0
C      1  0.5203680000000  0.5499090000000  0.5136740000000 1.0
C      1  0.4813150000000  0.4981270000000  0.4734150000000 1.0
C      1  0.5105390000000  0.4845710000000  0.4733490000000 1.0
C      1  0.5076660000000  0.5166570000000  0.4731080000000 1.0
END
