TITL C-2782240-8521-313 0.00321785935528013 125000 -413.317397399808 0 0 74 (C1) n - 1
REM
REM in /home/nfs/bkarasulu/CARBON/AIRSS/Generating-Clusters/REBO/Higher-Symm/SD-CG/HFTN-CG
REM
REM
REM
REM
REM
REM ./C.cell (12c818d87b63d06a65506943cc24bca4)
REM
REM compiler GCC version 9.2.1 20190827 (Red Hat 9.2.1-1)
REM options -cpp -mtune=generic -march=x86-64 -g -O0 -fpre-include=/usr/include/finclude/math-vector-fortran.h
REM seed 804501083 -573076687 910715068 -1100209830 -1154860701 -69943919 1046079729 -1659056971 -2083353933 292481976 51854924 -764025622 -116247977 1437399248 1493522361 -1603766992 -649287602 -403098809 602591569 761780734 1954870334 500105168 102078025 399264778 893596543 -1972535123 -1897966369 -365222135 -30337183 2102267199 116698668 -1421525366 -924114125
REM
CELL 1.54180   50.00000   50.00000   50.00000   90.00000   90.00000   90.00000
LATT -1
SFAC C  
C      1  0.4639160000000  0.4762280000000  0.4539870000000 1.0
C      1  0.4684590000000  0.5225420000000  0.5418300000000 1.0
C      1  0.5360950000000  0.4735800000000  0.5507410000000 1.0
C      1  0.5346880000000  0.5283660000000  0.4532850000000 1.0
C      1  0.4639660000000  0.4543610000000  0.4746550000000 1.0
C      1  0.4661060000000  0.5478450000000  0.5232050000000 1.0
C      1  0.5340920000000  0.5524660000000  0.4730540000000 1.0
C      1  0.5342940000000  0.4512010000000  0.5293850000000 1.0
C      1  0.4741530000000  0.4525510000000  0.5286300000000 1.0
C      1  0.4785700000000  0.5453360000000  0.4801570000000 1.0
C      1  0.5284430000000  0.4565600000000  0.4775050000000 1.0
C      1  0.5209470000000  0.5430040000000  0.5178300000000 1.0
C      1  0.4739420000000  0.5306290000000  0.4526410000000 1.0
C      1  0.4813540000000  0.4764200000000  0.5467170000000 1.0
C      1  0.5233530000000  0.4770990000000  0.4569030000000 1.0
C      1  0.5274910000000  0.5203390000000  0.5392860000000 1.0
C      1  0.5613020000000  0.5208620000000  0.5420300000000 1.0
C      1  0.5563780000000  0.4770690000000  0.4576200000000 1.0
C      1  0.4423150000000  0.5315330000000  0.4443490000000 1.0
C      1  0.4482360000000  0.4709030000000  0.5525440000000 1.0
C      1  0.5538450000000  0.5458410000000  0.5237820000000 1.0
C      1  0.5609110000000  0.4529940000000  0.4807920000000 1.0
C      1  0.4417470000000  0.4486120000000  0.5273910000000 1.0
C      1  0.4452640000000  0.5486360000000  0.4735970000000 1.0
C      1  0.4555870000000  0.4280820000000  0.5035090000000 1.0
C      1  0.4550350000000  0.5736780000000  0.4948860000000 1.0
C      1  0.5458320000000  0.4280580000000  0.4988970000000 1.0
C      1  0.5442290000000  0.5729720000000  0.5056770000000 1.0
C      1  0.4563430000000  0.5052540000000  0.4275970000000 1.0
C      1  0.4586240000000  0.4975710000000  0.5714170000000 1.0
C      1  0.5462810000000  0.4969870000000  0.4314910000000 1.0
C      1  0.5484040000000  0.5062200000000  0.5700220000000 1.0
C      1  0.5219600000000  0.4898410000000  0.5241360000000 1.0
C      1  0.5129670000000  0.5051070000000  0.4646820000000 1.0
C      1  0.4828350000000  0.5023780000000  0.4638770000000 1.0
C      1  0.4896940000000  0.5006170000000  0.5268280000000 1.0
C      1  0.5150260000000  0.5287350000000  0.4880310000000 1.0
C      1  0.5143820000000  0.4627070000000  0.5047930000000 1.0
C      1  0.4844820000000  0.4626540000000  0.5006160000000 1.0
C      1  0.4864700000000  0.5262950000000  0.5064620000000 1.0
C      1  0.4820800000000  0.4829240000000  0.4264640000000 1.0
C      1  0.4842570000000  0.5202450000000  0.5705640000000 1.0
C      1  0.5223900000000  0.4851260000000  0.5773320000000 1.0
C      1  0.5201860000000  0.5184910000000  0.4256720000000 1.0
C      1  0.4822960000000  0.4273440000000  0.4820250000000 1.0
C      1  0.4801880000000  0.5761630000000  0.5180910000000 1.0
C      1  0.5191720000000  0.5791230000000  0.4831610000000 1.0
C      1  0.5185270000000  0.4241180000000  0.5191060000000 1.0
C      1  0.5774270000000  0.4721640000000  0.5035560000000 1.0
C      1  0.5708210000000  0.5240950000000  0.5033440000000 1.0
C      1  0.4197260000000  0.4666230000000  0.5086550000000 1.0
C      1  0.4220910000000  0.5322210000000  0.4926880000000 1.0
C      1  0.5715200000000  0.4976480000000  0.4809860000000 1.0
C      1  0.5768730000000  0.4970380000000  0.5233440000000 1.0
C      1  0.4227270000000  0.5162130000000  0.4675560000000 1.0
C      1  0.4260850000000  0.4851740000000  0.5310100000000 1.0
C      1  0.5638140000000  0.5525080000000  0.4864760000000 1.0
C      1  0.5651150000000  0.4468440000000  0.5195310000000 1.0
C      1  0.4359310000000  0.5511720000000  0.5120120000000 1.0
C      1  0.4345120000000  0.4497460000000  0.4882770000000 1.0
C      1  0.5670350000000  0.4835290000000  0.5524670000000 1.0
C      1  0.5644610000000  0.5153780000000  0.4536770000000 1.0
C      1  0.4392670000000  0.5087420000000  0.5456930000000 1.0
C      1  0.4356140000000  0.4931980000000  0.4517500000000 1.0
C      1  0.4889300000000  0.5162590000000  0.4268700000000 1.0
C      1  0.4911600000000  0.4871240000000  0.5755400000000 1.0
C      1  0.5159410000000  0.5176450000000  0.5690990000000 1.0
C      1  0.5139630000000  0.4852720000000  0.4274030000000 1.0
C      1  0.4876960000000  0.4256920000000  0.5154710000000 1.0
C      1  0.4877200000000  0.5762560000000  0.4846140000000 1.0
C      1  0.5116050000000  0.5739230000000  0.5163170000000 1.0
C      1  0.5140470000000  0.4276780000000  0.4856020000000 1.0
C      1  0.5395960000000  0.5025600000000  0.5006540000000 1.0
C      1  0.4743290000000  0.4896320000000  0.4901550000000 1.0
END
