TITL C-2782238-9940-247 0.000813350791629234 125000 -659.509734015202 0 0 116 (C1) n - 1
REM
REM in /home/nfs/bkarasulu/CARBON/AIRSS/Generating-Clusters/REBO/Higher-Symm/SD-CG/HFTN-CG
REM
REM
REM
REM
REM
REM ./C.cell (12c818d87b63d06a65506943cc24bca4)
REM
REM compiler GCC version 9.2.1 20190827 (Red Hat 9.2.1-1)
REM options -cpp -mtune=generic -march=x86-64 -g -O0 -fpre-include=/usr/include/finclude/math-vector-fortran.h
REM seed 558333154 -203150279 408360965 71085880 -696137589 -427074574 -2106153627 1682549541 316382756 -2058053395 1911890810 504363478 1013589317 -1090378664 1931077099 497501068 194041816 361874294 1087245930 -2081180112 -893023907 -1461258534 877171085 -339645641 -1328080271 1704082248 -350937576 905778461 -1937642545 -1334013214 -1685868955 1802539232 -1773914958
REM
CELL 1.54180   50.00000   50.00000   50.00000   90.00000   90.00000   90.00000
LATT -1
SFAC C  
C      1  0.5494890000000  0.5846040000000  0.4799810000000 1.0
C      1  0.5476520000000  0.5068660000000  0.4142710000000 1.0
C      1  0.5468610000000  0.4203430000000  0.4664240000000 1.0
C      1  0.5501080000000  0.4433620000000  0.5654250000000 1.0
C      1  0.5484750000000  0.5446290000000  0.5729730000000 1.0
C      1  0.4512330000000  0.5619630000000  0.5367600000000 1.0
C      1  0.4515220000000  0.5583910000000  0.4500310000000 1.0
C      1  0.4496400000000  0.4731080000000  0.4355800000000 1.0
C      1  0.4500070000000  0.4253590000000  0.5087000000000 1.0
C      1  0.4525060000000  0.4838430000000  0.5719370000000 1.0
C      1  0.5772300000000  0.5154180000000  0.4540250000000 1.0
C      1  0.5767600000000  0.4611330000000  0.4705040000000 1.0
C      1  0.5778570000000  0.4600800000000  0.5270450000000 1.0
C      1  0.5776550000000  0.5138620000000  0.5455510000000 1.0
C      1  0.5777280000000  0.5480870000000  0.5003920000000 1.0
C      1  0.5055220000000  0.5666460000000  0.4623070000000 1.0
C      1  0.5032860000000  0.4855270000000  0.4283660000000 1.0
C      1  0.5033260000000  0.4256580000000  0.4929770000000 1.0
C      1  0.5063700000000  0.4686710000000  0.5688710000000 1.0
C      1  0.5040960000000  0.5541790000000  0.5480820000000 1.0
C      1  0.4543630000000  0.5020010000000  0.4662180000000 1.0
C      1  0.4533200000000  0.4646390000000  0.5023340000000 1.0
C      1  0.4599870000000  0.4839880000000  0.5265370000000 1.0
C      1  0.4535070000000  0.5167200000000  0.5296750000000 1.0
C      1  0.4559480000000  0.5323730000000  0.4799990000000 1.0
C      1  0.4680820000000  0.4200520000000  0.5601410000000 1.0
C      1  0.4668140000000  0.5320810000000  0.5943700000000 1.0
C      1  0.4671520000000  0.5994570000000  0.4999810000000 1.0
C      1  0.4663070000000  0.5301200000000  0.4055060000000 1.0
C      1  0.4638980000000  0.4209400000000  0.4439670000000 1.0
C      1  0.4798640000000  0.4511360000000  0.4925030000000 1.0
C      1  0.4833880000000  0.4749210000000  0.5440350000000 1.0
C      1  0.4786570000000  0.5317640000000  0.5378350000000 1.0
C      1  0.4821520000000  0.5464950000000  0.4775020000000 1.0
C      1  0.4801030000000  0.4963930000000  0.4519480000000 1.0
C      1  0.4501670000000  0.5109850000000  0.5736050000000 1.0
C      1  0.4499430000000  0.5726510000000  0.5115880000000 1.0
C      1  0.4492770000000  0.5365190000000  0.4339300000000 1.0
C      1  0.4476240000000  0.4499960000000  0.4500760000000 1.0
C      1  0.4493770000000  0.4326330000000  0.5349820000000 1.0
C      1  0.4542000000000  0.4510070000000  0.5632320000000 1.0
C      1  0.4527360000000  0.5440140000000  0.5656700000000 1.0
C      1  0.4531020000000  0.5775340000000  0.4780240000000 1.0
C      1  0.4516470000000  0.5044990000000  0.4225850000000 1.0
C      1  0.4503590000000  0.4266250000000  0.4747240000000 1.0
C      1  0.4777180000000  0.4661330000000  0.5822510000000 1.0
C      1  0.4764560000000  0.5664530000000  0.5564210000000 1.0
C      1  0.4770490000000  0.5779610000000  0.4538890000000 1.0
C      1  0.4745780000000  0.4804230000000  0.4161500000000 1.0
C      1  0.4748410000000  0.4118000000000  0.4931190000000 1.0
C      1  0.5616780000000  0.4412330000000  0.5379990000000 1.0
C      1  0.5613250000000  0.5185170000000  0.5667540000000 1.0
C      1  0.5615030000000  0.5697800000000  0.5028610000000 1.0
C      1  0.5606370000000  0.5243970000000  0.4345340000000 1.0
C      1  0.5596680000000  0.4452940000000  0.4564420000000 1.0
C      1  0.5175500000000  0.5566080000000  0.4927680000000 1.0
C      1  0.5162360000000  0.5120530000000  0.4455390000000 1.0
C      1  0.5150990000000  0.4512040000000  0.4736730000000 1.0
C      1  0.5188230000000  0.4575720000000  0.5389570000000 1.0
C      1  0.5169090000000  0.5230340000000  0.5515190000000 1.0
C      1  0.4098210000000  0.4465950000000  0.4868600000000 1.0
C      1  0.3958460000000  0.4774450000000  0.5348730000000 1.0
C      1  0.4045400000000  0.5359660000000  0.5301830000000 1.0
C      1  0.4033850000000  0.5402360000000  0.4737970000000 1.0
C      1  0.4068160000000  0.4863590000000  0.4467860000000 1.0
C      1  0.5905970000000  0.4905340000000  0.5259320000000 1.0
C      1  0.5905780000000  0.5221270000000  0.5163210000000 1.0
C      1  0.5904580000000  0.5227010000000  0.4833440000000 1.0
C      1  0.5901730000000  0.4913850000000  0.4725090000000 1.0
C      1  0.5903890000000  0.4715430000000  0.4988120000000 1.0
C      1  0.4962400000000  0.4183440000000  0.4384890000000 1.0
C      1  0.5005210000000  0.4145240000000  0.5608260000000 1.0
C      1  0.4995250000000  0.5302740000000  0.5998420000000 1.0
C      1  0.4996940000000  0.6042360000000  0.5017550000000 1.0
C      1  0.4987620000000  0.5346950000000  0.4021820000000 1.0
C      1  0.5461750000000  0.5726680000000  0.5293340000000 1.0
C      1  0.5462760000000  0.5510400000000  0.4397670000000 1.0
C      1  0.5439190000000  0.4587040000000  0.4340780000000 1.0
C      1  0.5461940000000  0.4229180000000  0.5184230000000 1.0
C      1  0.5468050000000  0.4943370000000  0.5784660000000 1.0
C      1  0.5348550000000  0.4825420000000  0.4231870000000 1.0
C      1  0.5353480000000  0.4204580000000  0.4928960000000 1.0
C      1  0.5379780000000  0.4684370000000  0.5734250000000 1.0
C      1  0.5359600000000  0.5591990000000  0.5514080000000 1.0
C      1  0.5372760000000  0.5692780000000  0.4587320000000 1.0
C      1  0.4969210000000  0.4866190000000  0.4765680000000 1.0
C      1  0.4965020000000  0.4738260000000  0.5062680000000 1.0
C      1  0.4972550000000  0.4982190000000  0.5273400000000 1.0
C      1  0.4979330000000  0.5276590000000  0.5121260000000 1.0
C      1  0.4973140000000  0.5192300000000  0.4799910000000 1.0
C      1  0.4886360000000  0.4424600000000  0.5447980000000 1.0
C      1  0.4874340000000  0.5243450000000  0.5684250000000 1.0
C      1  0.4876620000000  0.5723710000000  0.4974010000000 1.0
C      1  0.4867130000000  0.5215260000000  0.4314070000000 1.0
C      1  0.4849780000000  0.4413540000000  0.4613150000000 1.0
C      1  0.5237190000000  0.5146430000000  0.5816090000000 1.0
C      1  0.5239810000000  0.5821690000000  0.5104820000000 1.0
C      1  0.5232740000000  0.5361790000000  0.4257770000000 1.0
C      1  0.5209810000000  0.4409660000000  0.4442170000000 1.0
C      1  0.5246550000000  0.4262670000000  0.5400120000000 1.0
C      1  0.5323800000000  0.4183240000000  0.5721620000000 1.0
C      1  0.5310490000000  0.5430040000000  0.5989490000000 1.0
C      1  0.5313570000000  0.6082310000000  0.4899370000000 1.0
C      1  0.5299890000000  0.5236850000000  0.3947760000000 1.0
C      1  0.5278760000000  0.4076630000000  0.4449650000000 1.0
C      1  0.5298500000000  0.5090600000000  0.5267640000000 1.0
C      1  0.5301890000000  0.5288090000000  0.5000270000000 1.0
C      1  0.5296690000000  0.5088250000000  0.4736190000000 1.0
C      1  0.5292130000000  0.4771210000000  0.4840330000000 1.0
C      1  0.5292410000000  0.4770450000000  0.5171010000000 1.0
C      1  0.4244880000000  0.4912240000000  0.4707100000000 1.0
C      1  0.4242960000000  0.4698550000000  0.4931190000000 1.0
C      1  0.4125020000000  0.4868210000000  0.5167810000000 1.0
C      1  0.4231050000000  0.5161570000000  0.5160090000000 1.0
C      1  0.4247540000000  0.5214930000000  0.4846630000000 1.0
C      1  0.4575310000000  0.5042820000000  0.4993400000000 1.0
END
