TITL C-2782232-2968-1409 -0.00057749930895111 125000 -589.012485045137 0 0 102 (C1) n - 1
REM
REM in /home/nfs/bkarasulu/CARBON/AIRSS/Generating-Clusters/REBO/Higher-Symm/SD-CG/HFTN-CG
REM
REM
REM
REM
REM
REM ./C.cell (12c818d87b63d06a65506943cc24bca4)
REM
REM compiler GCC version 9.2.1 20190827 (Red Hat 9.2.1-1)
REM options -cpp -mtune=generic -march=x86-64 -g -O0 -fpre-include=/usr/include/finclude/math-vector-fortran.h
REM seed -102489295 397676257 -582886174 -1268760583 -1518079785 -2035371724 -672635455 -286533767 -1033729462 2078539076 -219219713 -1071068452 1302383079 -2006250287 -639298354 -1493389090 -905238232 1990271067 1155911953 -1903983553 -1708535390 1733333324 530699284 -1046706617 1370542482 -1081684962 -684948510 -1963864876 -35541026 1679889089 477580590 -1966837306 186136506
REM
CELL 1.54180   50.00000   50.00000   50.00000   90.00000   90.00000   90.00000
LATT -1
SFAC C  
C      1  0.5438400000000  0.4690830000000  0.5481780000000 1.0
C      1  0.5492020000000  0.5203270000000  0.5661670000000 1.0
C      1  0.4983510000000  0.5738290000000  0.4529810000000 1.0
C      1  0.5001530000000  0.4245220000000  0.4530050000000 1.0
C      1  0.4492910000000  0.4342690000000  0.5315150000000 1.0
C      1  0.4508420000000  0.5672260000000  0.5320470000000 1.0
C      1  0.4847090000000  0.4289500000000  0.5845180000000 1.0
C      1  0.4878360000000  0.5785090000000  0.5831170000000 1.0
C      1  0.4924390000000  0.4583950000000  0.4872440000000 1.0
C      1  0.4907040000000  0.5390440000000  0.4877790000000 1.0
C      1  0.4785450000000  0.4818300000000  0.4238700000000 1.0
C      1  0.4764520000000  0.5135160000000  0.4251960000000 1.0
C      1  0.5705470000000  0.4634320000000  0.5193900000000 1.0
C      1  0.5660720000000  0.5404150000000  0.5250970000000 1.0
C      1  0.4993950000000  0.4294400000000  0.5546130000000 1.0
C      1  0.5018110000000  0.5730460000000  0.5533330000000 1.0
C      1  0.4341080000000  0.4482940000000  0.4743800000000 1.0
C      1  0.4333420000000  0.5509860000000  0.4748890000000 1.0
C      1  0.4697330000000  0.5832350000000  0.4885480000000 1.0
C      1  0.4709840000000  0.4158440000000  0.4882700000000 1.0
C      1  0.4308480000000  0.4829030000000  0.4778300000000 1.0
C      1  0.4311310000000  0.5170590000000  0.4791050000000 1.0
C      1  0.5430130000000  0.4504940000000  0.4812850000000 1.0
C      1  0.5538040000000  0.5460300000000  0.4875300000000 1.0
C      1  0.5977380000000  0.4872070000000  0.4813390000000 1.0
C      1  0.5974720000000  0.5147550000000  0.4829600000000 1.0
C      1  0.4885460000000  0.5146280000000  0.5100570000000 1.0
C      1  0.4874010000000  0.4850800000000  0.5074140000000 1.0
C      1  0.5339170000000  0.4239570000000  0.4989290000000 1.0
C      1  0.5324120000000  0.5687750000000  0.4933910000000 1.0
C      1  0.4635160000000  0.4838960000000  0.5810690000000 1.0
C      1  0.4706030000000  0.5153960000000  0.5763650000000 1.0
C      1  0.4342920000000  0.4836460000000  0.5684180000000 1.0
C      1  0.4456950000000  0.5109920000000  0.5581070000000 1.0
C      1  0.5492850000000  0.4870930000000  0.4617370000000 1.0
C      1  0.5520890000000  0.5182180000000  0.4592210000000 1.0
C      1  0.5720280000000  0.4474490000000  0.4730100000000 1.0
C      1  0.5805250000000  0.5598780000000  0.4714150000000 1.0
C      1  0.5252830000000  0.5176880000000  0.5447320000000 1.0
C      1  0.5176420000000  0.4868170000000  0.5450720000000 1.0
C      1  0.4445490000000  0.5657780000000  0.4986150000000 1.0
C      1  0.4456610000000  0.4335520000000  0.4979440000000 1.0
C      1  0.4524480000000  0.4389250000000  0.4464420000000 1.0
C      1  0.4516440000000  0.5594870000000  0.4470230000000 1.0
C      1  0.5192600000000  0.4020400000000  0.5171330000000 1.0
C      1  0.5221430000000  0.5948800000000  0.5116770000000 1.0
C      1  0.4734900000000  0.5440150000000  0.4273580000000 1.0
C      1  0.4752830000000  0.4535320000000  0.4258500000000 1.0
C      1  0.5261230000000  0.4537830000000  0.4257750000000 1.0
C      1  0.5244110000000  0.5502100000000  0.4204590000000 1.0
C      1  0.5182440000000  0.4051790000000  0.5445420000000 1.0
C      1  0.5234320000000  0.5936690000000  0.5396050000000 1.0
C      1  0.4715950000000  0.5806400000000  0.4603900000000 1.0
C      1  0.4734960000000  0.4184460000000  0.4602510000000 1.0
C      1  0.4231060000000  0.5430240000000  0.4438540000000 1.0
C      1  0.4236600000000  0.4566920000000  0.4433320000000 1.0
C      1  0.5090610000000  0.5595970000000  0.5244210000000 1.0
C      1  0.5088820000000  0.4397460000000  0.5251940000000 1.0
C      1  0.4966200000000  0.5183230000000  0.5576420000000 1.0
C      1  0.4893050000000  0.4847130000000  0.5592640000000 1.0
C      1  0.5873450000000  0.4610770000000  0.4966870000000 1.0
C      1  0.5853140000000  0.5412080000000  0.4999770000000 1.0
C      1  0.5054600000000  0.5220680000000  0.4415810000000 1.0
C      1  0.5036310000000  0.4906880000000  0.4432270000000 1.0
C      1  0.4731340000000  0.4646680000000  0.5411640000000 1.0
C      1  0.4777740000000  0.5399650000000  0.5424400000000 1.0
C      1  0.5150380000000  0.4722230000000  0.5169280000000 1.0
C      1  0.5177980000000  0.5280060000000  0.5150500000000 1.0
C      1  0.5130850000000  0.4387160000000  0.4763560000000 1.0
C      1  0.5098470000000  0.5596290000000  0.4753840000000 1.0
C      1  0.5665670000000  0.4896770000000  0.5334600000000 1.0
C      1  0.5650610000000  0.5168470000000  0.5408430000000 1.0
C      1  0.4348110000000  0.4740100000000  0.5061440000000 1.0
C      1  0.4363870000000  0.5275440000000  0.5070900000000 1.0
C      1  0.5294440000000  0.4763080000000  0.4409540000000 1.0
C      1  0.5347730000000  0.5308110000000  0.4387700000000 1.0
C      1  0.4936040000000  0.5822910000000  0.5038370000000 1.0
C      1  0.4947980000000  0.4165850000000  0.5040480000000 1.0
C      1  0.5361710000000  0.4817780000000  0.4928460000000 1.0
C      1  0.5381610000000  0.5158440000000  0.4905930000000 1.0
C      1  0.5012960000000  0.4395400000000  0.4287940000000 1.0
C      1  0.4985020000000  0.5594810000000  0.4276940000000 1.0
C      1  0.4688530000000  0.5672030000000  0.5586010000000 1.0
C      1  0.4667360000000  0.4370080000000  0.5580450000000 1.0
C      1  0.4711340000000  0.5500550000000  0.5106340000000 1.0
C      1  0.4724610000000  0.4486020000000  0.5109290000000 1.0
C      1  0.4862940000000  0.4250920000000  0.6097740000000 1.0
C      1  0.4902040000000  0.5860560000000  0.6074650000000 1.0
C      1  0.4280250000000  0.5155720000000  0.4392670000000 1.0
C      1  0.4287600000000  0.4861680000000  0.4379720000000 1.0
C      1  0.4566500000000  0.4836730000000  0.5209340000000 1.0
C      1  0.4580680000000  0.5161220000000  0.5272120000000 1.0
C      1  0.4842480000000  0.4822520000000  0.4677020000000 1.0
C      1  0.4846990000000  0.5166880000000  0.4667670000000 1.0
C      1  0.5778760000000  0.4746820000000  0.4605950000000 1.0
C      1  0.5801260000000  0.5294970000000  0.4623820000000 1.0
C      1  0.4551500000000  0.5080040000000  0.4585030000000 1.0
C      1  0.4560250000000  0.4758050000000  0.4561750000000 1.0
C      1  0.5518710000000  0.5002800000000  0.5862920000000 1.0
C      1  0.5508600000000  0.4736100000000  0.5786580000000 1.0
C      1  0.5430470000000  0.5575330000000  0.5239280000000 1.0
C      1  0.5429050000000  0.4447520000000  0.5244050000000 1.0
END
