TITL C-2782230-7391-1012 0.00041447717994198 125000 -270.415966120958 0 0 47 (C1) n - 1
REM
REM in /home/nfs/bkarasulu/CARBON/AIRSS/Generating-Clusters/REBO/Higher-Symm/SD-CG/HFTN-CG
REM
REM
REM
REM
REM
REM ./C.cell (12c818d87b63d06a65506943cc24bca4)
REM
REM compiler GCC version 9.2.1 20190827 (Red Hat 9.2.1-1)
REM options -cpp -mtune=generic -march=x86-64 -g -O0 -fpre-include=/usr/include/finclude/math-vector-fortran.h
REM seed 1514707680 454804759 649187678 1496813264 -964658544 -201801790 1218230436 -638098324 114267018 80393994 365558025 -900689563 -1340526535 1453463656 1546102222 1992704929 1194407909 -1846436114 5392401 -1020611615 -1229280537 1320058928 355181679 508229168 -255414514 1795076247 -1903384260 -2047141055 -683607782 713674836 -202812038 -554531519 1451579483
REM
CELL 1.54180   50.00000   50.00000   50.00000   90.00000   90.00000   90.00000
LATT -1
SFAC C  
C      1  0.5423940000000  0.5367570000000  0.4862750000000 1.0
C      1  0.4668880000000  0.4751460000000  0.5648310000000 1.0
C      1  0.5178800000000  0.4720160000000  0.5443890000000 1.0
C      1  0.4243790000000  0.4730000000000  0.4963900000000 1.0
C      1  0.5490700000000  0.4626290000000  0.4584330000000 1.0
C      1  0.5410580000000  0.5195950000000  0.5502050000000 1.0
C      1  0.5483200000000  0.4872500000000  0.5436590000000 1.0
C      1  0.5627220000000  0.5040530000000  0.5211650000000 1.0
C      1  0.4858790000000  0.4613390000000  0.5435360000000 1.0
C      1  0.4566640000000  0.5039050000000  0.4599820000000 1.0
C      1  0.4930080000000  0.5176910000000  0.5236240000000 1.0
C      1  0.5658570000000  0.4718940000000  0.4793640000000 1.0
C      1  0.4964710000000  0.5040370000000  0.4935400000000 1.0
C      1  0.5008620000000  0.5244260000000  0.4718960000000 1.0
C      1  0.5243420000000  0.5255860000000  0.5124740000000 1.0
C      1  0.4646710000000  0.4788000000000  0.5250760000000 1.0
C      1  0.4164130000000  0.5671760000000  0.5441820000000 1.0
C      1  0.5537210000000  0.5368470000000  0.5245420000000 1.0
C      1  0.5380440000000  0.4480720000000  0.5195730000000 1.0
C      1  0.4800990000000  0.4912180000000  0.4499250000000 1.0
C      1  0.4766080000000  0.4596310000000  0.4804580000000 1.0
C      1  0.5094900000000  0.4405380000000  0.5334460000000 1.0
C      1  0.4564710000000  0.5352700000000  0.4688520000000 1.0
C      1  0.4637320000000  0.5120150000000  0.5315160000000 1.0
C      1  0.4334020000000  0.4934500000000  0.4794260000000 1.0
C      1  0.5516670000000  0.4768360000000  0.4329460000000 1.0
C      1  0.5062930000000  0.4810520000000  0.4450160000000 1.0
C      1  0.5160760000000  0.5759700000000  0.5003010000000 1.0
C      1  0.5285310000000  0.4943150000000  0.4299170000000 1.0
C      1  0.5194190000000  0.4594800000000  0.4617040000000 1.0
C      1  0.4578480000000  0.4980940000000  0.5596890000000 1.0
C      1  0.5398750000000  0.5615410000000  0.5055440000000 1.0
C      1  0.4933710000000  0.5694280000000  0.4858810000000 1.0
C      1  0.5015470000000  0.4459850000000  0.4792970000000 1.0
C      1  0.4363260000000  0.4666440000000  0.5203280000000 1.0
C      1  0.5131590000000  0.5050430000000  0.5447920000000 1.0
C      1  0.5386260000000  0.4706650000000  0.5086100000000 1.0
C      1  0.4290510000000  0.5481420000000  0.5313440000000 1.0
C      1  0.4424050000000  0.5280280000000  0.5177780000000 1.0
C      1  0.4824450000000  0.5463550000000  0.4731340000000 1.0
C      1  0.5069130000000  0.4301350000000  0.5023270000000 1.0
C      1  0.5330180000000  0.5217060000000  0.4365470000000 1.0
C      1  0.5719880000000  0.4902020000000  0.4985520000000 1.0
C      1  0.4751230000000  0.4820860000000  0.4955780000000 1.0
C      1  0.4381690000000  0.5223180000000  0.4900670000000 1.0
C      1  0.5221620000000  0.4934940000000  0.5109210000000 1.0
C      1  0.5275450000000  0.5301400000000  0.4629710000000 1.0
END
