TITL C-2782240-8521-1431 0.00216418721807943 125000 -444.472352109134 0 0 80 (C1) n - 1
REM
REM in /home/nfs/bkarasulu/CARBON/AIRSS/Generating-Clusters/REBO/Higher-Symm/SD-CG/HFTN-CG
REM
REM
REM
REM
REM
REM ./C.cell (12c818d87b63d06a65506943cc24bca4)
REM
REM compiler GCC version 9.2.1 20190827 (Red Hat 9.2.1-1)
REM options -cpp -mtune=generic -march=x86-64 -g -O0 -fpre-include=/usr/include/finclude/math-vector-fortran.h
REM seed -1318339948 -1635994587 220368423 1367557489 -1850561983 -777517050 -662252180 -638740775 545797101 -301461480 -1878934410 -2034937884 -1167379367 -602706880 -1383596602 568910432 1229515447 293515590 64584508 607212809 -1136317938 197608054 494836371 740093401 749501590 289116772 1006533402 -1762398562 -1113655267 -839402476 750626613 961633278 18766569
REM
CELL 1.54180   50.00000   50.00000   50.00000   90.00000   90.00000   90.00000
LATT -1
SFAC C  
C      1  0.4568250000000  0.4320650000000  0.4837850000000 1.0
C      1  0.5553810000000  0.5566210000000  0.4806750000000 1.0
C      1  0.4502970000000  0.5631330000000  0.4868560000000 1.0
C      1  0.5461510000000  0.4399310000000  0.4795950000000 1.0
C      1  0.5163380000000  0.4255850000000  0.4402820000000 1.0
C      1  0.4851180000000  0.5639170000000  0.4672290000000 1.0
C      1  0.5190340000000  0.5664090000000  0.4675550000000 1.0
C      1  0.4822210000000  0.4267110000000  0.4410950000000 1.0
C      1  0.4225900000000  0.4796520000000  0.5540090000000 1.0
C      1  0.5750010000000  0.5272850000000  0.5745220000000 1.0
C      1  0.4246020000000  0.5258530000000  0.5501260000000 1.0
C      1  0.5777090000000  0.4808970000000  0.5725820000000 1.0
C      1  0.5330700000000  0.4507120000000  0.5056250000000 1.0
C      1  0.4752670000000  0.5494550000000  0.5031870000000 1.0
C      1  0.5354040000000  0.5410720000000  0.5018360000000 1.0
C      1  0.4709800000000  0.4449040000000  0.5086460000000 1.0
C      1  0.5227370000000  0.5237260000000  0.4223830000000 1.0
C      1  0.4626760000000  0.4761380000000  0.4105580000000 1.0
C      1  0.5170780000000  0.4846570000000  0.4278820000000 1.0
C      1  0.4689200000000  0.5218720000000  0.4225240000000 1.0
C      1  0.4722990000000  0.5194920000000  0.5687570000000 1.0
C      1  0.5278850000000  0.4875520000000  0.5827410000000 1.0
C      1  0.4703150000000  0.4856570000000  0.5722390000000 1.0
C      1  0.5241460000000  0.5193670000000  0.5844560000000 1.0
C      1  0.5366370000000  0.5381790000000  0.4620040000000 1.0
C      1  0.4609550000000  0.4469090000000  0.4582230000000 1.0
C      1  0.5332540000000  0.4498650000000  0.4542900000000 1.0
C      1  0.4603950000000  0.5405640000000  0.4671410000000 1.0
C      1  0.4364580000000  0.4852880000000  0.4187670000000 1.0
C      1  0.5535900000000  0.5186650000000  0.4271460000000 1.0
C      1  0.4384180000000  0.5164460000000  0.4245840000000 1.0
C      1  0.5464900000000  0.4881350000000  0.4278380000000 1.0
C      1  0.4271510000000  0.5192020000000  0.4531330000000 1.0
C      1  0.5698860000000  0.4896710000000  0.4490160000000 1.0
C      1  0.4291340000000  0.4868920000000  0.4493220000000 1.0
C      1  0.5717960000000  0.5218720000000  0.4525060000000 1.0
C      1  0.5493080000000  0.5233440000000  0.5656300000000 1.0
C      1  0.4496750000000  0.4813630000000  0.5492730000000 1.0
C      1  0.5506410000000  0.4834230000000  0.5640210000000 1.0
C      1  0.4513780000000  0.5211350000000  0.5458020000000 1.0
C      1  0.4708130000000  0.5168030000000  0.4974980000000 1.0
C      1  0.5291400000000  0.4828550000000  0.4952270000000 1.0
C      1  0.4664960000000  0.4772330000000  0.4990300000000 1.0
C      1  0.5432670000000  0.5096370000000  0.5084020000000 1.0
C      1  0.4810600000000  0.4325460000000  0.5355750000000 1.0
C      1  0.5302240000000  0.5590560000000  0.5265620000000 1.0
C      1  0.4836380000000  0.5672200000000  0.5260990000000 1.0
C      1  0.5284460000000  0.4367210000000  0.5328410000000 1.0
C      1  0.4786830000000  0.5451160000000  0.4401690000000 1.0
C      1  0.5069940000000  0.4571320000000  0.4336540000000 1.0
C      1  0.4751500000000  0.4562470000000  0.4286890000000 1.0
C      1  0.5104520000000  0.5465000000000  0.4417310000000 1.0
C      1  0.4520030000000  0.5092590000000  0.4728740000000 1.0
C      1  0.5440800000000  0.4777670000000  0.4663830000000 1.0
C      1  0.4511760000000  0.4753290000000  0.4696430000000 1.0
C      1  0.5484080000000  0.5108170000000  0.4747990000000 1.0
C      1  0.5449520000000  0.5045050000000  0.5395220000000 1.0
C      1  0.4592280000000  0.4988400000000  0.5224130000000 1.0
C      1  0.5042220000000  0.4519370000000  0.5519210000000 1.0
C      1  0.5041870000000  0.5498770000000  0.5469120000000 1.0
C      1  0.5062870000000  0.4168310000000  0.5334080000000 1.0
C      1  0.5100400000000  0.5807210000000  0.5224900000000 1.0
C      1  0.5068490000000  0.5011720000000  0.4022590000000 1.0
C      1  0.4786150000000  0.4991930000000  0.4033980000000 1.0
C      1  0.4983780000000  0.3989470000000  0.4381620000000 1.0
C      1  0.5005410000000  0.5861670000000  0.4849460000000 1.0
C      1  0.5001530000000  0.4562770000000  0.5005300000000 1.0
C      1  0.5041240000000  0.5368480000000  0.4899560000000 1.0
C      1  0.5076250000000  0.4722840000000  0.5271800000000 1.0
C      1  0.5038880000000  0.5282310000000  0.5222520000000 1.0
C      1  0.4968660000000  0.4869920000000  0.4878800000000 1.0
C      1  0.4933570000000  0.5126890000000  0.4709760000000 1.0
C      1  0.4085590000000  0.5036190000000  0.5545950000000 1.0
C      1  0.5907730000000  0.5047460000000  0.5783380000000 1.0
C      1  0.5007020000000  0.4706610000000  0.5753180000000 1.0
C      1  0.4979030000000  0.5376310000000  0.5727460000000 1.0
C      1  0.4980910000000  0.4999860000000  0.5597210000000 1.0
C      1  0.5084050000000  0.5431710000000  0.6029300000000 1.0
C      1  0.5135150000000  0.5017840000000  0.5338610000000 1.0
C      1  0.4962530000000  0.5093250000000  0.4397590000000 1.0
END
