TITL C-2782227-3064-891 0.000208542341906934 125000 -256.503371071195 0 0 49 (C1) n - 1
REM
REM in /home/nfs/bkarasulu/CARBON/AIRSS/Generating-Clusters/REBO/Higher-Symm/SD-CG/HFTN-CG
REM
REM
REM
REM
REM
REM ./C.cell (12c818d87b63d06a65506943cc24bca4)
REM
REM compiler GCC version 9.2.1 20190827 (Red Hat 9.2.1-1)
REM options -cpp -mtune=generic -march=x86-64 -g -O0 -fpre-include=/usr/include/finclude/math-vector-fortran.h
REM seed -350905716 1962893296 -2029017307 -589929218 -40160245 -577095862 -1697212394 -1178867385 -1289930902 -377524932 -487785303 90947910 666604780 -1353569377 -2079307668 -537519132 566865908 913107423 -1840566192 -222511312 -1207201158 -456463298 1617304568 1203935909 2092866188 -1829179881 2132609207 -1821740413 80744569 -195029142 -499212185 1923887477 1743813169
REM
CELL 1.54180   50.00000   50.00000   50.00000   90.00000   90.00000   90.00000
LATT -1
SFAC C  
C      1  0.4161840000000  0.5439690000000  0.4873020000000 1.0
C      1  0.5644390000000  0.5566860000000  0.5135460000000 1.0
C      1  0.4853400000000  0.5234620000000  0.5119540000000 1.0
C      1  0.5003690000000  0.5400400000000  0.4525470000000 1.0
C      1  0.4549990000000  0.5126140000000  0.5085300000000 1.0
C      1  0.5347280000000  0.5183030000000  0.4897310000000 1.0
C      1  0.5123990000000  0.4908450000000  0.5886500000000 1.0
C      1  0.4916940000000  0.4961070000000  0.4129710000000 1.0
C      1  0.5241450000000  0.4754420000000  0.4652750000000 1.0
C      1  0.4771110000000  0.4772620000000  0.5383920000000 1.0
C      1  0.5314370000000  0.5517670000000  0.4681600000000 1.0
C      1  0.4613720000000  0.5503280000000  0.5193890000000 1.0
C      1  0.4838750000000  0.5612690000000  0.4721310000000 1.0
C      1  0.5134970000000  0.5423790000000  0.5151090000000 1.0
C      1  0.4953270000000  0.4863740000000  0.3882100000000 1.0
C      1  0.5004370000000  0.4800090000000  0.6101230000000 1.0
C      1  0.5106290000000  0.4263130000000  0.4546170000000 1.0
C      1  0.4927850000000  0.4298400000000  0.5528210000000 1.0
C      1  0.5365940000000  0.5020480000000  0.4646660000000 1.0
C      1  0.4625410000000  0.5027970000000  0.5374520000000 1.0
C      1  0.4377400000000  0.5369000000000  0.5011800000000 1.0
C      1  0.5484500000000  0.5447420000000  0.4959530000000 1.0
C      1  0.4635050000000  0.5311090000000  0.5443900000000 1.0
C      1  0.5379210000000  0.5267900000000  0.4499630000000 1.0
C      1  0.5759790000000  0.4619060000000  0.5557970000000 1.0
C      1  0.4236950000000  0.4912310000000  0.4463270000000 1.0
C      1  0.4491860000000  0.4914660000000  0.4451410000000 1.0
C      1  0.5530180000000  0.4729920000000  0.5568800000000 1.0
C      1  0.4875290000000  0.4734950000000  0.4936950000000 1.0
C      1  0.5128520000000  0.4747530000000  0.5084350000000 1.0
C      1  0.4932690000000  0.4782040000000  0.4661700000000 1.0
C      1  0.5076660000000  0.4809300000000  0.5355160000000 1.0
C      1  0.4794190000000  0.4917440000000  0.4437340000000 1.0
C      1  0.5258200000000  0.4861240000000  0.5581630000000 1.0
C      1  0.4839780000000  0.5671410000000  0.5058060000000 1.0
C      1  0.5167430000000  0.5687290000000  0.4930490000000 1.0
C      1  0.4684950000000  0.4548210000000  0.5134560000000 1.0
C      1  0.5336790000000  0.4553350000000  0.4917240000000 1.0
C      1  0.5238180000000  0.5162550000000  0.5738610000000 1.0
C      1  0.4957720000000  0.5193280000000  0.4341230000000 1.0
C      1  0.4981320000000  0.5904280000000  0.4768690000000 1.0
C      1  0.5058970000000  0.5701080000000  0.5310460000000 1.0
C      1  0.5311190000000  0.4436660000000  0.4600700000000 1.0
C      1  0.4715450000000  0.4457380000000  0.5459900000000 1.0
C      1  0.5153670000000  0.4276260000000  0.5367960000000 1.0
C      1  0.4882450000000  0.4243070000000  0.4709430000000 1.0
C      1  0.5148960000000  0.4349260000000  0.5094470000000 1.0
C      1  0.4883490000000  0.4338120000000  0.4976180000000 1.0
C      1  0.5000290000000  0.5336080000000  0.4849530000000 1.0
END
