TITL C-2782240-8521-244 -1.170624828423e-05 125000 -645.260615994278 0 0 111 (C1) n - 1
REM
REM in /home/nfs/bkarasulu/CARBON/AIRSS/Generating-Clusters/REBO/Higher-Symm/SD-CG/HFTN-CG
REM
REM
REM
REM
REM
REM ./C.cell (12c818d87b63d06a65506943cc24bca4)
REM
REM compiler GCC version 9.2.1 20190827 (Red Hat 9.2.1-1)
REM options -cpp -mtune=generic -march=x86-64 -g -O0 -fpre-include=/usr/include/finclude/math-vector-fortran.h
REM seed -1446206175 1023264460 1657991477 832332634 2144839184 1947220831 -318677841 -779851192 -1897249990 1895345651 1471383166 2130928289 1415489784 811439552 291603150 695006585 -1318869758 1882717384 38391732 -1977800371 1071453242 1428878863 -1754703549 -1130876289 1355599420 -824588742 1701786259 -1045322811 -1236096856 1831910149 1067033148 503386930 -2022407251
REM
CELL 1.54180   50.00000   50.00000   50.00000   90.00000   90.00000   90.00000
LATT -1
SFAC C  
C      1  0.5763060000000  0.5669560000000  0.5138260000000 1.0
C      1  0.5491150000000  0.4324830000000  0.4876990000000 1.0
C      1  0.4330130000000  0.4486300000000  0.5159750000000 1.0
C      1  0.4304530000000  0.5752570000000  0.4824210000000 1.0
C      1  0.4902330000000  0.4378300000000  0.5430730000000 1.0
C      1  0.4343690000000  0.5073310000000  0.4607810000000 1.0
C      1  0.5057390000000  0.5693400000000  0.5407460000000 1.0
C      1  0.5766460000000  0.5010640000000  0.4493870000000 1.0
C      1  0.4380410000000  0.5519470000000  0.5011920000000 1.0
C      1  0.5560240000000  0.5648470000000  0.4891010000000 1.0
C      1  0.5641650000000  0.4478330000000  0.5094700000000 1.0
C      1  0.4417060000000  0.4351210000000  0.4923620000000 1.0
C      1  0.4842290000000  0.5549890000000  0.4954660000000 1.0
C      1  0.5639820000000  0.5122860000000  0.4987120000000 1.0
C      1  0.5215470000000  0.4292100000000  0.4923970000000 1.0
C      1  0.4272810000000  0.4762020000000  0.5085160000000 1.0
C      1  0.4783830000000  0.4593060000000  0.4980360000000 1.0
C      1  0.4547500000000  0.5238080000000  0.5036900000000 1.0
C      1  0.5286870000000  0.5307640000000  0.4954770000000 1.0
C      1  0.5458630000000  0.4741890000000  0.5140320000000 1.0
C      1  0.5146690000000  0.4088810000000  0.5259130000000 1.0
C      1  0.4064750000000  0.4699200000000  0.4749850000000 1.0
C      1  0.4714080000000  0.5886960000000  0.5127150000000 1.0
C      1  0.5930410000000  0.5265840000000  0.4754200000000 1.0
C      1  0.4105630000000  0.5208210000000  0.5235600000000 1.0
C      1  0.5261740000000  0.5737690000000  0.4750420000000 1.0
C      1  0.5842200000000  0.4789580000000  0.5243090000000 1.0
C      1  0.4808830000000  0.4211920000000  0.4684820000000 1.0
C      1  0.5949770000000  0.4540390000000  0.5692760000000 1.0
C      1  0.4819520000000  0.4388810000000  0.4216500000000 1.0
C      1  0.4436780000000  0.5216730000000  0.5773330000000 1.0
C      1  0.5241030000000  0.5714360000000  0.4210270000000 1.0
C      1  0.4524960000000  0.4846940000000  0.5383340000000 1.0
C      1  0.4882730000000  0.5390750000000  0.4665600000000 1.0
C      1  0.5469460000000  0.5126170000000  0.5490260000000 1.0
C      1  0.5188200000000  0.4567590000000  0.4635540000000 1.0
C      1  0.4733070000000  0.5140730000000  0.4831220000000 1.0
C      1  0.5261390000000  0.5214810000000  0.5279210000000 1.0
C      1  0.5320470000000  0.4755400000000  0.4828160000000 1.0
C      1  0.4682570000000  0.4672600000000  0.5185220000000 1.0
C      1  0.5941510000000  0.4970270000000  0.4773770000000 1.0
C      1  0.4859800000000  0.4166500000000  0.5167120000000 1.0
C      1  0.4063540000000  0.4980220000000  0.4756590000000 1.0
C      1  0.4984010000000  0.5871730000000  0.5153660000000 1.0
C      1  0.4460370000000  0.4580250000000  0.4485080000000 1.0
C      1  0.4567230000000  0.5532560000000  0.5463600000000 1.0
C      1  0.5540810000000  0.5369400000000  0.4478880000000 1.0
C      1  0.5443340000000  0.4491360000000  0.5535930000000 1.0
C      1  0.4688560000000  0.4872900000000  0.5643670000000 1.0
C      1  0.4759830000000  0.5355310000000  0.4363930000000 1.0
C      1  0.5320320000000  0.5236670000000  0.5731130000000 1.0
C      1  0.5253960000000  0.4644950000000  0.4339610000000 1.0
C      1  0.4328010000000  0.5304880000000  0.5475260000000 1.0
C      1  0.5309830000000  0.5579190000000  0.4467050000000 1.0
C      1  0.5754980000000  0.4627730000000  0.5522040000000 1.0
C      1  0.4721130000000  0.4431480000000  0.4474910000000 1.0
C      1  0.4170630000000  0.5269480000000  0.4907080000000 1.0
C      1  0.5293090000000  0.5741590000000  0.5089980000000 1.0
C      1  0.5839610000000  0.4695620000000  0.4924120000000 1.0
C      1  0.4676580000000  0.4210430000000  0.4938170000000 1.0
C      1  0.4838900000000  0.5430290000000  0.5612710000000 1.0
C      1  0.5495690000000  0.5099810000000  0.4305230000000 1.0
C      1  0.5139870000000  0.4557680000000  0.5601000000000 1.0
C      1  0.4499450000000  0.4868400000000  0.4384550000000 1.0
C      1  0.5720640000000  0.4686300000000  0.4603600000000 1.0
C      1  0.4644000000000  0.4413070000000  0.5590640000000 1.0
C      1  0.4328140000000  0.5405080000000  0.4631100000000 1.0
C      1  0.5378770000000  0.5634550000000  0.5402750000000 1.0
C      1  0.5087650000000  0.4185310000000  0.4690740000000 1.0
C      1  0.4097750000000  0.4918850000000  0.5276550000000 1.0
C      1  0.4942380000000  0.5770730000000  0.4769050000000 1.0
C      1  0.5769520000000  0.5069390000000  0.5232100000000 1.0
C      1  0.4891500000000  0.5037930000000  0.5941730000000 1.0
C      1  0.4900910000000  0.5162210000000  0.4161240000000 1.0
C      1  0.5204810000000  0.5048360000000  0.5898010000000 1.0
C      1  0.5064870000000  0.4804220000000  0.4196760000000 1.0
C      1  0.5248390000000  0.5043960000000  0.4658160000000 1.0
C      1  0.5044660000000  0.4741790000000  0.5347030000000 1.0
C      1  0.4727220000000  0.5062120000000  0.4506790000000 1.0
C      1  0.4983760000000  0.5236410000000  0.5390530000000 1.0
C      1  0.4891670000000  0.4602490000000  0.4690710000000 1.0
C      1  0.4489830000000  0.5115330000000  0.5266430000000 1.0
C      1  0.5180640000000  0.5357190000000  0.4659860000000 1.0
C      1  0.5503600000000  0.4837050000000  0.5446610000000 1.0
C      1  0.4731340000000  0.5844570000000  0.4591460000000 1.0
C      1  0.5727960000000  0.5290440000000  0.5432470000000 1.0
C      1  0.5294780000000  0.4279760000000  0.4473680000000 1.0
C      1  0.4237620000000  0.4715730000000  0.5479490000000 1.0
C      1  0.4288290000000  0.4510890000000  0.4699170000000 1.0
C      1  0.4534960000000  0.5686990000000  0.5224780000000 1.0
C      1  0.5705250000000  0.5434550000000  0.4702960000000 1.0
C      1  0.5400020000000  0.4317970000000  0.5275230000000 1.0
C      1  0.5552000000000  0.4404310000000  0.4604930000000 1.0
C      1  0.4395220000000  0.4439650000000  0.5450860000000 1.0
C      1  0.4465010000000  0.5744970000000  0.4591270000000 1.0
C      1  0.5669090000000  0.5559850000000  0.5373520000000 1.0
C      1  0.5554690000000  0.5066160000000  0.4739960000000 1.0
C      1  0.5111880000000  0.4474050000000  0.5175730000000 1.0
C      1  0.4428670000000  0.4889190000000  0.4881880000000 1.0
C      1  0.4882800000000  0.5491080000000  0.5219940000000 1.0
C      1  0.4751070000000  0.4882140000000  0.4155270000000 1.0
C      1  0.4711690000000  0.5229640000000  0.5823090000000 1.0
C      1  0.5203120000000  0.5093180000000  0.4176520000000 1.0
C      1  0.5065170000000  0.4763420000000  0.5834230000000 1.0
C      1  0.4681210000000  0.4624770000000  0.5781780000000 1.0
C      1  0.4463270000000  0.5444340000000  0.4351070000000 1.0
C      1  0.5175910000000  0.5486090000000  0.5636540000000 1.0
C      1  0.5514590000000  0.4761510000000  0.4341920000000 1.0
C      1  0.4950460000000  0.4917930000000  0.4684380000000 1.0
C      1  0.4900920000000  0.4959770000000  0.5452850000000 1.0
C      1  0.5268820000000  0.4990570000000  0.5052120000000 1.0
END
