TITL C-2782229-3092-1121 -0.000869471521368929 125000 -892.344195397065 0 0 154 (C1) n - 1
REM
REM in /home/nfs/bkarasulu/CARBON/AIRSS/Generating-Clusters/REBO/Higher-Symm/SD-CG/HFTN-CG
REM
REM
REM
REM
REM
REM ./C.cell (12c818d87b63d06a65506943cc24bca4)
REM
REM compiler GCC version 9.2.1 20190827 (Red Hat 9.2.1-1)
REM options -cpp -mtune=generic -march=x86-64 -g -O0 -fpre-include=/usr/include/finclude/math-vector-fortran.h
REM seed 1328368238 1630886036 1222334718 -708757702 -56933827 -1115154212 -273557860 832478005 209609413 -1093320982 689590099 1271264487 783098156 708468950 1078404971 -1507848869 -1110851487 1282862259 228410940 115007198 -1445187534 1365974388 -1649584978 -1598123217 225468765 1735295828 -411709407 1870217678 2087301467 -259921032 1588079549 1897112016 -1706365648
REM
CELL 1.54180   50.00000   50.00000   50.00000   90.00000   90.00000   90.00000
LATT -1
SFAC C  
C      1  0.3994150000000  0.4591140000000  0.4899950000000 1.0
C      1  0.5539990000000  0.4554530000000  0.4253720000000 1.0
C      1  0.5403480000000  0.4625740000000  0.5884470000000 1.0
C      1  0.5606570000000  0.4185600000000  0.4808980000000 1.0
C      1  0.4922260000000  0.4231890000000  0.5658330000000 1.0
C      1  0.4508120000000  0.4246360000000  0.4685820000000 1.0
C      1  0.4801240000000  0.5156260000000  0.5197730000000 1.0
C      1  0.4984260000000  0.5132730000000  0.4705870000000 1.0
C      1  0.5185540000000  0.5195310000000  0.5074550000000 1.0
C      1  0.3974460000000  0.5123440000000  0.4929070000000 1.0
C      1  0.5503950000000  0.5277600000000  0.4127810000000 1.0
C      1  0.5492120000000  0.5139950000000  0.5881900000000 1.0
C      1  0.4593100000000  0.5458340000000  0.5355450000000 1.0
C      1  0.4831830000000  0.5421860000000  0.4481490000000 1.0
C      1  0.5456240000000  0.5485700000000  0.5109210000000 1.0
C      1  0.5157720000000  0.5971640000000  0.4690940000000 1.0
C      1  0.5230510000000  0.5929850000000  0.5255800000000 1.0
C      1  0.4708420000000  0.5898740000000  0.5066900000000 1.0
C      1  0.4698740000000  0.5318460000000  0.4155350000000 1.0
C      1  0.5963250000000  0.5241220000000  0.5207900000000 1.0
C      1  0.4362260000000  0.5345190000000  0.5611070000000 1.0
C      1  0.6046580000000  0.4832260000000  0.4980220000000 1.0
C      1  0.4487860000000  0.4912550000000  0.5848870000000 1.0
C      1  0.4437970000000  0.4899310000000  0.4122840000000 1.0
C      1  0.4765530000000  0.5080340000000  0.5892860000000 1.0
C      1  0.4293860000000  0.5053630000000  0.4364930000000 1.0
C      1  0.5911900000000  0.5031610000000  0.4738790000000 1.0
C      1  0.4532100000000  0.4594210000000  0.4242840000000 1.0
C      1  0.5916800000000  0.4520840000000  0.5005300000000 1.0
C      1  0.4577990000000  0.4594900000000  0.5767550000000 1.0
C      1  0.4542910000000  0.4640170000000  0.5037890000000 1.0
C      1  0.5209410000000  0.4678160000000  0.4492370000000 1.0
C      1  0.5341910000000  0.4694770000000  0.5381980000000 1.0
C      1  0.5447450000000  0.5905400000000  0.5085920000000 1.0
C      1  0.4738430000000  0.5830790000000  0.5364720000000 1.0
C      1  0.4866550000000  0.5880240000000  0.4646790000000 1.0
C      1  0.4804680000000  0.4817920000000  0.5410660000000 1.0
C      1  0.4753230000000  0.4821760000000  0.4610060000000 1.0
C      1  0.5462390000000  0.4806440000000  0.4919260000000 1.0
C      1  0.5337850000000  0.4706240000000  0.4114670000000 1.0
C      1  0.5645130000000  0.4682360000000  0.5715700000000 1.0
C      1  0.4029610000000  0.4678370000000  0.5192090000000 1.0
C      1  0.4211380000000  0.5554440000000  0.5305960000000 1.0
C      1  0.5044610000000  0.5625910000000  0.4217570000000 1.0
C      1  0.5642650000000  0.5548880000000  0.5478530000000 1.0
C      1  0.4784970000000  0.4134440000000  0.4557080000000 1.0
C      1  0.5501960000000  0.4080650000000  0.5077760000000 1.0
C      1  0.4722600000000  0.4115880000000  0.5438420000000 1.0
C      1  0.5578480000000  0.4236960000000  0.5309810000000 1.0
C      1  0.4477910000000  0.4244960000000  0.5374790000000 1.0
C      1  0.4955460000000  0.4275810000000  0.4380050000000 1.0
C      1  0.5924370000000  0.5225360000000  0.4467790000000 1.0
C      1  0.4990760000000  0.5290930000000  0.6006760000000 1.0
C      1  0.4078160000000  0.5260390000000  0.4495690000000 1.0
C      1  0.5159810000000  0.5352660000000  0.5834490000000 1.0
C      1  0.4176120000000  0.5376450000000  0.4694860000000 1.0
C      1  0.5691970000000  0.5307490000000  0.4360520000000 1.0
C      1  0.5252230000000  0.5254670000000  0.5560400000000 1.0
C      1  0.4430270000000  0.5305400000000  0.4865450000000 1.0
C      1  0.5389640000000  0.5301120000000  0.4509430000000 1.0
C      1  0.5584130000000  0.4339230000000  0.4506990000000 1.0
C      1  0.5191760000000  0.4413640000000  0.5759570000000 1.0
C      1  0.4231690000000  0.4408250000000  0.4800840000000 1.0
C      1  0.5537530000000  0.4857010000000  0.5201610000000 1.0
C      1  0.4540000000000  0.4861600000000  0.5259010000000 1.0
C      1  0.4983350000000  0.4870960000000  0.4407430000000 1.0
C      1  0.5275270000000  0.4507110000000  0.5106060000000 1.0
C      1  0.4793450000000  0.4470020000000  0.5169480000000 1.0
C      1  0.4991900000000  0.4515440000000  0.4701180000000 1.0
C      1  0.4782480000000  0.5733810000000  0.4380340000000 1.0
C      1  0.5687020000000  0.5710060000000  0.5182140000000 1.0
C      1  0.4444910000000  0.5718800000000  0.5494960000000 1.0
C      1  0.5346830000000  0.5635110000000  0.5625140000000 1.0
C      1  0.4244810000000  0.5640240000000  0.4978690000000 1.0
C      1  0.5320790000000  0.5679790000000  0.4413940000000 1.0
C      1  0.5081590000000  0.5460100000000  0.4960900000000 1.0
C      1  0.5003710000000  0.5673940000000  0.5215200000000 1.0
C      1  0.4808410000000  0.5634180000000  0.4875080000000 1.0
C      1  0.5012260000000  0.5293680000000  0.4150880000000 1.0
C      1  0.5721140000000  0.5246710000000  0.5408760000000 1.0
C      1  0.4242260000000  0.5218120000000  0.5350210000000 1.0
C      1  0.5813180000000  0.4498860000000  0.4705690000000 1.0
C      1  0.4901910000000  0.4585140000000  0.5816200000000 1.0
C      1  0.4348440000000  0.4557530000000  0.4516480000000 1.0
C      1  0.5346130000000  0.5510940000000  0.4119500000000 1.0
C      1  0.5549040000000  0.5408260000000  0.5779610000000 1.0
C      1  0.4028300000000  0.5390010000000  0.5060780000000 1.0
C      1  0.4087600000000  0.4986110000000  0.5440540000000 1.0
C      1  0.5051930000000  0.5032860000000  0.3991380000000 1.0
C      1  0.5882550000000  0.4984240000000  0.5549570000000 1.0
C      1  0.4557400000000  0.5529550000000  0.5057110000000 1.0
C      1  0.5127850000000  0.5494170000000  0.4625760000000 1.0
C      1  0.5246550000000  0.5498190000000  0.5327940000000 1.0
C      1  0.6129940000000  0.5022210000000  0.5220300000000 1.0
C      1  0.4295210000000  0.5139040000000  0.5849320000000 1.0
C      1  0.4575190000000  0.5119850000000  0.3963870000000 1.0
C      1  0.4128090000000  0.4797540000000  0.4494750000000 1.0
C      1  0.5912060000000  0.4745940000000  0.4552870000000 1.0
C      1  0.4989830000000  0.4843950000000  0.5965230000000 1.0
C      1  0.4796190000000  0.4950580000000  0.4923230000000 1.0
C      1  0.5189210000000  0.4937670000000  0.4859230000000 1.0
C      1  0.5046060000000  0.4926810000000  0.5227780000000 1.0
C      1  0.4388660000000  0.5749400000000  0.4715060000000 1.0
C      1  0.5530800000000  0.5634010000000  0.4678070000000 1.0
C      1  0.5006580000000  0.5644140000000  0.5612530000000 1.0
C      1  0.5349500000000  0.4392890000000  0.5481250000000 1.0
C      1  0.4431420000000  0.4336060000000  0.5066710000000 1.0
C      1  0.5266750000000  0.4354630000000  0.4464280000000 1.0
C      1  0.5875240000000  0.4643990000000  0.5514390000000 1.0
C      1  0.4135230000000  0.4651140000000  0.5485290000000 1.0
C      1  0.5034450000000  0.4697010000000  0.4051420000000 1.0
C      1  0.4902210000000  0.5067240000000  0.5586040000000 1.0
C      1  0.4483950000000  0.4983380000000  0.4636650000000 1.0
C      1  0.5571390000000  0.5024500000000  0.4729250000000 1.0
C      1  0.4680280000000  0.4517300000000  0.4604930000000 1.0
C      1  0.5509470000000  0.4504440000000  0.4863300000000 1.0
C      1  0.4846040000000  0.4514000000000  0.5483560000000 1.0
C      1  0.4426590000000  0.4800090000000  0.5539690000000 1.0
C      1  0.4759210000000  0.4840730000000  0.4181660000000 1.0
C      1  0.5819930000000  0.4770010000000  0.5220590000000 1.0
C      1  0.5905270000000  0.5311040000000  0.4936980000000 1.0
C      1  0.4618970000000  0.5366080000000  0.5799060000000 1.0
C      1  0.4461090000000  0.5354620000000  0.4349320000000 1.0
C      1  0.4800410000000  0.4019970000000  0.4835990000000 1.0
C      1  0.5246050000000  0.4048270000000  0.4911000000000 1.0
C      1  0.4985190000000  0.4051460000000  0.5307340000000 1.0
C      1  0.4480760000000  0.5610010000000  0.4480460000000 1.0
C      1  0.5783070000000  0.5565980000000  0.4896540000000 1.0
C      1  0.4699150000000  0.5622710000000  0.5702200000000 1.0
C      1  0.5449390000000  0.4890070000000  0.4450170000000 1.0
C      1  0.5195670000000  0.4895350000000  0.5577950000000 1.0
C      1  0.4377900000000  0.4852370000000  0.4893500000000 1.0
C      1  0.5434900000000  0.5138760000000  0.5300660000000 1.0
C      1  0.4471590000000  0.5148920000000  0.5143650000000 1.0
C      1  0.5121240000000  0.5158250000000  0.4410670000000 1.0
C      1  0.4717860000000  0.4175010000000  0.5039300000000 1.0
C      1  0.5132750000000  0.4216990000000  0.4735460000000 1.0
C      1  0.5179270000000  0.4227780000000  0.5260260000000 1.0
C      1  0.3953740000000  0.4842140000000  0.4724540000000 1.0
C      1  0.5739910000000  0.4774980000000  0.4326860000000 1.0
C      1  0.5279460000000  0.4883800000000  0.5979890000000 1.0
C      1  0.5501610000000  0.4937840000000  0.5655870000000 1.0
C      1  0.4159170000000  0.4919100000000  0.5054460000000 1.0
C      1  0.5425620000000  0.5003820000000  0.4127130000000 1.0
C      1  0.4881270000000  0.5370830000000  0.5451040000000 1.0
C      1  0.4672500000000  0.5236600000000  0.4675040000000 1.0
C      1  0.5468540000000  0.5332750000000  0.4829420000000 1.0
C      1  0.5386330000000  0.5883140000000  0.4810170000000 1.0
C      1  0.5029870000000  0.5950610000000  0.5493920000000 1.0
C      1  0.4581530000000  0.5950080000000  0.4790280000000 1.0
C      1  0.5829060000000  0.4383640000000  0.5300160000000 1.0
C      1  0.4361590000000  0.4414340000000  0.5576490000000 1.0
C      1  0.4838940000000  0.4455830000000  0.4191020000000 1.0
C      1  0.5002500000000  0.4669490000000  0.4989890000000 1.0
END
