TITL C-2782230-7391-8 -4.27313449252336e-05 125000 -170.538782386982 0 0 32 (D3) n - 1
REM
REM in /home/nfs/bkarasulu/CARBON/AIRSS/Generating-Clusters/REBO/Higher-Symm/SD-CG/HFTN-CG
REM
REM
REM
REM
REM
REM ./C.cell (12c818d87b63d06a65506943cc24bca4)
REM
REM compiler GCC version 9.2.1 20190827 (Red Hat 9.2.1-1)
REM options -cpp -mtune=generic -march=x86-64 -g -O0 -fpre-include=/usr/include/finclude/math-vector-fortran.h
REM seed 1797461505 2115162940 -1563532513 -1537978788 330468641 1374607084 1508433272 -2113067068 -1398761085 414017934 490478786 -915972311 1336310400 -75698557 2120398266 -448719941 446435184 -1153512447 1818540943 -2138389142 1193361590 1138017086 -1109046710 1719129186 -1465643209 -573990398 816040612 -248619116 -1711708099 -1273187762 -1493112843 -555193319 -1508106916
REM
CELL 1.54180   50.00000   50.00000   50.00000   90.00000   90.00000   90.00000
LATT -1
SFAC C  
C      1  0.4491370000000  0.5371880000000  0.4991800000000 1.0
C      1  0.5230160000000  0.5387490000000  0.5456260000000 1.0
C      1  0.5262700000000  0.5397110000000  0.4584120000000 1.0
C      1  0.4511970000000  0.4636700000000  0.5031610000000 1.0
C      1  0.5241790000000  0.4661500000000  0.4553570000000 1.0
C      1  0.5290910000000  0.4654130000000  0.5424960000000 1.0
C      1  0.4750320000000  0.5072450000000  0.5170190000000 1.0
C      1  0.5270230000000  0.5086960000000  0.5145440000000 1.0
C      1  0.4988730000000  0.5083620000000  0.4707410000000 1.0
C      1  0.4750720000000  0.4949820000000  0.4848610000000 1.0
C      1  0.5271010000000  0.4963940000000  0.4863740000000 1.0
C      1  0.4997890000000  0.4952020000000  0.5306910000000 1.0
C      1  0.5365480000000  0.5143990000000  0.4590770000000 1.0
C      1  0.4458440000000  0.5116010000000  0.4901670000000 1.0
C      1  0.5181340000000  0.5129530000000  0.5532070000000 1.0
C      1  0.5379480000000  0.4912510000000  0.5416540000000 1.0
C      1  0.4466690000000  0.4890420000000  0.5122460000000 1.0
C      1  0.5177470000000  0.4916350000000  0.4478810000000 1.0
C      1  0.5279410000000  0.4635940000000  0.4868400000000 1.0
C      1  0.4766880000000  0.4622150000000  0.4841890000000 1.0
C      1  0.5000310000000  0.4623980000000  0.5299140000000 1.0
C      1  0.5260490000000  0.5414920000000  0.5140800000000 1.0
C      1  0.4748560000000  0.5400520000000  0.5176790000000 1.0
C      1  0.4973250000000  0.5411300000000  0.4715290000000 1.0
C      1  0.5483090000000  0.5552470000000  0.5044770000000 1.0
C      1  0.4772270000000  0.5537730000000  0.4569310000000 1.0
C      1  0.4716220000000  0.5527660000000  0.5422710000000 1.0
C      1  0.5510970000000  0.4510880000000  0.4960240000000 1.0
C      1  0.4809310000000  0.4486760000000  0.5448750000000 1.0
C      1  0.4737040000000  0.4493300000000  0.4596530000000 1.0
C      1  0.4992110000000  0.5481720000000  0.5011690000000 1.0
C      1  0.5017530000000  0.4554550000000  0.5002420000000 1.0
END
