TITL C-2782238-9940-554 0.00141895327910301 125000 -213.095595768624 0 0 38 (C1) n - 1
REM
REM in /home/nfs/bkarasulu/CARBON/AIRSS/Generating-Clusters/REBO/Higher-Symm/SD-CG/HFTN-CG
REM
REM
REM
REM
REM
REM ./C.cell (12c818d87b63d06a65506943cc24bca4)
REM
REM compiler GCC version 9.2.1 20190827 (Red Hat 9.2.1-1)
REM options -cpp -mtune=generic -march=x86-64 -g -O0 -fpre-include=/usr/include/finclude/math-vector-fortran.h
REM seed 467506785 1451193929 -174522896 -1150520871 -1725673200 -1727381376 -1178147022 1519169804 -870883629 1391595712 -2032921813 -605398125 -2109409907 -577260254 -1033494743 982925554 -1039647894 -1810163190 -173007163 -1459516941 -965038086 -415812702 1945799445 -115485093 -503692009 -261484026 9392070 417160630 961340322 1030963557 139692837 1384433665 -1887031943
REM
CELL 1.54180   50.00000   50.00000   50.00000   90.00000   90.00000   90.00000
LATT -1
SFAC C  
C      1  0.4725090000000  0.4851230000000  0.5185390000000 1.0
C      1  0.5266100000000  0.4851840000000  0.5207810000000 1.0
C      1  0.5016720000000  0.4875940000000  0.4738730000000 1.0
C      1  0.5444520000000  0.5118990000000  0.5243460000000 1.0
C      1  0.4967320000000  0.5128810000000  0.4544160000000 1.0
C      1  0.4582030000000  0.5120220000000  0.5284710000000 1.0
C      1  0.5630570000000  0.5127640000000  0.5449800000000 1.0
C      1  0.5035150000000  0.5100870000000  0.4274940000000 1.0
C      1  0.4309930000000  0.5115430000000  0.5342870000000 1.0
C      1  0.4633640000000  0.4557750000000  0.4748410000000 1.0
C      1  0.4949750000000  0.4541200000000  0.5487090000000 1.0
C      1  0.5423300000000  0.4551120000000  0.4844010000000 1.0
C      1  0.5532010000000  0.5230900000000  0.4972270000000 1.0
C      1  0.4691140000000  0.5243670000000  0.4601580000000 1.0
C      1  0.4770240000000  0.5227990000000  0.5502200000000 1.0
C      1  0.4926580000000  0.4620900000000  0.4652950000000 1.0
C      1  0.4704050000000  0.4593230000000  0.5298760000000 1.0
C      1  0.5379100000000  0.4599190000000  0.5151860000000 1.0
C      1  0.5471680000000  0.4785860000000  0.4698850000000 1.0
C      1  0.4473710000000  0.4787190000000  0.4771240000000 1.0
C      1  0.5050730000000  0.4783540000000  0.5590420000000 1.0
C      1  0.4683590000000  0.5505480000000  0.4683460000000 1.0
C      1  0.4841710000000  0.5492660000000  0.5468340000000 1.0
C      1  0.5473060000000  0.5496860000000  0.4931100000000 1.0
C      1  0.5192390000000  0.4364250000000  0.5010750000000 1.0
C      1  0.4892220000000  0.4370950000000  0.4868160000000 1.0
C      1  0.4918710000000  0.4360840000000  0.5199620000000 1.0
C      1  0.4673970000000  0.5240730000000  0.5000660000000 1.0
C      1  0.5145830000000  0.5223490000000  0.5290200000000 1.0
C      1  0.5189980000000  0.5258320000000  0.4740340000000 1.0
C      1  0.5449230000000  0.5060910000000  0.4744330000000 1.0
C      1  0.4527150000000  0.5062270000000  0.4772190000000 1.0
C      1  0.5008330000000  0.5053970000000  0.5525900000000 1.0
C      1  0.5162130000000  0.5557010000000  0.4905450000000 1.0
C      1  0.4827350000000  0.5567680000000  0.4941760000000 1.0
C      1  0.5024080000000  0.5534130000000  0.5213610000000 1.0
C      1  0.5004090000000  0.4904400000000  0.5061410000000 1.0
C      1  0.4991120000000  0.5207170000000  0.4988520000000 1.0
END
