TITL C-2782227-3064-465 -0.00464596227749493 125000 -1234.95071952836 0 0 196 (C1) n - 1
REM
REM in /home/nfs/bkarasulu/CARBON/AIRSS/Generating-Clusters/REBO/Higher-Symm/SD-CG/HFTN-CG
REM
REM
REM
REM
REM
REM ./C.cell (12c818d87b63d06a65506943cc24bca4)
REM
REM compiler GCC version 9.2.1 20190827 (Red Hat 9.2.1-1)
REM options -cpp -mtune=generic -march=x86-64 -g -O0 -fpre-include=/usr/include/finclude/math-vector-fortran.h
REM seed -943627866 1384360373 457352669 1558346947 -2102131802 1060653591 -369922953 1333343785 -1755147763 1687106854 -453283061 -2034112662 -43922608 1252110104 1830853014 -2143934057 -1653321830 833537394 437711833 20072707 748818554 -780141561 -915796398 -183854745 -1369375040 -1106343876 1832722933 -1782497279 584788210 974173571 -1396933770 -778898531 -357884105
REM
CELL 1.54180   50.00000   50.00000   50.00000   90.00000   90.00000   90.00000
LATT -1
SFAC C  
C      1  0.4441260000000  0.5365470000000  0.4060640000000 1.0
C      1  0.4098560000000  0.5383800000000  0.5577860000000 1.0
C      1  0.5541300000000  0.5370590000000  0.5942260000000 1.0
C      1  0.5892730000000  0.5368850000000  0.4441510000000 1.0
C      1  0.5549760000000  0.5361580000000  0.4059820000000 1.0
C      1  0.5883360000000  0.5365700000000  0.5566410000000 1.0
C      1  0.4442170000000  0.5383830000000  0.5963840000000 1.0
C      1  0.4088480000000  0.5369720000000  0.4439920000000 1.0
C      1  0.5406070000000  0.4350680000000  0.4845330000000 1.0
C      1  0.4848450000000  0.4276290000000  0.4572690000000 1.0
C      1  0.4639610000000  0.4333620000000  0.5113720000000 1.0
C      1  0.5154700000000  0.4352740000000  0.5341380000000 1.0
C      1  0.4630810000000  0.4331540000000  0.4778150000000 1.0
C      1  0.5163100000000  0.4323140000000  0.4605460000000 1.0
C      1  0.5400550000000  0.4267980000000  0.5171240000000 1.0
C      1  0.4900120000000  0.4256850000000  0.5225350000000 1.0
C      1  0.5148510000000  0.4009620000000  0.4358430000000 1.0
C      1  0.4386190000000  0.4024320000000  0.4845440000000 1.0
C      1  0.4874900000000  0.4063640000000  0.5605360000000 1.0
C      1  0.5618420000000  0.4009190000000  0.5142290000000 1.0
C      1  0.4850750000000  0.3990960000000  0.4298140000000 1.0
C      1  0.5665660000000  0.4004340000000  0.4819870000000 1.0
C      1  0.5200920000000  0.4047880000000  0.5596110000000 1.0
C      1  0.4362340000000  0.4045580000000  0.5145780000000 1.0
C      1  0.5341710000000  0.5541130000000  0.5126390000000 1.0
C      1  0.5111250000000  0.5632440000000  0.4696410000000 1.0
C      1  0.4645750000000  0.5534660000000  0.4872120000000 1.0
C      1  0.4863940000000  0.5527370000000  0.5336090000000 1.0
C      1  0.4652870000000  0.5536140000000  0.5150440000000 1.0
C      1  0.4857870000000  0.5523230000000  0.4686520000000 1.0
C      1  0.5316640000000  0.5640980000000  0.4870950000000 1.0
C      1  0.5126510000000  0.5600760000000  0.5293260000000 1.0
C      1  0.5148400000000  0.4659770000000  0.5311800000000 1.0
C      1  0.5388990000000  0.4676500000000  0.4880520000000 1.0
C      1  0.4898540000000  0.4761450000000  0.4698350000000 1.0
C      1  0.4651350000000  0.4654820000000  0.5159250000000 1.0
C      1  0.4865340000000  0.4763500000000  0.5320820000000 1.0
C      1  0.4691280000000  0.4629290000000  0.4851040000000 1.0
C      1  0.5169550000000  0.4627820000000  0.4684250000000 1.0
C      1  0.5319640000000  0.4817580000000  0.5140190000000 1.0
C      1  0.4319520000000  0.4337690000000  0.5237340000000 1.0
C      1  0.5125020000000  0.4363320000000  0.5684920000000 1.0
C      1  0.5725260000000  0.4296740000000  0.4735460000000 1.0
C      1  0.4745150000000  0.4286520000000  0.4248520000000 1.0
C      1  0.5732000000000  0.4298750000000  0.5258900000000 1.0
C      1  0.4807380000000  0.4331660000000  0.5779520000000 1.0
C      1  0.4296190000000  0.4297510000000  0.4716140000000 1.0
C      1  0.5262650000000  0.4292550000000  0.4279930000000 1.0
C      1  0.4371880000000  0.5055040000000  0.5429050000000 1.0
C      1  0.5358250000000  0.5030660000000  0.5632980000000 1.0
C      1  0.5654530000000  0.5043830000000  0.4589770000000 1.0
C      1  0.4609900000000  0.5034600000000  0.4379590000000 1.0
C      1  0.5603620000000  0.5041370000000  0.5400130000000 1.0
C      1  0.4629550000000  0.5058000000000  0.5644230000000 1.0
C      1  0.4369610000000  0.5026890000000  0.4605450000000 1.0
C      1  0.5418960000000  0.5014610000000  0.4361920000000 1.0
C      1  0.4784970000000  0.5292390000000  0.4451980000000 1.0
C      1  0.4420930000000  0.5334300000000  0.5279740000000 1.0
C      1  0.5157250000000  0.5279950000000  0.5605300000000 1.0
C      1  0.5565870000000  0.5297340000000  0.4739360000000 1.0
C      1  0.5224280000000  0.5249300000000  0.4416760000000 1.0
C      1  0.5556250000000  0.5320630000000  0.5254120000000 1.0
C      1  0.4816540000000  0.5304820000000  0.5590730000000 1.0
C      1  0.4411020000000  0.5323150000000  0.4745630000000 1.0
C      1  0.5743820000000  0.5673680000000  0.4859520000000 1.0
C      1  0.4843160000000  0.5715570000000  0.4164900000000 1.0
C      1  0.4250490000000  0.5691610000000  0.5162110000000 1.0
C      1  0.5146780000000  0.5729780000000  0.5863490000000 1.0
C      1  0.4237720000000  0.5691460000000  0.4854950000000 1.0
C      1  0.5151760000000  0.5704700000000  0.4160410000000 1.0
C      1  0.5731990000000  0.5668650000000  0.5165050000000 1.0
C      1  0.4838530000000  0.5738800000000  0.5864820000000 1.0
C      1  0.5303450000000  0.5529630000000  0.5644660000000 1.0
C      1  0.5571580000000  0.5567020000000  0.4573700000000 1.0
C      1  0.4630330000000  0.5547390000000  0.4361390000000 1.0
C      1  0.4410710000000  0.5603620000000  0.5459370000000 1.0
C      1  0.4642830000000  0.5556360000000  0.5665210000000 1.0
C      1  0.4398530000000  0.5588950000000  0.4563520000000 1.0
C      1  0.5338680000000  0.5515460000000  0.4367950000000 1.0
C      1  0.5557960000000  0.5578110000000  0.5457490000000 1.0
C      1  0.4080260000000  0.4831400000000  0.5752000000000 1.0
C      1  0.5697440000000  0.4817770000000  0.5927230000000 1.0
C      1  0.5936670000000  0.4811740000000  0.4252090000000 1.0
C      1  0.4279360000000  0.4826200000000  0.4074610000000 1.0
C      1  0.5909490000000  0.4820400000000  0.5738910000000 1.0
C      1  0.4286010000000  0.4838490000000  0.5946780000000 1.0
C      1  0.4075650000000  0.4822900000000  0.4271610000000 1.0
C      1  0.5728790000000  0.4810890000000  0.4057410000000 1.0
C      1  0.4050760000000  0.5479060000000  0.5312250000000 1.0
C      1  0.5297100000000  0.5484960000000  0.6040690000000 1.0
C      1  0.5931140000000  0.5456710000000  0.4707930000000 1.0
C      1  0.4696680000000  0.5473300000000  0.3976080000000 1.0
C      1  0.5927950000000  0.5459090000000  0.5302940000000 1.0
C      1  0.4693860000000  0.5496130000000  0.6054990000000 1.0
C      1  0.4043100000000  0.5472110000000  0.4704730000000 1.0
C      1  0.5297400000000  0.5465780000000  0.3974640000000 1.0
C      1  0.5136870000000  0.5273760000000  0.6151820000000 1.0
C      1  0.6047700000000  0.5249400000000  0.4864450000000 1.0
C      1  0.4858620000000  0.5256730000000  0.3872130000000 1.0
C      1  0.3941050000000  0.5266360000000  0.5150710000000 1.0
C      1  0.4855720000000  0.5280280000000  0.6161320000000 1.0
C      1  0.3936590000000  0.5262460000000  0.4871160000000 1.0
C      1  0.5139190000000  0.5251770000000  0.3867990000000 1.0
C      1  0.6044230000000  0.5251770000000  0.5142470000000 1.0
C      1  0.6049270000000  0.4995590000000  0.5274810000000 1.0
C      1  0.5269260000000  0.4993520000000  0.3898280000000 1.0
C      1  0.3940670000000  0.5003600000000  0.4741770000000 1.0
C      1  0.4725960000000  0.5022600000000  0.6128780000000 1.0
C      1  0.3944400000000  0.5009680000000  0.5284190000000 1.0
C      1  0.4730150000000  0.4999870000000  0.3906990000000 1.0
C      1  0.6062160000000  0.4996170000000  0.4727540000000 1.0
C      1  0.5258010000000  0.5014530000000  0.6106080000000 1.0
C      1  0.5535950000000  0.4583310000000  0.5888230000000 1.0
C      1  0.5926620000000  0.4580480000000  0.4417430000000 1.0
C      1  0.4430230000000  0.4586540000000  0.4080750000000 1.0
C      1  0.4092130000000  0.4595230000000  0.5593640000000 1.0
C      1  0.4432150000000  0.4596460000000  0.5951920000000 1.0
C      1  0.4095150000000  0.4590860000000  0.4433950000000 1.0
C      1  0.5567270000000  0.4578300000000  0.4077510000000 1.0
C      1  0.5913850000000  0.4586200000000  0.5575890000000 1.0
C      1  0.4393320000000  0.4591110000000  0.4589480000000 1.0
C      1  0.4602140000000  0.4559380000000  0.5663210000000 1.0
C      1  0.5628750000000  0.4584920000000  0.5388940000000 1.0
C      1  0.5415540000000  0.4571920000000  0.4375500000000 1.0
C      1  0.5629510000000  0.4570910000000  0.4579480000000 1.0
C      1  0.5416740000000  0.4593470000000  0.5597540000000 1.0
C      1  0.4392990000000  0.4574460000000  0.5452130000000 1.0
C      1  0.4603850000000  0.4569080000000  0.4371560000000 1.0
C      1  0.4029560000000  0.4512480000000  0.4725860000000 1.0
C      1  0.4712410000000  0.4526670000000  0.6042530000000 1.0
C      1  0.6003680000000  0.4503060000000  0.5290670000000 1.0
C      1  0.5276250000000  0.4503750000000  0.4010760000000 1.0
C      1  0.5996740000000  0.4503600000000  0.4710760000000 1.0
C      1  0.5242200000000  0.4540740000000  0.5945150000000 1.0
C      1  0.4035040000000  0.4519040000000  0.5296490000000 1.0
C      1  0.4712440000000  0.4510240000000  0.3994030000000 1.0
C      1  0.4695880000000  0.6009360000000  0.4823040000000 1.0
C      1  0.4872410000000  0.5991270000000  0.5340930000000 1.0
C      1  0.5338310000000  0.6049470000000  0.5128190000000 1.0
C      1  0.5184730000000  0.6018900000000  0.4624330000000 1.0
C      1  0.5359120000000  0.6058680000000  0.4860390000000 1.0
C      1  0.5147240000000  0.6002270000000  0.5352640000000 1.0
C      1  0.4702950000000  0.6005980000000  0.5094440000000 1.0
C      1  0.4915050000000  0.6011890000000  0.4628880000000 1.0
C      1  0.4488930000000  0.5888480000000  0.5306380000000 1.0
C      1  0.5306370000000  0.5858570000000  0.5590450000000 1.0
C      1  0.5558200000000  0.5887640000000  0.4670720000000 1.0
C      1  0.4697650000000  0.5865870000000  0.4437780000000 1.0
C      1  0.5527800000000  0.5885640000000  0.5329530000000 1.0
C      1  0.4696520000000  0.5871430000000  0.5581690000000 1.0
C      1  0.4445450000000  0.5893920000000  0.4676360000000 1.0
C      1  0.5340150000000  0.5847240000000  0.4407430000000 1.0
C      1  0.5502780000000  0.5055720000000  0.5918720000000 1.0
C      1  0.5942160000000  0.5051480000000  0.4434550000000 1.0
C      1  0.4481440000000  0.5054520000000  0.4089800000000 1.0
C      1  0.4081260000000  0.5064890000000  0.5565880000000 1.0
C      1  0.4485650000000  0.5071810000000  0.5934490000000 1.0
C      1  0.4080990000000  0.5053420000000  0.4463550000000 1.0
C      1  0.5530330000000  0.5043410000000  0.4067760000000 1.0
C      1  0.5896610000000  0.5049920000000  0.5548700000000 1.0
C      1  0.4853120000000  0.5056350000000  0.5279760000000 1.0
C      1  0.5312800000000  0.5130000000000  0.5140710000000 1.0
C      1  0.5114480000000  0.5217390000000  0.4676110000000 1.0
C      1  0.4636130000000  0.5136480000000  0.4875990000000 1.0
C      1  0.5085950000000  0.5197240000000  0.5315770000000 1.0
C      1  0.4634910000000  0.5138270000000  0.5143160000000 1.0
C      1  0.4856040000000  0.5062790000000  0.4692930000000 1.0
C      1  0.5310770000000  0.5241340000000  0.4863950000000 1.0
C      1  0.4863490000000  0.3878070000000  0.4602350000000 1.0
C      1  0.4633220000000  0.3891570000000  0.5127360000000 1.0
C      1  0.5122230000000  0.3892660000000  0.5344100000000 1.0
C      1  0.5379040000000  0.3892740000000  0.4844850000000 1.0
C      1  0.5185380000000  0.3891880000000  0.4642140000000 1.0
C      1  0.5306110000000  0.3880520000000  0.5140650000000 1.0
C      1  0.4812230000000  0.3886920000000  0.5344580000000 1.0
C      1  0.4666170000000  0.3886520000000  0.4802700000000 1.0
C      1  0.4406710000000  0.4802430000000  0.4859590000000 1.0
C      1  0.4796330000000  0.4800240000000  0.5626170000000 1.0
C      1  0.5648550000000  0.4815650000000  0.5148780000000 1.0
C      1  0.5162220000000  0.4798430000000  0.4400840000000 1.0
C      1  0.5661690000000  0.4814650000000  0.4805890000000 1.0
C      1  0.5137420000000  0.4787540000000  0.5611400000000 1.0
C      1  0.4381290000000  0.4812050000000  0.5202350000000 1.0
C      1  0.4819720000000  0.4800650000000  0.4391660000000 1.0
C      1  0.6072370000000  0.4740630000000  0.5142810000000 1.0
C      1  0.5139100000000  0.4735930000000  0.3908680000000 1.0
C      1  0.3944270000000  0.4747140000000  0.4870900000000 1.0
C      1  0.4849460000000  0.4762450000000  0.6127780000000 1.0
C      1  0.3945380000000  0.4752100000000  0.5154540000000 1.0
C      1  0.4855440000000  0.4740380000000  0.3904810000000 1.0
C      1  0.6072120000000  0.4740060000000  0.4857970000000 1.0
C      1  0.5128900000000  0.4761030000000  0.6090110000000 1.0
C      1  0.4237090000000  0.5485110000000  0.5800270000000 1.0
C      1  0.4231010000000  0.5467280000000  0.4217700000000 1.0
C      1  0.5748830000000  0.5470010000000  0.4224080000000 1.0
C      1  0.5752760000000  0.5470800000000  0.5789670000000 1.0
END
