TITL C-2782237-5345-1159 0.00117157705301852 125000 -258.719262754679 0 0 48 (C2) n - 1
REM
REM in /home/nfs/bkarasulu/CARBON/AIRSS/Generating-Clusters/REBO/Higher-Symm/SD-CG/HFTN-CG
REM
REM
REM
REM
REM
REM ./C.cell (12c818d87b63d06a65506943cc24bca4)
REM
REM compiler GCC version 9.2.1 20190827 (Red Hat 9.2.1-1)
REM options -cpp -mtune=generic -march=x86-64 -g -O0 -fpre-include=/usr/include/finclude/math-vector-fortran.h
REM seed -2116508767 869454471 -1583959938 1063072461 1785443335 -390977169 -726703400 -1485708273 374018395 -1867259519 -707534396 222163968 1532497968 218511114 -1042184826 -910394472 182407306 1232498985 -1615497710 -819555331 44030457 1193653304 953102666 -366100831 1864581655 712869868 403960502 -1667473002 755127141 33747505 -795748742 -537284453 1763542753
REM
CELL 1.54180   50.00000   50.00000   50.00000   90.00000   90.00000   90.00000
LATT -1
SFAC C  
C      1  0.5035770000000  0.5498230000000  0.4684110000000 1.0
C      1  0.4965090000000  0.5498160000000  0.5316100000000 1.0
C      1  0.5022020000000  0.4554580000000  0.4662200000000 1.0
C      1  0.4977210000000  0.4554490000000  0.5337620000000 1.0
C      1  0.5228130000000  0.4449980000000  0.4892810000000 1.0
C      1  0.4770930000000  0.4450330000000  0.5106970000000 1.0
C      1  0.5268260000000  0.5547590000000  0.4907850000000 1.0
C      1  0.4732680000000  0.5548010000000  0.5092370000000 1.0
C      1  0.5188330000000  0.5667600000000  0.5195720000000 1.0
C      1  0.4812810000000  0.5668000000000  0.4804550000000 1.0
C      1  0.5147820000000  0.4341340000000  0.5180130000000 1.0
C      1  0.4851050000000  0.4341670000000  0.4819610000000 1.0
C      1  0.4745610000000  0.5297640000000  0.5481500000000 1.0
C      1  0.5254900000000  0.5297390000000  0.4518620000000 1.0
C      1  0.4776880000000  0.4748360000000  0.5516610000000 1.0
C      1  0.5222680000000  0.4748190000000  0.4483280000000 1.0
C      1  0.5215020000000  0.4104720000000  0.5273620000000 1.0
C      1  0.4783440000000  0.4105200000000  0.4726020000000 1.0
C      1  0.5300290000000  0.5879090000000  0.5304410000000 1.0
C      1  0.4701220000000  0.5879730000000  0.4695950000000 1.0
C      1  0.4462850000000  0.5343510000000  0.5072710000000 1.0
C      1  0.5537740000000  0.5342620000000  0.4927420000000 1.0
C      1  0.4473260000000  0.4613830000000  0.5105940000000 1.0
C      1  0.5526080000000  0.4612970000000  0.4893900000000 1.0
C      1  0.4616980000000  0.5131480000000  0.4630660000000 1.0
C      1  0.5383240000000  0.5130670000000  0.5369400000000 1.0
C      1  0.4592490000000  0.4820320000000  0.4651160000000 1.0
C      1  0.5407200000000  0.4819480000000  0.5348760000000 1.0
C      1  0.4381110000000  0.5264610000000  0.4788390000000 1.0
C      1  0.5619340000000  0.5263460000000  0.5211710000000 1.0
C      1  0.4369770000000  0.4696230000000  0.4827990000000 1.0
C      1  0.5629710000000  0.4695080000000  0.5171890000000 1.0
C      1  0.4477370000000  0.4809800000000  0.5369130000000 1.0
C      1  0.5522300000000  0.4809050000000  0.4630790000000 1.0
C      1  0.4489980000000  0.5134560000000  0.5327720000000 1.0
C      1  0.5510250000000  0.5133810000000  0.4672340000000 1.0
C      1  0.5235400000000  0.5283180000000  0.5115160000000 1.0
C      1  0.4765090000000  0.5283630000000  0.4884960000000 1.0
C      1  0.5242290000000  0.4717160000000  0.5088920000000 1.0
C      1  0.4757220000000  0.4717620000000  0.4910960000000 1.0
C      1  0.4802960000000  0.5163200000000  0.5171960000000 1.0
C      1  0.5197320000000  0.5162930000000  0.4828100000000 1.0
C      1  0.4769740000000  0.4864320000000  0.5193510000000 1.0
C      1  0.5230020000000  0.4864000000000  0.4806430000000 1.0
C      1  0.4930760000000  0.5205400000000  0.4536620000000 1.0
C      1  0.5069590000000  0.5205090000000  0.5463460000000 1.0
C      1  0.4912690000000  0.4866030000000  0.4563590000000 1.0
C      1  0.5087080000000  0.4865700000000  0.5436350000000 1.0
END
