TITL C-2782234-8014-1114 -0.00162735190127176 125000 -1030.5131219141 0 0 179 (C1) n - 1
REM
REM in /home/nfs/bkarasulu/CARBON/AIRSS/Generating-Clusters/REBO/Higher-Symm/SD-CG/HFTN-CG
REM
REM
REM
REM
REM
REM ./C.cell (12c818d87b63d06a65506943cc24bca4)
REM
REM compiler GCC version 9.2.1 20190827 (Red Hat 9.2.1-1)
REM options -cpp -mtune=generic -march=x86-64 -g -O0 -fpre-include=/usr/include/finclude/math-vector-fortran.h
REM seed 322285145 1354813948 -596977279 2065332272 -881921063 -166944748 538502789 -1123815004 476570135 769683200 -466523866 -694856567 -1276398754 1964569350 1681857498 1139893783 -1781725995 -404827396 1378558944 1399075778 1001563222 -418115872 -1725114720 394120303 -1681968339 -195841087 -293368656 -1725925410 1962347175 177062510 -1209625038 -1532164858 -503887530
REM
CELL 1.54180   50.00000   50.00000   50.00000   90.00000   90.00000   90.00000
LATT -1
SFAC C  
C      1  0.5660370000000  0.4467500000000  0.5295110000000 1.0
C      1  0.4319890000000  0.4484630000000  0.5305280000000 1.0
C      1  0.4053070000000  0.5445990000000  0.4611200000000 1.0
C      1  0.5911040000000  0.5420960000000  0.4674900000000 1.0
C      1  0.5711250000000  0.4133500000000  0.4849820000000 1.0
C      1  0.4301780000000  0.4168240000000  0.4845300000000 1.0
C      1  0.4452830000000  0.5464090000000  0.4990560000000 1.0
C      1  0.5485440000000  0.5410100000000  0.5021840000000 1.0
C      1  0.3978790000000  0.5348370000000  0.5308340000000 1.0
C      1  0.6046050000000  0.5347260000000  0.5357240000000 1.0
C      1  0.5459510000000  0.4263090000000  0.5442460000000 1.0
C      1  0.4530200000000  0.4288620000000  0.5466410000000 1.0
C      1  0.4400380000000  0.4795930000000  0.4212800000000 1.0
C      1  0.5557030000000  0.4804070000000  0.4233800000000 1.0
C      1  0.6185120000000  0.4835940000000  0.4768970000000 1.0
C      1  0.3815170000000  0.4885330000000  0.4831790000000 1.0
C      1  0.5607180000000  0.5697870000000  0.5484440000000 1.0
C      1  0.4355690000000  0.5754970000000  0.5512800000000 1.0
C      1  0.5464490000000  0.5866380000000  0.4834460000000 1.0
C      1  0.4509630000000  0.5892540000000  0.4777730000000 1.0
C      1  0.6275560000000  0.5400070000000  0.4838240000000 1.0
C      1  0.3751630000000  0.5278950000000  0.4813300000000 1.0
C      1  0.4593350000000  0.5346130000000  0.5486710000000 1.0
C      1  0.5398930000000  0.5292850000000  0.5426520000000 1.0
C      1  0.5251070000000  0.4952090000000  0.5287910000000 1.0
C      1  0.4601440000000  0.4986950000000  0.5316440000000 1.0
C      1  0.5420330000000  0.4864060000000  0.5026810000000 1.0
C      1  0.4521570000000  0.4895450000000  0.5019330000000 1.0
C      1  0.4062900000000  0.4370550000000  0.4890280000000 1.0
C      1  0.5932900000000  0.4358750000000  0.4890340000000 1.0
C      1  0.5848740000000  0.4983120000000  0.5688370000000 1.0
C      1  0.4144880000000  0.5013770000000  0.5675050000000 1.0
C      1  0.4369970000000  0.5305170000000  0.5244880000000 1.0
C      1  0.5672740000000  0.5254160000000  0.5242660000000 1.0
C      1  0.5938450000000  0.5617300000000  0.5192880000000 1.0
C      1  0.4078600000000  0.5629690000000  0.5154490000000 1.0
C      1  0.4221120000000  0.5482880000000  0.5496130000000 1.0
C      1  0.5761860000000  0.5439060000000  0.5504170000000 1.0
C      1  0.5160850000000  0.5381440000000  0.5252470000000 1.0
C      1  0.4769690000000  0.5421130000000  0.5228620000000 1.0
C      1  0.4283190000000  0.4808450000000  0.4711610000000 1.0
C      1  0.5685450000000  0.4806850000000  0.4735010000000 1.0
C      1  0.4595730000000  0.4394760000000  0.5712490000000 1.0
C      1  0.5392400000000  0.4363220000000  0.5701570000000 1.0
C      1  0.4734230000000  0.5385030000000  0.6004900000000 1.0
C      1  0.5222010000000  0.5322790000000  0.5939530000000 1.0
C      1  0.5325960000000  0.4749230000000  0.4553570000000 1.0
C      1  0.4659480000000  0.4747570000000  0.4512430000000 1.0
C      1  0.5440210000000  0.5650400000000  0.4642490000000 1.0
C      1  0.4539130000000  0.5666320000000  0.4603740000000 1.0
C      1  0.4077270000000  0.4580010000000  0.5106100000000 1.0
C      1  0.5906160000000  0.4574060000000  0.5100860000000 1.0
C      1  0.5746600000000  0.4379000000000  0.4624960000000 1.0
C      1  0.4244970000000  0.4414300000000  0.4626940000000 1.0
C      1  0.4184690000000  0.5585450000000  0.4842760000000 1.0
C      1  0.5771090000000  0.5530920000000  0.4923290000000 1.0
C      1  0.5326290000000  0.5094440000000  0.4035520000000 1.0
C      1  0.4663450000000  0.5133150000000  0.4028210000000 1.0
C      1  0.5254220000000  0.5076850000000  0.4497190000000 1.0
C      1  0.4724900000000  0.5067430000000  0.4509570000000 1.0
C      1  0.5322380000000  0.4803320000000  0.5961830000000 1.0
C      1  0.4669200000000  0.4839770000000  0.5959740000000 1.0
C      1  0.5249810000000  0.4745560000000  0.4122200000000 1.0
C      1  0.4644800000000  0.4864010000000  0.4086400000000 1.0
C      1  0.5373450000000  0.4450870000000  0.4209590000000 1.0
C      1  0.4553430000000  0.4310820000000  0.4271100000000 1.0
C      1  0.5707830000000  0.5242330000000  0.5765940000000 1.0
C      1  0.4291700000000  0.5267990000000  0.5746090000000 1.0
C      1  0.5378260000000  0.4581590000000  0.5214950000000 1.0
C      1  0.4587730000000  0.4608740000000  0.5196710000000 1.0
C      1  0.5231880000000  0.5633700000000  0.5061020000000 1.0
C      1  0.4690930000000  0.5681900000000  0.5063970000000 1.0
C      1  0.5566750000000  0.5057610000000  0.4626050000000 1.0
C      1  0.4403540000000  0.5061900000000  0.4607870000000 1.0
C      1  0.5161060000000  0.4359170000000  0.5076170000000 1.0
C      1  0.4755430000000  0.4362560000000  0.5145350000000 1.0
C      1  0.5433610000000  0.5436510000000  0.5731940000000 1.0
C      1  0.4539210000000  0.5499590000000  0.5775690000000 1.0
C      1  0.4530120000000  0.5881590000000  0.5263840000000 1.0
C      1  0.5420360000000  0.5825230000000  0.5230400000000 1.0
C      1  0.5997020000000  0.5014260000000  0.5414600000000 1.0
C      1  0.3981870000000  0.5035730000000  0.5417960000000 1.0
C      1  0.3920320000000  0.5230630000000  0.5003520000000 1.0
C      1  0.6125850000000  0.5311460000000  0.5028050000000 1.0
C      1  0.4222380000000  0.5000020000000  0.4257400000000 1.0
C      1  0.5724460000000  0.5020200000000  0.4261110000000 1.0
C      1  0.4406100000000  0.4543720000000  0.4405770000000 1.0
C      1  0.5583180000000  0.4546990000000  0.4449870000000 1.0
C      1  0.5456900000000  0.4293870000000  0.3993950000000 1.0
C      1  0.4529650000000  0.4242670000000  0.4006450000000 1.0
C      1  0.5242490000000  0.6043440000000  0.4872510000000 1.0
C      1  0.4736400000000  0.6061840000000  0.4828650000000 1.0
C      1  0.4657130000000  0.5078720000000  0.5639680000000 1.0
C      1  0.5312300000000  0.5064710000000  0.5647980000000 1.0
C      1  0.4276940000000  0.4748140000000  0.5703810000000 1.0
C      1  0.5715820000000  0.4714280000000  0.5711710000000 1.0
C      1  0.5265720000000  0.4282660000000  0.4471430000000 1.0
C      1  0.4727190000000  0.4209220000000  0.4470570000000 1.0
C      1  0.5263620000000  0.5287740000000  0.4276370000000 1.0
C      1  0.4724410000000  0.5290510000000  0.4284060000000 1.0
C      1  0.5738540000000  0.5272760000000  0.4467450000000 1.0
C      1  0.4236370000000  0.5273850000000  0.4435820000000 1.0
C      1  0.5372030000000  0.4307980000000  0.4742450000000 1.0
C      1  0.4651620000000  0.4336930000000  0.4761060000000 1.0
C      1  0.5475570000000  0.4611910000000  0.5817640000000 1.0
C      1  0.4514620000000  0.4648390000000  0.5816420000000 1.0
C      1  0.5449230000000  0.4593650000000  0.4822370000000 1.0
C      1  0.4533160000000  0.4629860000000  0.4801430000000 1.0
C      1  0.5243730000000  0.5416880000000  0.4707530000000 1.0
C      1  0.4726540000000  0.5436430000000  0.4706720000000 1.0
C      1  0.5498900000000  0.5460850000000  0.4404070000000 1.0
C      1  0.4485800000000  0.5457970000000  0.4387580000000 1.0
C      1  0.4716580000000  0.5922900000000  0.5530470000000 1.0
C      1  0.5257660000000  0.5887330000000  0.5511640000000 1.0
C      1  0.5883300000000  0.4692680000000  0.5418710000000 1.0
C      1  0.4095900000000  0.4713780000000  0.5417560000000 1.0
C      1  0.4319100000000  0.5838180000000  0.5029280000000 1.0
C      1  0.5700920000000  0.5826610000000  0.5065800000000 1.0
C      1  0.5380730000000  0.5159580000000  0.4865010000000 1.0
C      1  0.4565260000000  0.5189970000000  0.4853710000000 1.0
C      1  0.4200290000000  0.5078290000000  0.5115060000000 1.0
C      1  0.5903080000000  0.5079130000000  0.5102240000000 1.0
C      1  0.4723370000000  0.4062140000000  0.5300030000000 1.0
C      1  0.5340940000000  0.4064750000000  0.5274160000000 1.0
C      1  0.4540200000000  0.5811180000000  0.5757460000000 1.0
C      1  0.5427440000000  0.5757180000000  0.5731260000000 1.0
C      1  0.4577790000000  0.4117820000000  0.4995260000000 1.0
C      1  0.5437230000000  0.4084990000000  0.4989360000000 1.0
C      1  0.5920140000000  0.4832300000000  0.4926970000000 1.0
C      1  0.4074830000000  0.4838190000000  0.4933630000000 1.0
C      1  0.4731080000000  0.4724320000000  0.5471600000000 1.0
C      1  0.5252510000000  0.4717220000000  0.5502860000000 1.0
C      1  0.5456880000000  0.5097530000000  0.5940100000000 1.0
C      1  0.4541070000000  0.5134230000000  0.5935790000000 1.0
C      1  0.4983810000000  0.5515560000000  0.5825230000000 1.0
C      1  0.5011120000000  0.4430960000000  0.3947870000000 1.0
C      1  0.5023990000000  0.6279160000000  0.4502680000000 1.0
C      1  0.5044640000000  0.3807180000000  0.4750390000000 1.0
C      1  0.4962120000000  0.4398310000000  0.4732830000000 1.0
C      1  0.5037850000000  0.3672880000000  0.5511190000000 1.0
C      1  0.4993390000000  0.5630730000000  0.4047170000000 1.0
C      1  0.5016710000000  0.4655590000000  0.3794690000000 1.0
C      1  0.4999200000000  0.5896970000000  0.4137680000000 1.0
C      1  0.4976860000000  0.4687390000000  0.5682280000000 1.0
C      1  0.5044910000000  0.4155560000000  0.5623770000000 1.0
C      1  0.4962240000000  0.5497140000000  0.5495960000000 1.0
C      1  0.4999440000000  0.6176310000000  0.4785940000000 1.0
C      1  0.4972390000000  0.5752410000000  0.4920330000000 1.0
C      1  0.5036630000000  0.3839350000000  0.5057450000000 1.0
C      1  0.4933520000000  0.4751700000000  0.4173600000000 1.0
C      1  0.4988770000000  0.5015480000000  0.5678170000000 1.0
C      1  0.4984770000000  0.5200490000000  0.3799840000000 1.0
C      1  0.5029670000000  0.5807960000000  0.5912260000000 1.0
C      1  0.4991080000000  0.5509490000000  0.4574270000000 1.0
C      1  0.5004040000000  0.4509460000000  0.5933010000000 1.0
C      1  0.4988140000000  0.5475420000000  0.3809120000000 1.0
C      1  0.5054260000000  0.4118780000000  0.4884640000000 1.0
C      1  0.4980780000000  0.5812900000000  0.5515490000000 1.0
C      1  0.5050560000000  0.5010370000000  0.5049090000000 1.0
C      1  0.4964000000000  0.5305640000000  0.4973980000000 1.0
C      1  0.4925870000000  0.5048870000000  0.5345110000000 1.0
C      1  0.5049270000000  0.3810830000000  0.4482930000000 1.0
C      1  0.4917350000000  0.4559880000000  0.4448640000000 1.0
C      1  0.5014920000000  0.4623200000000  0.4959400000000 1.0
C      1  0.4994730000000  0.5436120000000  0.4275100000000 1.0
C      1  0.5037950000000  0.4250390000000  0.5873480000000 1.0
C      1  0.4984470000000  0.5815250000000  0.4615900000000 1.0
C      1  0.5106450000000  0.4845100000000  0.4781940000000 1.0
C      1  0.5067600000000  0.6049830000000  0.5984270000000 1.0
C      1  0.4955880000000  0.5152500000000  0.5989370000000 1.0
C      1  0.5012100000000  0.4328440000000  0.5369370000000 1.0
C      1  0.4996010000000  0.4827580000000  0.6053580000000 1.0
C      1  0.5034160000000  0.3930070000000  0.5367460000000 1.0
C      1  0.4980930000000  0.4938160000000  0.3882880000000 1.0
C      1  0.5001370000000  0.5999280000000  0.4402740000000 1.0
C      1  0.4982660000000  0.4356580000000  0.4201470000000 1.0
C      1  0.4991350000000  0.4650120000000  0.5286720000000 1.0
C      1  0.4972190000000  0.5125510000000  0.4679710000000 1.0
C      1  0.5014870000000  0.4091910000000  0.4383680000000 1.0
END
