TITL C-2782229-3092-369 -0.00375839456238242 125000 -535.367905051854 0 0 92 (C1) n - 1
REM
REM in /home/nfs/bkarasulu/CARBON/AIRSS/Generating-Clusters/REBO/Higher-Symm/SD-CG/HFTN-CG
REM
REM
REM
REM
REM
REM ./C.cell (12c818d87b63d06a65506943cc24bca4)
REM
REM compiler GCC version 9.2.1 20190827 (Red Hat 9.2.1-1)
REM options -cpp -mtune=generic -march=x86-64 -g -O0 -fpre-include=/usr/include/finclude/math-vector-fortran.h
REM seed 1768947722 536818750 -883412702 -2059124970 1419391032 1444600075 -654269031 1981512578 -1305144215 -1703710124 1981204341 1574585123 -820776123 -1493524369 -2144271983 -5029677 1425197166 -135330213 -1399841125 1279624296 -377075282 -934627124 1012674762 221407512 -1811985237 1839832659 1157578153 135497069 -1814598510 -1302443595 387077132 -545058951 -1771902825
REM
CELL 1.54180   50.00000   50.00000   50.00000   90.00000   90.00000   90.00000
LATT -1
SFAC C  
C      1  0.4874930000000  0.4524060000000  0.5454310000000 1.0
C      1  0.4768850000000  0.5497020000000  0.5222270000000 1.0
C      1  0.4793300000000  0.4924750000000  0.4375360000000 1.0
C      1  0.4702240000000  0.5002560000000  0.5386010000000 1.0
C      1  0.4427490000000  0.5351690000000  0.4678230000000 1.0
C      1  0.4489680000000  0.4663400000000  0.5051430000000 1.0
C      1  0.4825930000000  0.5593090000000  0.4872030000000 1.0
C      1  0.4799800000000  0.4654680000000  0.4584980000000 1.0
C      1  0.4933310000000  0.4806890000000  0.5379240000000 1.0
C      1  0.5757270000000  0.4909140000000  0.5349310000000 1.0
C      1  0.5720800000000  0.5453710000000  0.4897530000000 1.0
C      1  0.5679730000000  0.4616760000000  0.4639160000000 1.0
C      1  0.5275570000000  0.5402220000000  0.5569600000000 1.0
C      1  0.5262170000000  0.5238470000000  0.4354380000000 1.0
C      1  0.5254600000000  0.4315490000000  0.5127850000000 1.0
C      1  0.5509250000000  0.5050760000000  0.4328500000000 1.0
C      1  0.5514330000000  0.4401030000000  0.5268420000000 1.0
C      1  0.5505740000000  0.5543290000000  0.5413360000000 1.0
C      1  0.5485830000000  0.4814520000000  0.4547120000000 1.0
C      1  0.5495660000000  0.4722780000000  0.5359180000000 1.0
C      1  0.5477480000000  0.5476160000000  0.5082770000000 1.0
C      1  0.4877820000000  0.5834870000000  0.5048880000000 1.0
C      1  0.4925850000000  0.4559200000000  0.4304820000000 1.0
C      1  0.4991350000000  0.4571510000000  0.5833330000000 1.0
C      1  0.4784490000000  0.4208530000000  0.5105700000000 1.0
C      1  0.4783520000000  0.5263780000000  0.5552630000000 1.0
C      1  0.4830780000000  0.5410960000000  0.4228080000000 1.0
C      1  0.4216800000000  0.5373570000000  0.4923120000000 1.0
C      1  0.4389690000000  0.5016900000000  0.4763080000000 1.0
C      1  0.4370000000000  0.4907970000000  0.5147100000000 1.0
C      1  0.4064400000000  0.4891870000000  0.5223290000000 1.0
C      1  0.3955060000000  0.5245660000000  0.4917190000000 1.0
C      1  0.4143450000000  0.4841740000000  0.4757360000000 1.0
C      1  0.4075290000000  0.4684260000000  0.4996260000000 1.0
C      1  0.3925550000000  0.5145760000000  0.5194760000000 1.0
C      1  0.3946470000000  0.5059730000000  0.4682950000000 1.0
C      1  0.5612560000000  0.4426630000000  0.5808190000000 1.0
C      1  0.5390260000000  0.5891520000000  0.4941550000000 1.0
C      1  0.5413800000000  0.4503480000000  0.4281950000000 1.0
C      1  0.5362140000000  0.5142470000000  0.5648380000000 1.0
C      1  0.5313680000000  0.5446610000000  0.4537240000000 1.0
C      1  0.5276360000000  0.4354960000000  0.4848500000000 1.0
C      1  0.4424560000000  0.4433720000000  0.5242770000000 1.0
C      1  0.4257030000000  0.5454050000000  0.5385330000000 1.0
C      1  0.4324000000000  0.5203970000000  0.4416980000000 1.0
C      1  0.5750610000000  0.5390410000000  0.5523780000000 1.0
C      1  0.5731910000000  0.5239670000000  0.4430860000000 1.0
C      1  0.5722700000000  0.4356350000000  0.5050460000000 1.0
C      1  0.4601620000000  0.5598420000000  0.4663110000000 1.0
C      1  0.4562900000000  0.4566070000000  0.4745900000000 1.0
C      1  0.4482800000000  0.4942220000000  0.5613600000000 1.0
C      1  0.5957700000000  0.5305700000000  0.5067980000000 1.0
C      1  0.6018140000000  0.5055300000000  0.4910750000000 1.0
C      1  0.5917140000000  0.4832280000000  0.5060030000000 1.0
C      1  0.5186030000000  0.4929340000000  0.5566300000000 1.0
C      1  0.5098750000000  0.5507020000000  0.4767910000000 1.0
C      1  0.5091600000000  0.4571610000000  0.4688850000000 1.0
C      1  0.4447400000000  0.5836240000000  0.4689080000000 1.0
C      1  0.4332100000000  0.4532950000000  0.4587080000000 1.0
C      1  0.4233110000000  0.4858620000000  0.5648660000000 1.0
C      1  0.5251050000000  0.5298020000000  0.4961720000000 1.0
C      1  0.5254160000000  0.4836820000000  0.4738490000000 1.0
C      1  0.5232010000000  0.4867590000000  0.5238040000000 1.0
C      1  0.4505870000000  0.5027020000000  0.4319690000000 1.0
C      1  0.4579980000000  0.4435780000000  0.5476270000000 1.0
C      1  0.4509280000000  0.5482100000000  0.5297250000000 1.0
C      1  0.5058810000000  0.4815150000000  0.4184210000000 1.0
C      1  0.5133450000000  0.4394640000000  0.5615610000000 1.0
C      1  0.5041650000000  0.5739350000000  0.5279680000000 1.0
C      1  0.5879500000000  0.5216300000000  0.4691340000000 1.0
C      1  0.5839590000000  0.4605780000000  0.4913540000000 1.0
C      1  0.5897580000000  0.5221280000000  0.5326750000000 1.0
C      1  0.5260170000000  0.4400270000000  0.4456150000000 1.0
C      1  0.4969910000000  0.4840190000000  0.5777190000000 1.0
C      1  0.5277590000000  0.5784970000000  0.4742610000000 1.0
C      1  0.4991400000000  0.5163950000000  0.4268240000000 1.0
C      1  0.5012350000000  0.4291860000000  0.5283580000000 1.0
C      1  0.5001180000000  0.5473190000000  0.5468480000000 1.0
C      1  0.5558730000000  0.4359860000000  0.4777450000000 1.0
C      1  0.5639370000000  0.5107710000000  0.5602680000000 1.0
C      1  0.5591000000000  0.5466430000000  0.4591350000000 1.0
C      1  0.4167780000000  0.4429320000000  0.5086930000000 1.0
C      1  0.4007590000000  0.5342570000000  0.5386580000000 1.0
C      1  0.4039170000000  0.5169750000000  0.4430470000000 1.0
C      1  0.4751660000000  0.5027350000000  0.5779010000000 1.0
C      1  0.4721980000000  0.5573840000000  0.4377560000000 1.0
C      1  0.4645140000000  0.4315080000000  0.4931170000000 1.0
C      1  0.5427020000000  0.4467460000000  0.5574610000000 1.0
C      1  0.5343760000000  0.5758380000000  0.5223040000000 1.0
C      1  0.5360330000000  0.4787830000000  0.4201210000000 1.0
C      1  0.4448880000000  0.5182750000000  0.5039040000000 1.0
C      1  0.5240630000000  0.5007890000000  0.4970140000000 1.0
END
