TITL C-2782234-8014-188 -0.000638654367006344 125000 -1086.86099812224 0 0 183 (C1) n - 1
REM
REM in /home/nfs/bkarasulu/CARBON/AIRSS/Generating-Clusters/REBO/Higher-Symm/SD-CG/HFTN-CG
REM
REM
REM
REM
REM
REM ./C.cell (12c818d87b63d06a65506943cc24bca4)
REM
REM compiler GCC version 9.2.1 20190827 (Red Hat 9.2.1-1)
REM options -cpp -mtune=generic -march=x86-64 -g -O0 -fpre-include=/usr/include/finclude/math-vector-fortran.h
REM seed -368900640 1359661211 634186617 1121933560 1570573522 -1409372602 1969275813 -1819121843 651228304 -1660542313 1458686792 234981055 1827374192 1437002179 -1415970231 866835332 1764523021 1534489102 1099399833 1776130346 1431627076 1989436194 -886194041 771885365 -1806886673 -690672731 1401374212 321674862 1412714069 -680144958 1533927112 -836460699 -344394417
REM
CELL 1.54180   50.00000   50.00000   50.00000   90.00000   90.00000   90.00000
LATT -1
SFAC C  
C      1  0.5133830000000  0.4597960000000  0.4947660000000 1.0
C      1  0.5106270000000  0.4861090000000  0.5533690000000 1.0
C      1  0.5145950000000  0.5270090000000  0.5347590000000 1.0
C      1  0.5090820000000  0.5423430000000  0.4717770000000 1.0
C      1  0.5051310000000  0.4856620000000  0.4504660000000 1.0
C      1  0.5362940000000  0.5245160000000  0.4133580000000 1.0
C      1  0.5421240000000  0.4226070000000  0.4433050000000 1.0
C      1  0.5381350000000  0.4242550000000  0.5559630000000 1.0
C      1  0.5377830000000  0.5291120000000  0.5927900000000 1.0
C      1  0.5425460000000  0.5932890000000  0.4967750000000 1.0
C      1  0.4556960000000  0.3872820000000  0.4786490000000 1.0
C      1  0.4565410000000  0.4470580000000  0.6071480000000 1.0
C      1  0.4623910000000  0.5936560000000  0.5829090000000 1.0
C      1  0.4567940000000  0.6065230000000  0.4503490000000 1.0
C      1  0.4468710000000  0.4863160000000  0.3813440000000 1.0
C      1  0.4532490000000  0.4773450000000  0.5921830000000 1.0
C      1  0.4592450000000  0.5847200000000  0.5528910000000 1.0
C      1  0.4518080000000  0.5749780000000  0.4397370000000 1.0
C      1  0.4479330000000  0.4644130000000  0.4058120000000 1.0
C      1  0.4584950000000  0.4048920000000  0.5052350000000 1.0
C      1  0.5847160000000  0.4561950000000  0.4335910000000 1.0
C      1  0.5829010000000  0.4310250000000  0.5218660000000 1.0
C      1  0.5791760000000  0.4960070000000  0.5758370000000 1.0
C      1  0.5855590000000  0.5706500000000  0.5207970000000 1.0
C      1  0.5795150000000  0.5429530000000  0.4407590000000 1.0
C      1  0.5076870000000  0.5731360000000  0.4324890000000 1.0
C      1  0.5101640000000  0.4543010000000  0.4072680000000 1.0
C      1  0.5117330000000  0.4064470000000  0.5117260000000 1.0
C      1  0.5043090000000  0.4858220000000  0.6045570000000 1.0
C      1  0.5209620000000  0.5798550000000  0.5425580000000 1.0
C      1  0.4339020000000  0.5798270000000  0.5301270000000 1.0
C      1  0.4422060000000  0.5480750000000  0.4311930000000 1.0
C      1  0.4376420000000  0.4439440000000  0.4255870000000 1.0
C      1  0.4436450000000  0.4244660000000  0.5266260000000 1.0
C      1  0.4446590000000  0.5009200000000  0.5763530000000 1.0
C      1  0.4133200000000  0.5104980000000  0.5691780000000 1.0
C      1  0.4219150000000  0.5724380000000  0.5030000000000 1.0
C      1  0.4216040000000  0.5222440000000  0.4282020000000 1.0
C      1  0.4238740000000  0.4444820000000  0.4515490000000 1.0
C      1  0.4234980000000  0.4421330000000  0.5441030000000 1.0
C      1  0.4872140000000  0.5198390000000  0.3827200000000 1.0
C      1  0.4940190000000  0.3961750000000  0.4441720000000 1.0
C      1  0.4954030000000  0.4180120000000  0.5853390000000 1.0
C      1  0.4975840000000  0.5597340000000  0.6058270000000 1.0
C      1  0.4934410000000  0.6163570000000  0.4865050000000 1.0
C      1  0.4730230000000  0.6192660000000  0.4678130000000 1.0
C      1  0.4649910000000  0.5054100000000  0.3751510000000 1.0
C      1  0.4720840000000  0.3855800000000  0.4572880000000 1.0
C      1  0.4737980000000  0.4270700000000  0.6006880000000 1.0
C      1  0.4722120000000  0.5739750000000  0.5992570000000 1.0
C      1  0.5770500000000  0.4391520000000  0.4736570000000 1.0
C      1  0.5604840000000  0.4698200000000  0.5520950000000 1.0
C      1  0.5800640000000  0.5322310000000  0.5589650000000 1.0
C      1  0.5746680000000  0.5609390000000  0.4788500000000 1.0
C      1  0.5561710000000  0.4871500000000  0.4405480000000 1.0
C      1  0.4387120000000  0.5780370000000  0.4805030000000 1.0
C      1  0.4358830000000  0.5013890000000  0.4166400000000 1.0
C      1  0.4411800000000  0.4299020000000  0.4698420000000 1.0
C      1  0.4372860000000  0.4519090000000  0.5660370000000 1.0
C      1  0.4112150000000  0.5340350000000  0.5901010000000 1.0
C      1  0.5316160000000  0.5281140000000  0.4527860000000 1.0
C      1  0.5370220000000  0.4615670000000  0.4507750000000 1.0
C      1  0.5350720000000  0.4515550000000  0.5272430000000 1.0
C      1  0.5405650000000  0.4932240000000  0.5567310000000 1.0
C      1  0.5355310000000  0.5559700000000  0.5087500000000 1.0
C      1  0.4224190000000  0.4783510000000  0.4866690000000 1.0
C      1  0.4257990000000  0.4839590000000  0.5184830000000 1.0
C      1  0.4342770000000  0.5160500000000  0.5248900000000 1.0
C      1  0.4271810000000  0.5261980000000  0.4963260000000 1.0
C      1  0.4229270000000  0.5056790000000  0.4726250000000 1.0
C      1  0.6024370000000  0.5529320000000  0.5195750000000 1.0
C      1  0.5978120000000  0.5356290000000  0.4552980000000 1.0
C      1  0.5994490000000  0.4688280000000  0.4485770000000 1.0
C      1  0.5999210000000  0.4451820000000  0.5112540000000 1.0
C      1  0.5956420000000  0.4936300000000  0.5577610000000 1.0
C      1  0.4977600000000  0.6131760000000  0.5159390000000 1.0
C      1  0.4979880000000  0.5467130000000  0.3891250000000 1.0
C      1  0.5021030000000  0.4039000000000  0.4174780000000 1.0
C      1  0.4977700000000  0.3981750000000  0.5648370000000 1.0
C      1  0.4982290000000  0.5357280000000  0.6215540000000 1.0
C      1  0.3872820000000  0.5242950000000  0.4981040000000 1.0
C      1  0.3832450000000  0.5082530000000  0.4730750000000 1.0
C      1  0.3830750000000  0.4786370000000  0.4814580000000 1.0
C      1  0.3869040000000  0.4779570000000  0.5119640000000 1.0
C      1  0.3877810000000  0.5060160000000  0.5215170000000 1.0
C      1  0.4796910000000  0.5860990000000  0.4246950000000 1.0
C      1  0.4794420000000  0.4561930000000  0.3977540000000 1.0
C      1  0.4842650000000  0.3959230000000  0.5230370000000 1.0
C      1  0.4751550000000  0.4827840000000  0.6153810000000 1.0
C      1  0.4750820000000  0.6056020000000  0.5307530000000 1.0
C      1  0.4539350000000  0.5234290000000  0.4515350000000 1.0
C      1  0.4654480000000  0.4613200000000  0.4655450000000 1.0
C      1  0.4518430000000  0.4538840000000  0.5186740000000 1.0
C      1  0.4620020000000  0.5038260000000  0.5509450000000 1.0
C      1  0.4626990000000  0.5411500000000  0.5067930000000 1.0
C      1  0.4928440000000  0.5120730000000  0.5558370000000 1.0
C      1  0.5047650000000  0.5313570000000  0.5037750000000 1.0
C      1  0.5005170000000  0.5103870000000  0.4700010000000 1.0
C      1  0.4952680000000  0.4640750000000  0.4699980000000 1.0
C      1  0.5048650000000  0.4769060000000  0.5216100000000 1.0
C      1  0.5421260000000  0.4536200000000  0.5957190000000 1.0
C      1  0.5479270000000  0.5647140000000  0.5779390000000 1.0
C      1  0.5533530000000  0.5912390000000  0.4482960000000 1.0
C      1  0.5501790000000  0.4807110000000  0.3934310000000 1.0
C      1  0.5549240000000  0.3989450000000  0.4855780000000 1.0
C      1  0.4038150000000  0.5157230000000  0.4497170000000 1.0
C      1  0.4048340000000  0.4607770000000  0.4660750000000 1.0
C      1  0.4065000000000  0.4595840000000  0.5290110000000 1.0
C      1  0.4079880000000  0.5114460000000  0.5416480000000 1.0
C      1  0.4055440000000  0.5490230000000  0.5000410000000 1.0
C      1  0.5413470000000  0.4561870000000  0.4020090000000 1.0
C      1  0.5424600000000  0.4039850000000  0.5090560000000 1.0
C      1  0.5359770000000  0.4801560000000  0.6031920000000 1.0
C      1  0.5480420000000  0.5789770000000  0.5542260000000 1.0
C      1  0.5393810000000  0.5736940000000  0.4327250000000 1.0
C      1  0.5014700000000  0.4670150000000  0.5762470000000 1.0
C      1  0.5045860000000  0.5539000000000  0.5531750000000 1.0
C      1  0.5000630000000  0.5691800000000  0.4630650000000 1.0
C      1  0.4989870000000  0.4824070000000  0.4207150000000 1.0
C      1  0.5040590000000  0.4274350000000  0.4893580000000 1.0
C      1  0.4855710000000  0.4380290000000  0.5520780000000 1.0
C      1  0.4654090000000  0.5454240000000  0.5869690000000 1.0
C      1  0.4728390000000  0.5680410000000  0.4987820000000 1.0
C      1  0.4718520000000  0.5208130000000  0.4253610000000 1.0
C      1  0.4785880000000  0.4338610000000  0.4502760000000 1.0
C      1  0.4616670000000  0.5413080000000  0.4045960000000 1.0
C      1  0.4590210000000  0.4254480000000  0.4282980000000 1.0
C      1  0.4711220000000  0.4163780000000  0.5412420000000 1.0
C      1  0.4407240000000  0.5293850000000  0.5907580000000 1.0
C      1  0.4579540000000  0.5891700000000  0.5136310000000 1.0
C      1  0.4500740000000  0.4666560000000  0.4919650000000 1.0
C      1  0.4568340000000  0.4813760000000  0.5327740000000 1.0
C      1  0.4597510000000  0.5333890000000  0.5370670000000 1.0
C      1  0.4573220000000  0.5226940000000  0.4828780000000 1.0
C      1  0.4501730000000  0.4907680000000  0.4602290000000 1.0
C      1  0.5044170000000  0.5657500000000  0.5034980000000 1.0
C      1  0.5015770000000  0.5230770000000  0.4377950000000 1.0
C      1  0.5104900000000  0.4461440000000  0.4491260000000 1.0
C      1  0.5079520000000  0.4487200000000  0.5397470000000 1.0
C      1  0.4906490000000  0.5267020000000  0.5807440000000 1.0
C      1  0.5615390000000  0.5845160000000  0.4745910000000 1.0
C      1  0.5529280000000  0.4993330000000  0.4145390000000 1.0
C      1  0.5624040000000  0.4173750000000  0.4656730000000 1.0
C      1  0.5550270000000  0.4477450000000  0.5691490000000 1.0
C      1  0.5665230000000  0.5419780000000  0.5812390000000 1.0
C      1  0.5128750000000  0.4153730000000  0.4593190000000 1.0
C      1  0.5176010000000  0.4386640000000  0.5793500000000 1.0
C      1  0.5181350000000  0.5553600000000  0.5834470000000 1.0
C      1  0.5123120000000  0.5913190000000  0.4832180000000 1.0
C      1  0.5058570000000  0.5113700000000  0.4065600000000 1.0
C      1  0.5204490000000  0.4247550000000  0.4171130000000 1.0
C      1  0.5161310000000  0.4043700000000  0.5451520000000 1.0
C      1  0.5144570000000  0.5159360000000  0.6109750000000 1.0
C      1  0.5206690000000  0.5982050000000  0.5216070000000 1.0
C      1  0.5150780000000  0.5500950000000  0.4104710000000 1.0
C      1  0.5498770000000  0.5456100000000  0.4339570000000 1.0
C      1  0.5557690000000  0.4479370000000  0.4275800000000 1.0
C      1  0.5537910000000  0.4252300000000  0.5272960000000 1.0
C      1  0.5490290000000  0.5012020000000  0.5856570000000 1.0
C      1  0.5559130000000  0.5769850000000  0.5234610000000 1.0
C      1  0.4679930000000  0.4903100000000  0.4150440000000 1.0
C      1  0.4717250000000  0.4237800000000  0.4816210000000 1.0
C      1  0.4697460000000  0.4574470000000  0.5709880000000 1.0
C      1  0.4725990000000  0.5543910000000  0.5555300000000 1.0
C      1  0.4690880000000  0.5726560000000  0.4675690000000 1.0
C      1  0.6033040000000  0.5221940000000  0.5134130000000 1.0
C      1  0.6047720000000  0.5176930000000  0.4809770000000 1.0
C      1  0.6051520000000  0.4871170000000  0.4742460000000 1.0
C      1  0.6060430000000  0.4729490000000  0.5021430000000 1.0
C      1  0.6047950000000  0.4938700000000  0.5264630000000 1.0
C      1  0.5411060000000  0.4759690000000  0.4815370000000 1.0
C      1  0.5442640000000  0.4787600000000  0.5153570000000 1.0
C      1  0.5443080000000  0.5106570000000  0.5285500000000 1.0
C      1  0.5452540000000  0.5276120000000  0.5007620000000 1.0
C      1  0.5441190000000  0.5090040000000  0.4735510000000 1.0
C      1  0.5763800000000  0.5207670000000  0.5344600000000 1.0
C      1  0.5744940000000  0.5307860000000  0.4873830000000 1.0
C      1  0.5745940000000  0.4978060000000  0.4631960000000 1.0
C      1  0.5740590000000  0.4649560000000  0.4858440000000 1.0
C      1  0.5751580000000  0.4801160000000  0.5262250000000 1.0
C      1  0.4694260000000  0.4936900000000  0.4886600000000 1.0
C      1  0.5742730000000  0.4977680000000  0.4972030000000 1.0
C      1  0.4967210000000  0.4989730000000  0.5014210000000 1.0
END
