TITL C-2782238-9940-53 -0.00138996356944121 125000 -474.319674164104 0 0 87 (C1) n - 1
REM
REM in /home/nfs/bkarasulu/CARBON/AIRSS/Generating-Clusters/REBO/Higher-Symm/SD-CG/HFTN-CG
REM
REM
REM
REM
REM
REM ./C.cell (12c818d87b63d06a65506943cc24bca4)
REM
REM compiler GCC version 9.2.1 20190827 (Red Hat 9.2.1-1)
REM options -cpp -mtune=generic -march=x86-64 -g -O0 -fpre-include=/usr/include/finclude/math-vector-fortran.h
REM seed -2127550653 -1363514209 -985136506 -1141663933 -1522462545 -1541334796 -505842254 -765017397 1338428712 2104801476 -1996298006 113021971 -1834064700 -860951903 53445264 -394832348 -359869789 614088740 618260346 -1472795635 -501204662 1766253602 -1819082889 1342195110 -1577717623 930034267 -1704011368 -950127305 -81199131 900382288 -1451033177 1143798843 -510267599
REM
CELL 1.54180   50.00000   50.00000   50.00000   90.00000   90.00000   90.00000
LATT -1
SFAC C  
C      1  0.5283120000000  0.5546320000000  0.4444490000000 1.0
C      1  0.5694330000000  0.4858360000000  0.4488380000000 1.0
C      1  0.5091140000000  0.4393720000000  0.4461370000000 1.0
C      1  0.4379030000000  0.4724080000000  0.4477990000000 1.0
C      1  0.4559140000000  0.5489870000000  0.4436760000000 1.0
C      1  0.5313790000000  0.5587620000000  0.5525600000000 1.0
C      1  0.5623470000000  0.4857640000000  0.5557580000000 1.0
C      1  0.5085170000000  0.4319380000000  0.5542900000000 1.0
C      1  0.4386840000000  0.4747020000000  0.5558340000000 1.0
C      1  0.4587420000000  0.5516050000000  0.5521100000000 1.0
C      1  0.5282000000000  0.5023050000000  0.4660050000000 1.0
C      1  0.5065590000000  0.4777390000000  0.4589210000000 1.0
C      1  0.4776980000000  0.4877310000000  0.4548840000000 1.0
C      1  0.4813180000000  0.5201300000000  0.4551410000000 1.0
C      1  0.5113170000000  0.5290320000000  0.4598010000000 1.0
C      1  0.5245850000000  0.4942890000000  0.5462720000000 1.0
C      1  0.5038450000000  0.4699320000000  0.5442030000000 1.0
C      1  0.4744760000000  0.4860240000000  0.5443230000000 1.0
C      1  0.4793690000000  0.5171310000000  0.5435360000000 1.0
C      1  0.5110640000000  0.5206480000000  0.5403200000000 1.0
C      1  0.5217260000000  0.5317830000000  0.4917330000000 1.0
C      1  0.5309870000000  0.4800170000000  0.4904810000000 1.0
C      1  0.5038410000000  0.4640200000000  0.4882560000000 1.0
C      1  0.4661470000000  0.4988880000000  0.4848850000000 1.0
C      1  0.4788920000000  0.5284890000000  0.4880780000000 1.0
C      1  0.5248310000000  0.5310250000000  0.5169970000000 1.0
C      1  0.5360290000000  0.4814960000000  0.5203580000000 1.0
C      1  0.4905050000000  0.4661720000000  0.5139230000000 1.0
C      1  0.4678360000000  0.4876070000000  0.5114710000000 1.0
C      1  0.4820560000000  0.5344940000000  0.5169630000000 1.0
C      1  0.4984210000000  0.5256930000000  0.4172210000000 1.0
C      1  0.5234960000000  0.5112990000000  0.4236110000000 1.0
C      1  0.5234330000000  0.4833700000000  0.4314560000000 1.0
C      1  0.4787890000000  0.4783620000000  0.4226180000000 1.0
C      1  0.4621340000000  0.5140730000000  0.4292220000000 1.0
C      1  0.5030150000000  0.5362840000000  0.5690920000000 1.0
C      1  0.5211090000000  0.5088980000000  0.5769860000000 1.0
C      1  0.5158900000000  0.4693350000000  0.5758980000000 1.0
C      1  0.4763920000000  0.4710130000000  0.5729490000000 1.0
C      1  0.4730880000000  0.5099760000000  0.5762600000000 1.0
C      1  0.4745120000000  0.5653650000000  0.5248100000000 1.0
C      1  0.5510930000000  0.5464450000000  0.5277060000000 1.0
C      1  0.5619000000000  0.4635720000000  0.5293870000000 1.0
C      1  0.4856320000000  0.4375780000000  0.5295450000000 1.0
C      1  0.4391290000000  0.4938910000000  0.5274140000000 1.0
C      1  0.4743330000000  0.5566180000000  0.4695010000000 1.0
C      1  0.5462810000000  0.5441120000000  0.4714190000000 1.0
C      1  0.5571210000000  0.4670890000000  0.4745490000000 1.0
C      1  0.4892180000000  0.4380080000000  0.4735620000000 1.0
C      1  0.4360650000000  0.4957950000000  0.4728480000000 1.0
C      1  0.4576270000000  0.4481510000000  0.5460620000000 1.0
C      1  0.4405160000000  0.5257160000000  0.5399240000000 1.0
C      1  0.5046540000000  0.5740790000000  0.5385210000000 1.0
C      1  0.5622360000000  0.5171090000000  0.5425020000000 1.0
C      1  0.5383870000000  0.4414340000000  0.5408850000000 1.0
C      1  0.4599990000000  0.4499670000000  0.4607830000000 1.0
C      1  0.4349600000000  0.5255120000000  0.4561860000000 1.0
C      1  0.5012770000000  0.5676820000000  0.4578110000000 1.0
C      1  0.5627090000000  0.5170510000000  0.4589080000000 1.0
C      1  0.5397210000000  0.4433550000000  0.4574200000000 1.0
C      1  0.5295930000000  0.5705250000000  0.5151240000000 1.0
C      1  0.5732280000000  0.4943580000000  0.5193540000000 1.0
C      1  0.5165640000000  0.4336450000000  0.5158610000000 1.0
C      1  0.4402970000000  0.4603580000000  0.5193790000000 1.0
C      1  0.4454660000000  0.5493730000000  0.5154740000000 1.0
C      1  0.5261940000000  0.5698900000000  0.4811030000000 1.0
C      1  0.5670040000000  0.4974160000000  0.4863590000000 1.0
C      1  0.5212060000000  0.4290030000000  0.4823320000000 1.0
C      1  0.4435010000000  0.4659370000000  0.4859620000000 1.0
C      1  0.4440460000000  0.5464770000000  0.4814970000000 1.0
C      1  0.4871990000000  0.5586220000000  0.5619920000000 1.0
C      1  0.5418960000000  0.5311200000000  0.5634120000000 1.0
C      1  0.5427070000000  0.4636130000000  0.5643210000000 1.0
C      1  0.4822490000000  0.4415030000000  0.5687820000000 1.0
C      1  0.4456310000000  0.5044010000000  0.5649900000000 1.0
C      1  0.4875010000000  0.5508640000000  0.4312070000000 1.0
C      1  0.5429270000000  0.5277720000000  0.4353860000000 1.0
C      1  0.5473890000000  0.4682060000000  0.4361140000000 1.0
C      1  0.4826580000000  0.4523770000000  0.4370660000000 1.0
C      1  0.4359840000000  0.4999690000000  0.4335590000000 1.0
C      1  0.5001020000000  0.5781230000000  0.4996220000000 1.0
C      1  0.5456920000000  0.4428120000000  0.5018010000000 1.0
C      1  0.4329620000000  0.5211400000000  0.5013420000000 1.0
C      1  0.5722250000000  0.5247250000000  0.5048040000000 1.0
C      1  0.4618350000000  0.4420950000000  0.4999210000000 1.0
C      1  0.4792270000000  0.5038570000000  0.4057280000000 1.0
C      1  0.4964530000000  0.4916020000000  0.5909910000000 1.0
END
