TITL C-2782230-7391-1344 0.00560460598592531 125000 -804.199148938119 0 0 136 (C1) n - 1
REM
REM in /home/nfs/bkarasulu/CARBON/AIRSS/Generating-Clusters/REBO/Higher-Symm/SD-CG/HFTN-CG
REM
REM
REM
REM
REM
REM ./C.cell (12c818d87b63d06a65506943cc24bca4)
REM
REM compiler GCC version 9.2.1 20190827 (Red Hat 9.2.1-1)
REM options -cpp -mtune=generic -march=x86-64 -g -O0 -fpre-include=/usr/include/finclude/math-vector-fortran.h
REM seed 1446431986 1795291592 -1498661851 -583257156 1755443783 -944420129 527036606 77921841 2000323368 1314017436 748479418 2112168159 1133836451 -237861512 -1343120315 1773093353 1595274512 -297839973 825081879 393305980 1232779474 -1604145736 -866333592 2060198878 -1396505965 -1265586090 -1204571400 -1050749006 1933539168 -236364801 -1410196623 876997085 1248505934
REM
CELL 1.54180   50.00000   50.00000   50.00000   90.00000   90.00000   90.00000
LATT -1
SFAC C  
C      1  0.5933240000000  0.5277460000000  0.4842690000000 1.0
C      1  0.5960450000000  0.4941440000000  0.5339020000000 1.0
C      1  0.5955450000000  0.4810340000000  0.4955700000000 1.0
C      1  0.4023680000000  0.4906370000000  0.4857350000000 1.0
C      1  0.4035710000000  0.5035780000000  0.5400150000000 1.0
C      1  0.4076190000000  0.5198060000000  0.4810930000000 1.0
C      1  0.4846430000000  0.5462740000000  0.4333740000000 1.0
C      1  0.4827860000000  0.5285040000000  0.5629430000000 1.0
C      1  0.4711680000000  0.4370720000000  0.4937290000000 1.0
C      1  0.5257680000000  0.4561280000000  0.4463260000000 1.0
C      1  0.5132300000000  0.4730520000000  0.5636560000000 1.0
C      1  0.5298760000000  0.5837820000000  0.4906120000000 1.0
C      1  0.4472980000000  0.4931550000000  0.4133690000000 1.0
C      1  0.4632890000000  0.5781440000000  0.5363900000000 1.0
C      1  0.4686010000000  0.4197350000000  0.5517360000000 1.0
C      1  0.5420940000000  0.5162360000000  0.4038350000000 1.0
C      1  0.5474240000000  0.4022000000000  0.5392260000000 1.0
C      1  0.5484280000000  0.5722270000000  0.5432570000000 1.0
C      1  0.4778000000000  0.4778320000000  0.4873190000000 1.0
C      1  0.4712010000000  0.5141240000000  0.5067080000000 1.0
C      1  0.4511090000000  0.4891660000000  0.5180930000000 1.0
C      1  0.5457060000000  0.4981530000000  0.4665380000000 1.0
C      1  0.5425470000000  0.4655990000000  0.5223580000000 1.0
C      1  0.5256000000000  0.5223910000000  0.5205210000000 1.0
C      1  0.5334550000000  0.4554320000000  0.5772450000000 1.0
C      1  0.5143440000000  0.4444870000000  0.4228640000000 1.0
C      1  0.5315930000000  0.6251290000000  0.5435850000000 1.0
C      1  0.4754150000000  0.5551420000000  0.5746550000000 1.0
C      1  0.4795070000000  0.5419450000000  0.3561930000000 1.0
C      1  0.4725700000000  0.4059210000000  0.4996010000000 1.0
C      1  0.5141590000000  0.6066260000000  0.5364970000000 1.0
C      1  0.5273330000000  0.4280350000000  0.5757310000000 1.0
C      1  0.4949600000000  0.4599800000000  0.4093400000000 1.0
C      1  0.4845160000000  0.4029850000000  0.5266420000000 1.0
C      1  0.4900050000000  0.5767270000000  0.5671880000000 1.0
C      1  0.5035140000000  0.5355920000000  0.3663420000000 1.0
C      1  0.5803370000000  0.4385740000000  0.4988390000000 1.0
C      1  0.5707420000000  0.5289680000000  0.4422070000000 1.0
C      1  0.5704190000000  0.5238670000000  0.5556320000000 1.0
C      1  0.4383460000000  0.5516030000000  0.4885120000000 1.0
C      1  0.4343320000000  0.4698260000000  0.4575480000000 1.0
C      1  0.4360080000000  0.4687520000000  0.5512930000000 1.0
C      1  0.4455590000000  0.4666460000000  0.4855740000000 1.0
C      1  0.4414490000000  0.5456300000000  0.4610600000000 1.0
C      1  0.4424780000000  0.5015790000000  0.5482270000000 1.0
C      1  0.5492940000000  0.5383520000000  0.5041610000000 1.0
C      1  0.5691840000000  0.4510310000000  0.4743330000000 1.0
C      1  0.5581260000000  0.4958440000000  0.5611350000000 1.0
C      1  0.5804090000000  0.4482920000000  0.5789890000000 1.0
C      1  0.5539860000000  0.4422420000000  0.3965640000000 1.0
C      1  0.5664970000000  0.6621720000000  0.5577740000000 1.0
C      1  0.4364590000000  0.5566000000000  0.6119570000000 1.0
C      1  0.4325250000000  0.5447050000000  0.3766490000000 1.0
C      1  0.4262550000000  0.3981550000000  0.5012540000000 1.0
C      1  0.4581990000000  0.4516630000000  0.5580600000000 1.0
C      1  0.4551220000000  0.4723810000000  0.4379890000000 1.0
C      1  0.4576830000000  0.5646630000000  0.5056510000000 1.0
C      1  0.5602900000000  0.5481860000000  0.5620890000000 1.0
C      1  0.5528820000000  0.5378580000000  0.4232120000000 1.0
C      1  0.5596440000000  0.4189420000000  0.5124910000000 1.0
C      1  0.4224030000000  0.4770950000000  0.5043000000000 1.0
C      1  0.4226120000000  0.5208440000000  0.4500880000000 1.0
C      1  0.4253890000000  0.5268120000000  0.5320650000000 1.0
C      1  0.5787500000000  0.5312180000000  0.5079500000000 1.0
C      1  0.5743380000000  0.4836830000000  0.4705960000000 1.0
C      1  0.5694190000000  0.4732510000000  0.5378210000000 1.0
C      1  0.5300080000000  0.4863650000000  0.4428030000000 1.0
C      1  0.5306990000000  0.5145720000000  0.4876910000000 1.0
C      1  0.5195680000000  0.4769670000000  0.5328820000000 1.0
C      1  0.4999140000000  0.5033500000000  0.4917190000000 1.0
C      1  0.4697230000000  0.4621410000000  0.5170740000000 1.0
C      1  0.4807320000000  0.5062340000000  0.5383310000000 1.0
C      1  0.5466970000000  0.5678860000000  0.5099630000000 1.0
C      1  0.5493520000000  0.4125030000000  0.5666240000000 1.0
C      1  0.5436400000000  0.4902720000000  0.4149310000000 1.0
C      1  0.4546440000000  0.4324470000000  0.5234440000000 1.0
C      1  0.4461290000000  0.5479170000000  0.5400340000000 1.0
C      1  0.4304210000000  0.5165980000000  0.4199550000000 1.0
C      1  0.4734030000000  0.4738370000000  0.4025210000000 1.0
C      1  0.4944390000000  0.5856980000000  0.5284800000000 1.0
C      1  0.4956200000000  0.4234720000000  0.5727680000000 1.0
C      1  0.5225430000000  0.5328620000000  0.3859340000000 1.0
C      1  0.5163240000000  0.3959580000000  0.5286940000000 1.0
C      1  0.5193340000000  0.5725390000000  0.5567480000000 1.0
C      1  0.4770170000000  0.5989760000000  0.4758950000000 1.0
C      1  0.4753390000000  0.4677560000000  0.6011280000000 1.0
C      1  0.4429520000000  0.4349240000000  0.4223300000000 1.0
C      1  0.5356350000000  0.3900340000000  0.4777880000000 1.0
C      1  0.5281420000000  0.5407830000000  0.5993620000000 1.0
C      1  0.5064300000000  0.5637840000000  0.4258690000000 1.0
C      1  0.4134760000000  0.4887860000000  0.4573090000000 1.0
C      1  0.4203680000000  0.5343620000000  0.5011810000000 1.0
C      1  0.4134620000000  0.4782310000000  0.5338580000000 1.0
C      1  0.5822530000000  0.5137990000000  0.4623740000000 1.0
C      1  0.5893280000000  0.4608110000000  0.5138480000000 1.0
C      1  0.5874050000000  0.5212300000000  0.5329390000000 1.0
C      1  0.5593380000000  0.4668020000000  0.5759560000000 1.0
C      1  0.5321840000000  0.4288150000000  0.4070000000000 1.0
C      1  0.5491850000000  0.6437990000000  0.5507360000000 1.0
C      1  0.4553800000000  0.5558930000000  0.5938370000000 1.0
C      1  0.4532310000000  0.5467410000000  0.3594870000000 1.0
C      1  0.4511510000000  0.3906980000000  0.4915360000000 1.0
C      1  0.5370160000000  0.5572200000000  0.5783890000000 1.0
C      1  0.5412740000000  0.3917420000000  0.5072710000000 1.0
C      1  0.5278580000000  0.5526460000000  0.4104260000000 1.0
C      1  0.4766030000000  0.4465690000000  0.5842400000000 1.0
C      1  0.4776200000000  0.5890500000000  0.5008570000000 1.0
C      1  0.4435440000000  0.4602250000000  0.4053880000000 1.0
C      1  0.4682710000000  0.4461200000000  0.4650990000000 1.0
C      1  0.4626480000000  0.5587970000000  0.4469070000000 1.0
C      1  0.4606990000000  0.5079800000000  0.5719610000000 1.0
C      1  0.5191550000000  0.5913570000000  0.4675860000000 1.0
C      1  0.5392230000000  0.4411530000000  0.4684050000000 1.0
C      1  0.5265680000000  0.5021840000000  0.5672580000000 1.0
C      1  0.4423730000000  0.5730810000000  0.5601770000000 1.0
C      1  0.4265960000000  0.4200660000000  0.5180710000000 1.0
C      1  0.4249120000000  0.5338830000000  0.4001220000000 1.0
C      1  0.5749540000000  0.4213030000000  0.5755660000000 1.0
C      1  0.5718460000000  0.5865060000000  0.5234900000000 1.0
C      1  0.5564730000000  0.4690100000000  0.4019170000000 1.0
C      1  0.5110610000000  0.5859540000000  0.4425200000000 1.0
C      1  0.5240150000000  0.5138590000000  0.5962490000000 1.0
C      1  0.5359070000000  0.4105400000000  0.4635730000000 1.0
C      1  0.4545470000000  0.4309170000000  0.4444310000000 1.0
C      1  0.4657740000000  0.4922700000000  0.5934100000000 1.0
C      1  0.4674380000000  0.5860780000000  0.4537770000000 1.0
C      1  0.5140070000000  0.5246090000000  0.5493830000000 1.0
C      1  0.5413380000000  0.4449690000000  0.5021950000000 1.0
C      1  0.4908020000000  0.5189490000000  0.4351080000000 1.0
C      1  0.4905810000000  0.4542550000000  0.5479040000000 1.0
C      1  0.4738180000000  0.5422090000000  0.5226390000000 1.0
C      1  0.4819610000000  0.4749820000000  0.4541020000000 1.0
C      1  0.4998760000000  0.5530130000000  0.5365610000000 1.0
C      1  0.5059190000000  0.4258350000000  0.5402930000000 1.0
C      1  0.5005560000000  0.4951850000000  0.4427330000000 1.0
C      1  0.5003570000000  0.4914330000000  0.5212020000000 1.0
END
