TITL C-2782239-8622-1026 -0.00444577301622927 125000 -317.745289159174 0 0 56 (C1) n - 1
REM
REM in /home/nfs/bkarasulu/CARBON/AIRSS/Generating-Clusters/REBO/Higher-Symm/SD-CG/HFTN-CG
REM
REM
REM
REM
REM
REM ./C.cell (12c818d87b63d06a65506943cc24bca4)
REM
REM compiler GCC version 9.2.1 20190827 (Red Hat 9.2.1-1)
REM options -cpp -mtune=generic -march=x86-64 -g -O0 -fpre-include=/usr/include/finclude/math-vector-fortran.h
REM seed -200006482 -372622671 -2072729306 -1856430039 -109906384 -666572735 -2129973643 106605036 811706229 -87796714 221657819 -1086605731 -1206272250 -24938375 1257344069 1905186820 -483627498 -1587005712 1161857247 -1507837904 -1675415438 341954516 1885525603 -57596789 -400535415 -865355621 -2010164599 -2025913102 703093141 -231808193 -1353650419 -38732609 -1875551754
REM
CELL 1.54180   50.00000   50.00000   50.00000   90.00000   90.00000   90.00000
LATT -1
SFAC C  
C      1  0.4370230000000  0.5243460000000  0.5122820000000 1.0
C      1  0.4968930000000  0.5773210000000  0.5138530000000 1.0
C      1  0.5613680000000  0.5220610000000  0.5121310000000 1.0
C      1  0.5396320000000  0.4458540000000  0.5120650000000 1.0
C      1  0.4588970000000  0.4475350000000  0.5142510000000 1.0
C      1  0.4476450000000  0.4545350000000  0.4701570000000 1.0
C      1  0.4403010000000  0.5360680000000  0.4683680000000 1.0
C      1  0.5121830000000  0.5728150000000  0.4695970000000 1.0
C      1  0.5661600000000  0.5109420000000  0.4676330000000 1.0
C      1  0.5289110000000  0.4384580000000  0.4680380000000 1.0
C      1  0.4373970000000  0.5203980000000  0.5403740000000 1.0
C      1  0.4908100000000  0.5747390000000  0.5421920000000 1.0
C      1  0.5587300000000  0.5224530000000  0.5403950000000 1.0
C      1  0.5420890000000  0.4484970000000  0.5402140000000 1.0
C      1  0.4597830000000  0.4447120000000  0.5424380000000 1.0
C      1  0.5352330000000  0.4717930000000  0.4658460000000 1.0
C      1  0.4811610000000  0.4540570000000  0.4666830000000 1.0
C      1  0.4524130000000  0.5043320000000  0.4660570000000 1.0
C      1  0.4874390000000  0.5501760000000  0.4660670000000 1.0
C      1  0.5383260000000  0.5297680000000  0.4667360000000 1.0
C      1  0.4759550000000  0.5555590000000  0.4976120000000 1.0
C      1  0.5378930000000  0.5411040000000  0.4980780000000 1.0
C      1  0.5484410000000  0.4747780000000  0.4966160000000 1.0
C      1  0.4877280000000  0.4409460000000  0.4974320000000 1.0
C      1  0.4441220000000  0.4964340000000  0.4969810000000 1.0
C      1  0.5176210000000  0.5355530000000  0.5231940000000 1.0
C      1  0.5295880000000  0.4831660000000  0.5216440000000 1.0
C      1  0.4960300000000  0.4528880000000  0.5278060000000 1.0
C      1  0.4631850000000  0.4865690000000  0.5218190000000 1.0
C      1  0.4897350000000  0.5395320000000  0.5233710000000 1.0
C      1  0.5353780000000  0.4755290000000  0.5506080000000 1.0
C      1  0.4850380000000  0.4536610000000  0.5560320000000 1.0
C      1  0.4549490000000  0.4987650000000  0.5470780000000 1.0
C      1  0.4815730000000  0.5468010000000  0.5523330000000 1.0
C      1  0.5318520000000  0.5286130000000  0.5477130000000 1.0
C      1  0.5679070000000  0.5003760000000  0.4945150000000 1.0
C      1  0.5204600000000  0.4327630000000  0.4950730000000 1.0
C      1  0.4419520000000  0.4630020000000  0.4972330000000 1.0
C      1  0.4452400000000  0.5458560000000  0.4952130000000 1.0
C      1  0.5209080000000  0.5706610000000  0.4973000000000 1.0
C      1  0.5175330000000  0.5175960000000  0.5704940000000 1.0
C      1  0.5187460000000  0.4877460000000  0.5706910000000 1.0
C      1  0.4912970000000  0.4771010000000  0.5718070000000 1.0
C      1  0.4729400000000  0.5000720000000  0.5695200000000 1.0
C      1  0.4885480000000  0.5255150000000  0.5711530000000 1.0
C      1  0.5184950000000  0.5469690000000  0.4527230000000 1.0
C      1  0.5410380000000  0.4984910000000  0.4533800000000 1.0
C      1  0.5077880000000  0.4560910000000  0.4531950000000 1.0
C      1  0.4605410000000  0.4781610000000  0.4540270000000 1.0
C      1  0.4674370000000  0.5321000000000  0.4532360000000 1.0
C      1  0.4965260000000  0.4836140000000  0.5155870000000 1.0
C      1  0.4969060000000  0.4942120000000  0.4584800000000 1.0
C      1  0.4972850000000  0.5054620000000  0.4068550000000 1.0
C      1  0.4967170000000  0.4885930000000  0.4842680000000 1.0
C      1  0.4979190000000  0.5041890000000  0.5386780000000 1.0
C      1  0.4970970000000  0.4998820000000  0.4324610000000 1.0
END
