TITL C-2782233-7966-560 0.000857924553881945 125000 -980.316789500353 0 0 166 (C1) n - 1
REM
REM in /home/nfs/bkarasulu/CARBON/AIRSS/Generating-Clusters/REBO/Higher-Symm/SD-CG/HFTN-CG
REM
REM
REM
REM
REM
REM ./C.cell (12c818d87b63d06a65506943cc24bca4)
REM
REM compiler GCC version 9.2.1 20190827 (Red Hat 9.2.1-1)
REM options -cpp -mtune=generic -march=x86-64 -g -O0 -fpre-include=/usr/include/finclude/math-vector-fortran.h
REM seed -196015828 1420616326 -114430944 249756088 -832396491 960047461 -378177395 -104150411 824310561 -1444865416 677995378 -1583236890 -829598987 -254440701 1727374660 2137625827 -541333576 781411040 -455710140 397836912 1506330884 -1177418121 214821245 669722764 -1202275618 -2046491037 -1294318732 1980239134 -1227069058 -386441669 1198083101 981597004 871331076
REM
CELL 1.54180   50.00000   50.00000   50.00000   90.00000   90.00000   90.00000
LATT -1
SFAC C  
C      1  0.5241320000000  0.4302380000000  0.5053870000000 1.0
C      1  0.4240630000000  0.5183210000000  0.4940450000000 1.0
C      1  0.5455950000000  0.5590050000000  0.4980830000000 1.0
C      1  0.4418530000000  0.4229640000000  0.4297660000000 1.0
C      1  0.4570000000000  0.5829070000000  0.4279220000000 1.0
C      1  0.5900440000000  0.5011350000000  0.4300690000000 1.0
C      1  0.4887400000000  0.4220340000000  0.4516000000000 1.0
C      1  0.4408590000000  0.5619180000000  0.4577950000000 1.0
C      1  0.5748580000000  0.5208370000000  0.4612770000000 1.0
C      1  0.5218590000000  0.5036830000000  0.4406320000000 1.0
C      1  0.4886170000000  0.4505440000000  0.4394210000000 1.0
C      1  0.4915480000000  0.5144590000000  0.4340460000000 1.0
C      1  0.4834570000000  0.5157220000000  0.3954250000000 1.0
C      1  0.5159890000000  0.5096440000000  0.4015610000000 1.0
C      1  0.4942010000000  0.4835950000000  0.3990840000000 1.0
C      1  0.5284600000000  0.4251580000000  0.5811010000000 1.0
C      1  0.4322560000000  0.4904210000000  0.5914540000000 1.0
C      1  0.5485670000000  0.5549520000000  0.5734130000000 1.0
C      1  0.5013300000000  0.5345620000000  0.4768370000000 1.0
C      1  0.5240580000000  0.4859350000000  0.4685850000000 1.0
C      1  0.4718930000000  0.4933030000000  0.4737790000000 1.0
C      1  0.4800870000000  0.6131200000000  0.4678350000000 1.0
C      1  0.5931120000000  0.4586970000000  0.4655010000000 1.0
C      1  0.4376290000000  0.4406440000000  0.4656740000000 1.0
C      1  0.4894980000000  0.5656400000000  0.4809430000000 1.0
C      1  0.5536290000000  0.4738760000000  0.4802090000000 1.0
C      1  0.4537770000000  0.4735690000000  0.4909720000000 1.0
C      1  0.4998160000000  0.3850320000000  0.4962900000000 1.0
C      1  0.3935240000000  0.5434420000000  0.4777390000000 1.0
C      1  0.5854720000000  0.5673510000000  0.4839980000000 1.0
C      1  0.5929680000000  0.4922900000000  0.4608840000000 1.0
C      1  0.4588120000000  0.4167700000000  0.4563490000000 1.0
C      1  0.4547500000000  0.5925300000000  0.4582470000000 1.0
C      1  0.5424800000000  0.4359930000000  0.5518060000000 1.0
C      1  0.4331760000000  0.4838160000000  0.5647720000000 1.0
C      1  0.5339060000000  0.5657260000000  0.5454110000000 1.0
C      1  0.5162050000000  0.4633080000000  0.4440660000000 1.0
C      1  0.4665670000000  0.4973070000000  0.4446470000000 1.0
C      1  0.5218800000000  0.5347570000000  0.4496870000000 1.0
C      1  0.4610950000000  0.5567670000000  0.5759490000000 1.0
C      1  0.5746400000000  0.4975150000000  0.5819210000000 1.0
C      1  0.4649880000000  0.4368880000000  0.5872780000000 1.0
C      1  0.4985940000000  0.4703710000000  0.5703660000000 1.0
C      1  0.4778100000000  0.5153880000000  0.5656280000000 1.0
C      1  0.5291810000000  0.5108470000000  0.5675110000000 1.0
C      1  0.5225490000000  0.5348170000000  0.5508180000000 1.0
C      1  0.5289720000000  0.4614330000000  0.5661500000000 1.0
C      1  0.4606920000000  0.4935550000000  0.5528630000000 1.0
C      1  0.4255370000000  0.6113040000000  0.5059250000000 1.0
C      1  0.6276830000000  0.5011380000000  0.5072490000000 1.0
C      1  0.4503880000000  0.3874520000000  0.5090530000000 1.0
C      1  0.5256100000000  0.4193660000000  0.5312150000000 1.0
C      1  0.3998130000000  0.5315480000000  0.5052900000000 1.0
C      1  0.5566020000000  0.5640380000000  0.5238310000000 1.0
C      1  0.5208810000000  0.4115390000000  0.4110680000000 1.0
C      1  0.4216780000000  0.5349620000000  0.4149380000000 1.0
C      1  0.5708610000000  0.5580310000000  0.4242190000000 1.0
C      1  0.5096050000000  0.4005990000000  0.5442890000000 1.0
C      1  0.4044500000000  0.5433360000000  0.5299720000000 1.0
C      1  0.5797440000000  0.5540720000000  0.5353440000000 1.0
C      1  0.4392680000000  0.4164230000000  0.5509320000000 1.0
C      1  0.4602500000000  0.5886210000000  0.5518280000000 1.0
C      1  0.6011620000000  0.4705260000000  0.5474030000000 1.0
C      1  0.5516090000000  0.5304720000000  0.4822650000000 1.0
C      1  0.5064310000000  0.4201050000000  0.4782840000000 1.0
C      1  0.4474750000000  0.5354220000000  0.4784460000000 1.0
C      1  0.5895280000000  0.4693060000000  0.5205900000000 1.0
C      1  0.4391190000000  0.4369630000000  0.5282000000000 1.0
C      1  0.4774880000000  0.5904530000000  0.5264820000000 1.0
C      1  0.5479500000000  0.4845580000000  0.5646150000000 1.0
C      1  0.4674810000000  0.4634700000000  0.5649070000000 1.0
C      1  0.4900060000000  0.5360660000000  0.5473140000000 1.0
C      1  0.4083440000000  0.4998340000000  0.4591830000000 1.0
C      1  0.5377390000000  0.5850040000000  0.4677190000000 1.0
C      1  0.5388990000000  0.4092560000000  0.4750210000000 1.0
C      1  0.5747810000000  0.4350080000000  0.5078000000000 1.0
C      1  0.4173170000000  0.4644240000000  0.5097350000000 1.0
C      1  0.5113790000000  0.5994790000000  0.5079210000000 1.0
C      1  0.5416570000000  0.4949390000000  0.4163100000000 1.0
C      1  0.4731180000000  0.4634470000000  0.4149060000000 1.0
C      1  0.4885190000000  0.5427660000000  0.4154550000000 1.0
C      1  0.4492540000000  0.6022090000000  0.4895790000000 1.0
C      1  0.6086260000000  0.4855510000000  0.4896910000000 1.0
C      1  0.4526070000000  0.4112710000000  0.4876310000000 1.0
C      1  0.4731410000000  0.5220850000000  0.4846710000000 1.0
C      1  0.5260950000000  0.5153990000000  0.4843080000000 1.0
C      1  0.4975710000000  0.4806430000000  0.4855930000000 1.0
C      1  0.4217660000000  0.5568770000000  0.4836910000000 1.0
C      1  0.5814600000000  0.5423830000000  0.4938400000000 1.0
C      1  0.4822830000000  0.4117320000000  0.4998770000000 1.0
C      1  0.4368060000000  0.5579790000000  0.5618760000000 1.0
C      1  0.5894780000000  0.5200090000000  0.5693970000000 1.0
C      1  0.4770620000000  0.4104730000000  0.5800060000000 1.0
C      1  0.5087450000000  0.5818340000000  0.5370580000000 1.0
C      1  0.5693300000000  0.4479000000000  0.5391050000000 1.0
C      1  0.4217370000000  0.4617390000000  0.5434720000000 1.0
C      1  0.5802190000000  0.5393080000000  0.4417690000000 1.0
C      1  0.5024770000000  0.4040200000000  0.4297120000000 1.0
C      1  0.4288720000000  0.5524900000000  0.4307930000000 1.0
C      1  0.4661890000000  0.5304440000000  0.5906420000000 1.0
C      1  0.5490520000000  0.5090280000000  0.5958760000000 1.0
C      1  0.4866480000000  0.4555380000000  0.5989010000000 1.0
C      1  0.5752710000000  0.5461870000000  0.5643370000000 1.0
C      1  0.5069790000000  0.4068850000000  0.5741450000000 1.0
C      1  0.4302980000000  0.5348200000000  0.5431270000000 1.0
C      1  0.5178480000000  0.5133880000000  0.6068330000000 1.0
C      1  0.5051290000000  0.4818500000000  0.6087060000000 1.0
C      1  0.4848510000000  0.5089260000000  0.6090990000000 1.0
C      1  0.5061860000000  0.6199500000000  0.4619670000000 1.0
C      1  0.5704380000000  0.4431680000000  0.4590010000000 1.0
C      1  0.4269810000000  0.4650120000000  0.4578250000000 1.0
C      1  0.4397990000000  0.5569650000000  0.5111270000000 1.0
C      1  0.5721060000000  0.5174910000000  0.5138290000000 1.0
C      1  0.4838510000000  0.4260440000000  0.5273980000000 1.0
C      1  0.4088450000000  0.4767410000000  0.4798750000000 1.0
C      1  0.5253810000000  0.6076980000000  0.4796800000000 1.0
C      1  0.5625790000000  0.4236820000000  0.4783610000000 1.0
C      1  0.5205800000000  0.4530180000000  0.5983770000000 1.0
C      1  0.4513070000000  0.5043250000000  0.6050610000000 1.0
C      1  0.5359440000000  0.5396030000000  0.5942080000000 1.0
C      1  0.4521850000000  0.5280570000000  0.5207500000000 1.0
C      1  0.5424270000000  0.5203030000000  0.5201870000000 1.0
C      1  0.5012920000000  0.4527290000000  0.5291720000000 1.0
C      1  0.4609850000000  0.5013930000000  0.4119690000000 1.0
C      1  0.5274180000000  0.5342200000000  0.4158230000000 1.0
C      1  0.5127940000000  0.4623400000000  0.4101620000000 1.0
C      1  0.3930860000000  0.5233480000000  0.4577640000000 1.0
C      1  0.5652970000000  0.5810370000000  0.4711830000000 1.0
C      1  0.5245110000000  0.3850460000000  0.4848220000000 1.0
C      1  0.5245850000000  0.4955110000000  0.5119940000000 1.0
C      1  0.4860750000000  0.4769320000000  0.5137320000000 1.0
C      1  0.4850060000000  0.5290990000000  0.5154290000000 1.0
C      1  0.4767910000000  0.4029010000000  0.5483230000000 1.0
C      1  0.4216890000000  0.5726200000000  0.5350230000000 1.0
C      1  0.5947080000000  0.5242560000000  0.5371660000000 1.0
C      1  0.4453700000000  0.4440920000000  0.4130440000000 1.0
C      1  0.4657770000000  0.5637360000000  0.4152890000000 1.0
C      1  0.5700720000000  0.5063230000000  0.4162180000000 1.0
C      1  0.4340660000000  0.4908860000000  0.4393660000000 1.0
C      1  0.5147520000000  0.5668760000000  0.4578480000000 1.0
C      1  0.5484000000000  0.4610660000000  0.4490080000000 1.0
C      1  0.5134720000000  0.5640550000000  0.4244370000000 1.0
C      1  0.5454230000000  0.4632840000000  0.4170610000000 1.0
C      1  0.4425450000000  0.4750980000000  0.4036510000000 1.0
C      1  0.5760770000000  0.4899520000000  0.4990100000000 1.0
C      1  0.4648670000000  0.4504770000000  0.5133090000000 1.0
C      1  0.4651820000000  0.5742130000000  0.4999260000000 1.0
C      1  0.4336230000000  0.4932710000000  0.5064060000000 1.0
C      1  0.5158570000000  0.5675500000000  0.4995350000000 1.0
C      1  0.5466540000000  0.4519250000000  0.5015790000000 1.0
C      1  0.5159220000000  0.5409280000000  0.5176440000000 1.0
C      1  0.5248700000000  0.4681790000000  0.5179610000000 1.0
C      1  0.4625010000000  0.4960000000000  0.5228880000000 1.0
C      1  0.4280300000000  0.5053410000000  0.4102360000000 1.0
C      1  0.5459620000000  0.5611940000000  0.4143640000000 1.0
C      1  0.5309900000000  0.4353730000000  0.4039690000000 1.0
C      1  0.4857090000000  0.5662550000000  0.5568300000000 1.0
C      1  0.5776510000000  0.4691680000000  0.5652060000000 1.0
C      1  0.4397010000000  0.4445430000000  0.5671760000000 1.0
C      1  0.6221420000000  0.5158260000000  0.5266360000000 1.0
C      1  0.4578590000000  0.3844540000000  0.5326900000000 1.0
C      1  0.4151740000000  0.6006340000000  0.5260260000000 1.0
C      1  0.4802020000000  0.6111020000000  0.5006600000000 1.0
C      1  0.6016710000000  0.4522980000000  0.4955990000000 1.0
C      1  0.4315400000000  0.4360860000000  0.4967450000000 1.0
C      1  0.5018600000000  0.4995320000000  0.5730090000000 1.0
END
