TITL C-2782228-2999-1118 0.00286343059430174 125000 -488.656736191462 0 0 83 (C1) n - 1
REM
REM in /home/nfs/bkarasulu/CARBON/AIRSS/Generating-Clusters/REBO/Higher-Symm/SD-CG/HFTN-CG
REM
REM
REM
REM
REM
REM ./C.cell (12c818d87b63d06a65506943cc24bca4)
REM
REM compiler GCC version 9.2.1 20190827 (Red Hat 9.2.1-1)
REM options -cpp -mtune=generic -march=x86-64 -g -O0 -fpre-include=/usr/include/finclude/math-vector-fortran.h
REM seed 1537483819 -1496945333 1747148142 775945934 -558957667 507013151 -970179376 -1473287180 1374931838 -2103974311 1539436383 -163431595 -507744638 -893531418 -669383659 -262767429 -1266007890 2105189457 -385322236 1947613524 -1516237758 1770496198 1572354062 -110951147 795438598 -1385179299 1745958800 -529152745 2025959803 -1561785604 1767906200 -1458275531 529985515
REM
CELL 1.54180   50.00000   50.00000   50.00000   90.00000   90.00000   90.00000
LATT -1
SFAC C  
C      1  0.5424220000000  0.4868450000000  0.4322960000000 1.0
C      1  0.5429270000000  0.4848780000000  0.5704260000000 1.0
C      1  0.4849090000000  0.5332640000000  0.4841640000000 1.0
C      1  0.4865310000000  0.5432250000000  0.5148400000000 1.0
C      1  0.4310290000000  0.6048830000000  0.4517930000000 1.0
C      1  0.4805970000000  0.5816550000000  0.5460400000000 1.0
C      1  0.5380480000000  0.4966740000000  0.4637000000000 1.0
C      1  0.5350690000000  0.4960350000000  0.5401400000000 1.0
C      1  0.4771750000000  0.4397700000000  0.4522990000000 1.0
C      1  0.4736900000000  0.4385730000000  0.5490030000000 1.0
C      1  0.4317200000000  0.4519920000000  0.5126970000000 1.0
C      1  0.4340630000000  0.4525430000000  0.4854370000000 1.0
C      1  0.5447830000000  0.4541060000000  0.5699510000000 1.0
C      1  0.5450710000000  0.4564700000000  0.4284100000000 1.0
C      1  0.4935350000000  0.5352610000000  0.5533640000000 1.0
C      1  0.4946810000000  0.5331930000000  0.4458730000000 1.0
C      1  0.4348810000000  0.5464430000000  0.4707130000000 1.0
C      1  0.4365660000000  0.5449390000000  0.5285380000000 1.0
C      1  0.5227070000000  0.4224240000000  0.4577180000000 1.0
C      1  0.5187690000000  0.4269240000000  0.5369560000000 1.0
C      1  0.5006130000000  0.4326370000000  0.5587560000000 1.0
C      1  0.5026180000000  0.4326620000000  0.4391310000000 1.0
C      1  0.5378830000000  0.5413030000000  0.5652550000000 1.0
C      1  0.5563590000000  0.5423300000000  0.4345250000000 1.0
C      1  0.5146000000000  0.4516570000000  0.4210560000000 1.0
C      1  0.5130900000000  0.4516300000000  0.5765440000000 1.0
C      1  0.4362050000000  0.4700830000000  0.5343950000000 1.0
C      1  0.4407220000000  0.4708280000000  0.4644990000000 1.0
C      1  0.4624580000000  0.4639470000000  0.4462860000000 1.0
C      1  0.4592850000000  0.4653630000000  0.5516680000000 1.0
C      1  0.5042640000000  0.4376050000000  0.5136300000000 1.0
C      1  0.5105670000000  0.4294220000000  0.4835690000000 1.0
C      1  0.4383380000000  0.5702880000000  0.4860800000000 1.0
C      1  0.4467460000000  0.5661450000000  0.5127950000000 1.0
C      1  0.4748240000000  0.4704420000000  0.4853040000000 1.0
C      1  0.4702080000000  0.4804650000000  0.5163080000000 1.0
C      1  0.4775380000000  0.4853900000000  0.5618380000000 1.0
C      1  0.4795640000000  0.4840460000000  0.4348880000000 1.0
C      1  0.5605530000000  0.4551200000000  0.5141680000000 1.0
C      1  0.5621610000000  0.4499270000000  0.4824730000000 1.0
C      1  0.5021260000000  0.4706430000000  0.5145160000000 1.0
C      1  0.5070430000000  0.4630260000000  0.4831070000000 1.0
C      1  0.5746470000000  0.4981850000000  0.5425580000000 1.0
C      1  0.5776380000000  0.4961210000000  0.4606540000000 1.0
C      1  0.5590450000000  0.4831680000000  0.4857100000000 1.0
C      1  0.5567180000000  0.4882570000000  0.5165980000000 1.0
C      1  0.5677690000000  0.4649370000000  0.5465980000000 1.0
C      1  0.5688030000000  0.4644210000000  0.4520490000000 1.0
C      1  0.5108190000000  0.4943350000000  0.4755400000000 1.0
C      1  0.5100670000000  0.4974160000000  0.5254530000000 1.0
C      1  0.5691020000000  0.5255910000000  0.5459720000000 1.0
C      1  0.5722710000000  0.5234190000000  0.4566700000000 1.0
C      1  0.4869580000000  0.5925770000000  0.4986900000000 1.0
C      1  0.4714570000000  0.6040590000000  0.4794500000000 1.0
C      1  0.4458650000000  0.5943820000000  0.4719580000000 1.0
C      1  0.4764410000000  0.5722790000000  0.5197630000000 1.0
C      1  0.4720370000000  0.5473110000000  0.5645770000000 1.0
C      1  0.4732710000000  0.5466530000000  0.4365470000000 1.0
C      1  0.5165850000000  0.5367760000000  0.5283000000000 1.0
C      1  0.5167770000000  0.5336400000000  0.4717730000000 1.0
C      1  0.4284150000000  0.4968380000000  0.5287700000000 1.0
C      1  0.4333190000000  0.4976340000000  0.4699750000000 1.0
C      1  0.4866300000000  0.5069830000000  0.5424480000000 1.0
C      1  0.4887360000000  0.5042720000000  0.4553170000000 1.0
C      1  0.5462320000000  0.5483090000000  0.5348540000000 1.0
C      1  0.5455310000000  0.5427030000000  0.4666200000000 1.0
C      1  0.5497590000000  0.4358130000000  0.4544430000000 1.0
C      1  0.5466640000000  0.4383940000000  0.5403180000000 1.0
C      1  0.5385040000000  0.5173620000000  0.4364840000000 1.0
C      1  0.5355140000000  0.5148870000000  0.5685120000000 1.0
C      1  0.4710740000000  0.4461370000000  0.5166820000000 1.0
C      1  0.4772230000000  0.4365110000000  0.4844840000000 1.0
C      1  0.4984450000000  0.4745190000000  0.4157750000000 1.0
C      1  0.4973730000000  0.4753030000000  0.5800840000000 1.0
C      1  0.4690550000000  0.5139420000000  0.5151300000000 1.0
C      1  0.4710550000000  0.5026010000000  0.4831470000000 1.0
C      1  0.5558840000000  0.5653880000000  0.5119870000000 1.0
C      1  0.5547450000000  0.5630680000000  0.4874490000000 1.0
C      1  0.4460390000000  0.5455250000000  0.5554370000000 1.0
C      1  0.4472640000000  0.5471300000000  0.4451350000000 1.0
C      1  0.4293630000000  0.5210850000000  0.5141250000000 1.0
C      1  0.4306300000000  0.5216280000000  0.4848630000000 1.0
C      1  0.5158060000000  0.5161100000000  0.5010840000000 1.0
END
