TITL C-2782235-7892-1032 0.00472054934640428 125000 -718.616941326143 0 0 121 (C1) n - 1
REM
REM in /home/nfs/bkarasulu/CARBON/AIRSS/Generating-Clusters/REBO/Higher-Symm/SD-CG/HFTN-CG
REM
REM
REM
REM
REM
REM ./C.cell (12c818d87b63d06a65506943cc24bca4)
REM
REM compiler GCC version 9.2.1 20190827 (Red Hat 9.2.1-1)
REM options -cpp -mtune=generic -march=x86-64 -g -O0 -fpre-include=/usr/include/finclude/math-vector-fortran.h
REM seed -1246931382 -1087584866 -1512551790 -6623605 730610251 -1954475041 920795239 1435181618 -1386413866 -1669141978 -1002012299 -412396804 1369765882 -2136552602 -1267065005 755504233 747357790 2029359703 572022789 -1809529361 1951870471 1702074028 -349047161 -326987610 448785569 -37151681 1662283592 1454046838 1851850173 -54078287 1609229983 897195518 -902643521
REM
CELL 1.54180   50.00000   50.00000   50.00000   90.00000   90.00000   90.00000
LATT -1
SFAC C  
C      1  0.4749690000000  0.4004120000000  0.4883040000000 1.0
C      1  0.4967280000000  0.4154670000000  0.4426020000000 1.0
C      1  0.5295560000000  0.4095310000000  0.4864650000000 1.0
C      1  0.5258950000000  0.3931990000000  0.5226160000000 1.0
C      1  0.4874800000000  0.4033560000000  0.5259840000000 1.0
C      1  0.4289500000000  0.5504780000000  0.4318110000000 1.0
C      1  0.5361780000000  0.5401290000000  0.4156770000000 1.0
C      1  0.5808120000000  0.5266120000000  0.5164130000000 1.0
C      1  0.5157360000000  0.5488280000000  0.5879370000000 1.0
C      1  0.4131350000000  0.5504090000000  0.5400480000000 1.0
C      1  0.4402670000000  0.5407930000000  0.4622420000000 1.0
C      1  0.5113930000000  0.5285710000000  0.4447790000000 1.0
C      1  0.5654520000000  0.5418970000000  0.4993810000000 1.0
C      1  0.5370470000000  0.5372240000000  0.5654610000000 1.0
C      1  0.4437400000000  0.5400480000000  0.5444140000000 1.0
C      1  0.5237450000000  0.5192860000000  0.5212250000000 1.0
C      1  0.4916150000000  0.5292530000000  0.5263480000000 1.0
C      1  0.4674680000000  0.5155210000000  0.5059570000000 1.0
C      1  0.4841950000000  0.5342800000000  0.4873930000000 1.0
C      1  0.5132670000000  0.5360920000000  0.4934850000000 1.0
C      1  0.5262750000000  0.4748820000000  0.5749830000000 1.0
C      1  0.4295300000000  0.4756260000000  0.5516940000000 1.0
C      1  0.4354680000000  0.4762010000000  0.4522600000000 1.0
C      1  0.5272150000000  0.4688280000000  0.4228000000000 1.0
C      1  0.5873330000000  0.4599490000000  0.4990630000000 1.0
C      1  0.4379020000000  0.5001950000000  0.4110650000000 1.0
C      1  0.5638840000000  0.4976560000000  0.4182790000000 1.0
C      1  0.5977800000000  0.4893580000000  0.5416290000000 1.0
C      1  0.5003750000000  0.5002330000000  0.6063400000000 1.0
C      1  0.3992400000000  0.4994310000000  0.5223640000000 1.0
C      1  0.4292090000000  0.4776690000000  0.4826090000000 1.0
C      1  0.4998770000000  0.4593740000000  0.4089570000000 1.0
C      1  0.5906140000000  0.4587830000000  0.4691400000000 1.0
C      1  0.5497100000000  0.4749790000000  0.5539340000000 1.0
C      1  0.4493740000000  0.4617840000000  0.5709450000000 1.0
C      1  0.5150620000000  0.5793670000000  0.4471940000000 1.0
C      1  0.5426600000000  0.5861730000000  0.4974270000000 1.0
C      1  0.5057970000000  0.5786880000000  0.5465710000000 1.0
C      1  0.4531160000000  0.5825500000000  0.5329110000000 1.0
C      1  0.4575960000000  0.5846620000000  0.4690700000000 1.0
C      1  0.5076030000000  0.4591660000000  0.5270080000000 1.0
C      1  0.4788720000000  0.4583760000000  0.5087570000000 1.0
C      1  0.4864640000000  0.4594760000000  0.4774460000000 1.0
C      1  0.5184690000000  0.4701580000000  0.4717330000000 1.0
C      1  0.5291690000000  0.4670710000000  0.5043940000000 1.0
C      1  0.3886750000000  0.5093260000000  0.4980670000000 1.0
C      1  0.4595430000000  0.5097750000000  0.3951040000000 1.0
C      1  0.5849050000000  0.5089990000000  0.4339300000000 1.0
C      1  0.6018700000000  0.5091980000000  0.5616220000000 1.0
C      1  0.4736230000000  0.5094930000000  0.6074410000000 1.0
C      1  0.4240320000000  0.5740100000000  0.5254870000000 1.0
C      1  0.4503480000000  0.5712870000000  0.4386260000000 1.0
C      1  0.5379550000000  0.5623420000000  0.4334250000000 1.0
C      1  0.5666530000000  0.5846010000000  0.5145370000000 1.0
C      1  0.4990250000000  0.5684280000000  0.5782950000000 1.0
C      1  0.4373700000000  0.5092370000000  0.4601090000000 1.0
C      1  0.5193120000000  0.4954290000000  0.4431840000000 1.0
C      1  0.5599210000000  0.4797170000000  0.5058590000000 1.0
C      1  0.5368130000000  0.5064630000000  0.5738810000000 1.0
C      1  0.4374780000000  0.5079450000000  0.5518540000000 1.0
C      1  0.3957550000000  0.5309960000000  0.4830960000000 1.0
C      1  0.4835820000000  0.5138460000000  0.4092240000000 1.0
C      1  0.5791170000000  0.5128370000000  0.4615830000000 1.0
C      1  0.5863980000000  0.5319610000000  0.5640330000000 1.0
C      1  0.4620000000000  0.5155090000000  0.5825120000000 1.0
C      1  0.4770490000000  0.5591280000000  0.4280540000000 1.0
C      1  0.5589140000000  0.5576980000000  0.4554180000000 1.0
C      1  0.5615190000000  0.5673110000000  0.5386090000000 1.0
C      1  0.4687430000000  0.5658650000000  0.5772930000000 1.0
C      1  0.4225700000000  0.5706160000000  0.4956360000000 1.0
C      1  0.5520080000000  0.4103860000000  0.5122530000000 1.0
C      1  0.5120210000000  0.4096010000000  0.5450170000000 1.0
C      1  0.4575970000000  0.4129320000000  0.5145350000000 1.0
C      1  0.4729740000000  0.4103770000000  0.4569550000000 1.0
C      1  0.5251830000000  0.4152620000000  0.4571130000000 1.0
C      1  0.5570040000000  0.4692690000000  0.4224290000000 1.0
C      1  0.5894090000000  0.4623350000000  0.5295240000000 1.0
C      1  0.5040960000000  0.4740390000000  0.5931140000000 1.0
C      1  0.4131760000000  0.4737400000000  0.5273900000000 1.0
C      1  0.4423040000000  0.4739050000000  0.4242700000000 1.0
C      1  0.4922450000000  0.5360160000000  0.4240220000000 1.0
C      1  0.5706400000000  0.5381830000000  0.4715140000000 1.0
C      1  0.5638390000000  0.5475820000000  0.5573200000000 1.0
C      1  0.4562290000000  0.5408360000000  0.5725580000000 1.0
C      1  0.4159290000000  0.5499750000000  0.4788110000000 1.0
C      1  0.4814780000000  0.4649810000000  0.5479580000000 1.0
C      1  0.4481020000000  0.4431700000000  0.5068630000000 1.0
C      1  0.4880810000000  0.4669100000000  0.4460760000000 1.0
C      1  0.5508680000000  0.4608310000000  0.4717870000000 1.0
C      1  0.5498410000000  0.4332350000000  0.5343550000000 1.0
C      1  0.5651250000000  0.4544030000000  0.5420860000000 1.0
C      1  0.4808970000000  0.4617580000000  0.5814620000000 1.0
C      1  0.4249420000000  0.4607170000000  0.5047840000000 1.0
C      1  0.4676950000000  0.4605090000000  0.4201050000000 1.0
C      1  0.5693400000000  0.4575380000000  0.4452300000000 1.0
C      1  0.5225060000000  0.5448410000000  0.4657940000000 1.0
C      1  0.5382640000000  0.5478370000000  0.5109830000000 1.0
C      1  0.5112950000000  0.5462550000000  0.5474110000000 1.0
C      1  0.4623410000000  0.5456460000000  0.5205870000000 1.0
C      1  0.4708590000000  0.5473600000000  0.4681980000000 1.0
C      1  0.5778060000000  0.4998270000000  0.5223860000000 1.0
C      1  0.5188770000000  0.5198750000000  0.5964330000000 1.0
C      1  0.4098940000000  0.5198090000000  0.5396090000000 1.0
C      1  0.4290920000000  0.5198270000000  0.4303010000000 1.0
C      1  0.5392810000000  0.5125130000000  0.4211930000000 1.0
C      1  0.4865960000000  0.5743480000000  0.4543770000000 1.0
C      1  0.5365510000000  0.5754560000000  0.4710870000000 1.0
C      1  0.5300750000000  0.5752570000000  0.5272580000000 1.0
C      1  0.4732040000000  0.5825140000000  0.5514660000000 1.0
C      1  0.4551730000000  0.5723770000000  0.5006100000000 1.0
C      1  0.4464650000000  0.5016590000000  0.4911220000000 1.0
C      1  0.4938610000000  0.4901420000000  0.4224080000000 1.0
C      1  0.5717230000000  0.4875460000000  0.4750670000000 1.0
C      1  0.5384220000000  0.5019390000000  0.5401880000000 1.0
C      1  0.4646210000000  0.4916320000000  0.5609800000000 1.0
C      1  0.5114260000000  0.4447090000000  0.4500430000000 1.0
C      1  0.5452960000000  0.4386140000000  0.4946940000000 1.0
C      1  0.5226470000000  0.4357390000000  0.5425260000000 1.0
C      1  0.4765710000000  0.4347820000000  0.5332060000000 1.0
C      1  0.4665710000000  0.4327500000000  0.4810240000000 1.0
C      1  0.5038470000000  0.3925090000000  0.4981630000000 1.0
END
