TITL C-2782238-9940-679 -0.0032086451868038 125000 -744.305613153072 0 0 130 (C2) n - 1
REM
REM in /home/nfs/bkarasulu/CARBON/AIRSS/Generating-Clusters/REBO/Higher-Symm/SD-CG/HFTN-CG
REM
REM
REM
REM
REM
REM ./C.cell (12c818d87b63d06a65506943cc24bca4)
REM
REM compiler GCC version 9.2.1 20190827 (Red Hat 9.2.1-1)
REM options -cpp -mtune=generic -march=x86-64 -g -O0 -fpre-include=/usr/include/finclude/math-vector-fortran.h
REM seed 639681646 486509424 -1270688304 -1610587454 985328279 -281093293 -140014984 488337895 1922676911 1123269111 3289359 -1706449635 -2139245851 986843584 1974874606 1279517810 342164651 -1710424326 -1764746476 -796329728 -1228568685 880305876 2001686934 -1314626891 612153506 -1868470416 421278665 1871146062 -835575227 -694992380 1725811602 512022173 1315933016
REM
CELL 1.54180   50.00000   50.00000   50.00000   90.00000   90.00000   90.00000
LATT -1
SFAC C  
C      1  0.5029540000000  0.5467720000000  0.4316510000000 1.0
C      1  0.4970500000000  0.4532220000000  0.4316550000000 1.0
C      1  0.4988390000000  0.5494310000000  0.5091860000000 1.0
C      1  0.5011610000000  0.4505700000000  0.5091900000000 1.0
C      1  0.5302810000000  0.5527220000000  0.5211090000000 1.0
C      1  0.4697180000000  0.4472800000000  0.5211110000000 1.0
C      1  0.5102720000000  0.5117030000000  0.5030550000000 1.0
C      1  0.4897280000000  0.4882980000000  0.5030550000000 1.0
C      1  0.4195400000000  0.4935620000000  0.4550350000000 1.0
C      1  0.5804630000000  0.5064350000000  0.4550390000000 1.0
C      1  0.5796180000000  0.5640810000000  0.5161180000000 1.0
C      1  0.4203810000000  0.4359200000000  0.5161190000000 1.0
C      1  0.5859880000000  0.4961710000000  0.4267990000000 1.0
C      1  0.4140170000000  0.5038230000000  0.4267940000000 1.0
C      1  0.5412330000000  0.5107460000000  0.5834470000000 1.0
C      1  0.4587620000000  0.4892610000000  0.5834460000000 1.0
C      1  0.4616880000000  0.4141100000000  0.5213350000000 1.0
C      1  0.5383110000000  0.5858910000000  0.5213300000000 1.0
C      1  0.5662250000000  0.4535570000000  0.4527890000000 1.0
C      1  0.4337780000000  0.5464390000000  0.4527810000000 1.0
C      1  0.4988980000000  0.4858040000000  0.3917260000000 1.0
C      1  0.5011090000000  0.5141870000000  0.3917250000000 1.0
C      1  0.5186070000000  0.4729460000000  0.4139710000000 1.0
C      1  0.4813990000000  0.5270470000000  0.4139670000000 1.0
C      1  0.5043370000000  0.4653420000000  0.5598070000000 1.0
C      1  0.4956590000000  0.5346630000000  0.5598040000000 1.0
C      1  0.5355230000000  0.5014030000000  0.5152520000000 1.0
C      1  0.4644770000000  0.4985980000000  0.5152500000000 1.0
C      1  0.5633400000000  0.5276270000000  0.5632690000000 1.0
C      1  0.4366560000000  0.4723780000000  0.5632680000000 1.0
C      1  0.4308560000000  0.4144660000000  0.5254630000000 1.0
C      1  0.5691420000000  0.5855360000000  0.5254600000000 1.0
C      1  0.5754110000000  0.5275290000000  0.5314600000000 1.0
C      1  0.4245870000000  0.4724740000000  0.5314580000000 1.0
C      1  0.5208620000000  0.5240340000000  0.4137900000000 1.0
C      1  0.4791430000000  0.4759590000000  0.4137910000000 1.0
C      1  0.5017480000000  0.4319620000000  0.5528630000000 1.0
C      1  0.4982490000000  0.5680420000000  0.5528570000000 1.0
C      1  0.4420340000000  0.5315870000000  0.5161500000000 1.0
C      1  0.5579650000000  0.4684140000000  0.5161560000000 1.0
C      1  0.4798970000000  0.4720440000000  0.4780970000000 1.0
C      1  0.5201050000000  0.5279550000000  0.4780950000000 1.0
C      1  0.4649480000000  0.5486880000000  0.5983350000000 1.0
C      1  0.5350460000000  0.4513200000000  0.5983410000000 1.0
C      1  0.4582760000000  0.5467160000000  0.5668030000000 1.0
C      1  0.5417200000000  0.4532900000000  0.5668090000000 1.0
C      1  0.5324680000000  0.5924860000000  0.4633990000000 1.0
C      1  0.4675350000000  0.4075110000000  0.4634050000000 1.0
C      1  0.4921930000000  0.4063220000000  0.5117240000000 1.0
C      1  0.5078060000000  0.5936790000000  0.5117170000000 1.0
C      1  0.4622270000000  0.5734740000000  0.5185250000000 1.0
C      1  0.5377720000000  0.4265270000000  0.5185330000000 1.0
C      1  0.5886400000000  0.5021770000000  0.5494440000000 1.0
C      1  0.4113570000000  0.4978270000000  0.5494390000000 1.0
C      1  0.5617280000000  0.4867000000000  0.5589580000000 1.0
C      1  0.4382680000000  0.5133050000000  0.5589540000000 1.0
C      1  0.4358910000000  0.5710720000000  0.5374290000000 1.0
C      1  0.5641070000000  0.4289310000000  0.5374390000000 1.0
C      1  0.4915190000000  0.5249370000000  0.5282620000000 1.0
C      1  0.5084790000000  0.4750650000000  0.5282650000000 1.0
C      1  0.5374140000000  0.5775030000000  0.4906290000000 1.0
C      1  0.4625870000000  0.4224960000000  0.4906330000000 1.0
C      1  0.4766600000000  0.4389440000000  0.5706670000000 1.0
C      1  0.5233360000000  0.5610620000000  0.5706630000000 1.0
C      1  0.5105260000000  0.4177870000000  0.5300690000000 1.0
C      1  0.4894720000000  0.5822150000000  0.5300620000000 1.0
C      1  0.4952720000000  0.4013850000000  0.4821530000000 1.0
C      1  0.5047290000000  0.5986140000000  0.4821460000000 1.0
C      1  0.5564970000000  0.4926570000000  0.4936560000000 1.0
C      1  0.4435040000000  0.5073430000000  0.4936520000000 1.0
C      1  0.5272390000000  0.5353160000000  0.5476980000000 1.0
C      1  0.4727580000000  0.4646880000000  0.5477000000000 1.0
C      1  0.4725180000000  0.4568530000000  0.4501060000000 1.0
C      1  0.5274850000000  0.5431430000000  0.4501040000000 1.0
C      1  0.5576630000000  0.5406740000000  0.5085650000000 1.0
C      1  0.4423360000000  0.4593270000000  0.5085650000000 1.0
C      1  0.4287200000000  0.5456110000000  0.5510560000000 1.0
C      1  0.5712770000000  0.4543930000000  0.5510640000000 1.0
C      1  0.5481570000000  0.5033430000000  0.4561680000000 1.0
C      1  0.4518450000000  0.4966530000000  0.4561660000000 1.0
C      1  0.5138530000000  0.5597040000000  0.4835360000000 1.0
C      1  0.4861480000000  0.4402950000000  0.4835400000000 1.0
C      1  0.5346020000000  0.4558420000000  0.5356280000000 1.0
C      1  0.4653960000000  0.5441610000000  0.5356230000000 1.0
C      1  0.5725380000000  0.5546850000000  0.4655840000000 1.0
C      1  0.4274640000000  0.4453120000000  0.4655840000000 1.0
C      1  0.4787890000000  0.5930130000000  0.4690350000000 1.0
C      1  0.5212130000000  0.4069840000000  0.4690440000000 1.0
C      1  0.5152960000000  0.4941740000000  0.5685070000000 1.0
C      1  0.4847000000000  0.5058320000000  0.5685060000000 1.0
C      1  0.4309820000000  0.5572020000000  0.4814840000000 1.0
C      1  0.5690190000000  0.4427960000000  0.4814930000000 1.0
C      1  0.4531600000000  0.5204200000000  0.5882230000000 1.0
C      1  0.5468350000000  0.4795870000000  0.5882270000000 1.0
C      1  0.4135970000000  0.5315930000000  0.4839010000000 1.0
C      1  0.5864040000000  0.4684060000000  0.4839090000000 1.0
C      1  0.5875390000000  0.5326980000000  0.4718820000000 1.0
C      1  0.4124630000000  0.4673000000000  0.4718800000000 1.0
C      1  0.4629820000000  0.4954150000000  0.5444710000000 1.0
C      1  0.5370160000000  0.5045890000000  0.5444730000000 1.0
C      1  0.5186030000000  0.4297570000000  0.4436440000000 1.0
C      1  0.4814000000000  0.5702390000000  0.4436370000000 1.0
C      1  0.4057760000000  0.4962630000000  0.5157900000000 1.0
C      1  0.5942230000000  0.5037380000000  0.5157950000000 1.0
C      1  0.5469840000000  0.4735650000000  0.4690360000000 1.0
C      1  0.4530180000000  0.5264330000000  0.4690310000000 1.0
C      1  0.4640920000000  0.5003480000000  0.4252240000000 1.0
C      1  0.5359130000000  0.4996460000000  0.4252270000000 1.0
C      1  0.4528450000000  0.4358660000000  0.4544410000000 1.0
C      1  0.5471570000000  0.5641310000000  0.4544380000000 1.0
C      1  0.5636250000000  0.4832130000000  0.4167460000000 1.0
C      1  0.4363790000000  0.5167800000000  0.4167400000000 1.0
C      1  0.4658260000000  0.5542460000000  0.4200180000000 1.0
C      1  0.5341780000000  0.4457470000000  0.4200240000000 1.0
C      1  0.5301730000000  0.4633890000000  0.4968530000000 1.0
C      1  0.4698270000000  0.5366110000000  0.4968480000000 1.0
C      1  0.4488940000000  0.4772880000000  0.4847810000000 1.0
C      1  0.5511070000000  0.5227110000000  0.4847820000000 1.0
C      1  0.4564240000000  0.4561690000000  0.5831200000000 1.0
C      1  0.5435710000000  0.5438380000000  0.5831190000000 1.0
C      1  0.5168120000000  0.4455930000000  0.4729010000000 1.0
C      1  0.4831900000000  0.5544050000000  0.4728960000000 1.0
C      1  0.5605890000000  0.4555370000000  0.4253520000000 1.0
C      1  0.4394150000000  0.5444560000000  0.4253450000000 1.0
C      1  0.4058660000000  0.4982710000000  0.4854060000000 1.0
C      1  0.5941350000000  0.5017280000000  0.4854110000000 1.0
C      1  0.5418820000000  0.4264160000000  0.4881840000000 1.0
C      1  0.4581190000000  0.5735830000000  0.4881750000000 1.0
C      1  0.5863330000000  0.4742440000000  0.5302420000000 1.0
C      1  0.4136650000000  0.5257590000000  0.5302340000000 1.0
END
