TITL C-2782227-3064-1349 0.000459950165567477 125000 -712.222329007462 0 0 125 (C1) n - 1
REM
REM in /home/nfs/bkarasulu/CARBON/AIRSS/Generating-Clusters/REBO/Higher-Symm/SD-CG/HFTN-CG
REM
REM
REM
REM
REM
REM ./C.cell (12c818d87b63d06a65506943cc24bca4)
REM
REM compiler GCC version 9.2.1 20190827 (Red Hat 9.2.1-1)
REM options -cpp -mtune=generic -march=x86-64 -g -O0 -fpre-include=/usr/include/finclude/math-vector-fortran.h
REM seed -457722567 568593533 -864249295 -129631129 1801195748 1714762393 557318824 -1313608111 283013251 -1002732373 59467268 -1371707463 -86193755 -748208760 -14927253 -1621952416 -1501506361 -350353284 -1530299099 1077488925 -1312021228 895364306 -607028072 227523453 -2022225148 629246238 327264170 516786174 -668059495 -1062104575 -611738387 963310730 -54356893
REM
CELL 1.54180   50.00000   50.00000   50.00000   90.00000   90.00000   90.00000
LATT -1
SFAC C  
C      1  0.4261490000000  0.5192220000000  0.4384430000000 1.0
C      1  0.5319460000000  0.4302900000000  0.4445770000000 1.0
C      1  0.5513860000000  0.5696550000000  0.4488140000000 1.0
C      1  0.4262170000000  0.5049560000000  0.5505770000000 1.0
C      1  0.5362080000000  0.4294070000000  0.5552220000000 1.0
C      1  0.5449570000000  0.5654090000000  0.5556340000000 1.0
C      1  0.4682000000000  0.5891780000000  0.5118980000000 1.0
C      1  0.4407960000000  0.4218210000000  0.5198640000000 1.0
C      1  0.6030450000000  0.4848690000000  0.5184120000000 1.0
C      1  0.4589690000000  0.5918040000000  0.4849560000000 1.0
C      1  0.4417940000000  0.4260650000000  0.4906630000000 1.0
C      1  0.5984590000000  0.4852500000000  0.4878910000000 1.0
C      1  0.5017030000000  0.4899240000000  0.5829230000000 1.0
C      1  0.4946540000000  0.5193440000000  0.5782700000000 1.0
C      1  0.4769070000000  0.4728440000000  0.5946540000000 1.0
C      1  0.5159680000000  0.5043210000000  0.4226240000000 1.0
C      1  0.4922220000000  0.5238570000000  0.4190670000000 1.0
C      1  0.4667100000000  0.4665420000000  0.4083780000000 1.0
C      1  0.4947960000000  0.5274590000000  0.4888160000000 1.0
C      1  0.4916440000000  0.4851590000000  0.4869610000000 1.0
C      1  0.5393700000000  0.5019700000000  0.4916790000000 1.0
C      1  0.4940570000000  0.5231630000000  0.5195170000000 1.0
C      1  0.4906340000000  0.4838100000000  0.5141950000000 1.0
C      1  0.5381960000000  0.4970180000000  0.5161460000000 1.0
C      1  0.5199700000000  0.5754970000000  0.4725920000000 1.0
C      1  0.4330240000000  0.4761230000000  0.4714730000000 1.0
C      1  0.5505450000000  0.4523700000000  0.4721280000000 1.0
C      1  0.5180630000000  0.5762790000000  0.5284750000000 1.0
C      1  0.4334510000000  0.4760000000000  0.5338750000000 1.0
C      1  0.5521770000000  0.4531530000000  0.5274370000000 1.0
C      1  0.5247430000000  0.6031470000000  0.5128290000000 1.0
C      1  0.4068360000000  0.4712980000000  0.5144760000000 1.0
C      1  0.5589750000000  0.4262910000000  0.5122020000000 1.0
C      1  0.5246940000000  0.6024240000000  0.4874660000000 1.0
C      1  0.4070710000000  0.4724910000000  0.4892540000000 1.0
C      1  0.5586650000000  0.4260650000000  0.4867620000000 1.0
C      1  0.3950320000000  0.5446530000000  0.5384450000000 1.0
C      1  0.5022480000000  0.4267000000000  0.5543900000000 1.0
C      1  0.5678060000000  0.5409580000000  0.5610840000000 1.0
C      1  0.3962720000000  0.5229030000000  0.4479330000000 1.0
C      1  0.4984880000000  0.4240050000000  0.4461220000000 1.0
C      1  0.5762130000000  0.5347390000000  0.4481370000000 1.0
C      1  0.4802810000000  0.5585010000000  0.5525530000000 1.0
C      1  0.4646730000000  0.4401310000000  0.5571070000000 1.0
C      1  0.5653280000000  0.4870950000000  0.5620130000000 1.0
C      1  0.4879230000000  0.5621510000000  0.4498040000000 1.0
C      1  0.4603200000000  0.4385300000000  0.4481560000000 1.0
C      1  0.5610540000000  0.4877350000000  0.4413090000000 1.0
C      1  0.5186440000000  0.4591290000000  0.5278670000000 1.0
C      1  0.5362600000000  0.5541980000000  0.5179250000000 1.0
C      1  0.4461220000000  0.5023250000000  0.5160070000000 1.0
C      1  0.5180230000000  0.4595600000000  0.4716430000000 1.0
C      1  0.5380370000000  0.5531440000000  0.4850680000000 1.0
C      1  0.4457790000000  0.5028970000000  0.4823710000000 1.0
C      1  0.4188060000000  0.5276640000000  0.5304920000000 1.0
C      1  0.5212150000000  0.4196510000000  0.5267060000000 1.0
C      1  0.5717820000000  0.5615190000000  0.5343180000000 1.0
C      1  0.4205580000000  0.5314370000000  0.4699100000000 1.0
C      1  0.5193900000000  0.4198130000000  0.4730150000000 1.0
C      1  0.5744550000000  0.5604170000000  0.4708280000000 1.0
C      1  0.5469010000000  0.5306960000000  0.5346320000000 1.0
C      1  0.4654250000000  0.5231030000000  0.5306440000000 1.0
C      1  0.4838210000000  0.4560510000000  0.5255330000000 1.0
C      1  0.5478230000000  0.5310470000000  0.4662940000000 1.0
C      1  0.4684270000000  0.5237320000000  0.4735250000000 1.0
C      1  0.4839290000000  0.4568060000000  0.4747130000000 1.0
C      1  0.5157150000000  0.4854480000000  0.4493460000000 1.0
C      1  0.5111300000000  0.5378440000000  0.4436390000000 1.0
C      1  0.4636610000000  0.4941160000000  0.4144710000000 1.0
C      1  0.5094560000000  0.4779740000000  0.5545750000000 1.0
C      1  0.5037510000000  0.5340090000000  0.5487880000000 1.0
C      1  0.4518170000000  0.4945030000000  0.5914790000000 1.0
C      1  0.4528790000000  0.4542680000000  0.5166950000000 1.0
C      1  0.5706590000000  0.4739790000000  0.5143380000000 1.0
C      1  0.4932580000000  0.5735640000000  0.5115160000000 1.0
C      1  0.4538140000000  0.4573800000000  0.4845230000000 1.0
C      1  0.5666920000000  0.4741230000000  0.4832810000000 1.0
C      1  0.4987100000000  0.5582860000000  0.4877520000000 1.0
C      1  0.5488870000000  0.4705880000000  0.5861900000000 1.0
C      1  0.5193550000000  0.5627080000000  0.5900850000000 1.0
C      1  0.4304200000000  0.4555970000000  0.5868880000000 1.0
C      1  0.5409210000000  0.4736550000000  0.4173360000000 1.0
C      1  0.5131520000000  0.5574550000000  0.4138930000000 1.0
C      1  0.4235470000000  0.4541820000000  0.4222830000000 1.0
C      1  0.5755000000000  0.5309640000000  0.5182400000000 1.0
C      1  0.4447280000000  0.5442370000000  0.5161370000000 1.0
C      1  0.4911290000000  0.4248700000000  0.5160870000000 1.0
C      1  0.5746860000000  0.5302610000000  0.4875940000000 1.0
C      1  0.4462030000000  0.5441440000000  0.4846510000000 1.0
C      1  0.4902850000000  0.4249730000000  0.4853550000000 1.0
C      1  0.5287710000000  0.5380030000000  0.5689070000000 1.0
C      1  0.4442100000000  0.5114390000000  0.5719070000000 1.0
C      1  0.5227990000000  0.4542650000000  0.5738790000000 1.0
C      1  0.5408870000000  0.5460490000000  0.4300770000000 1.0
C      1  0.4515660000000  0.5150430000000  0.4290760000000 1.0
C      1  0.5153940000000  0.4567660000000  0.4318770000000 1.0
C      1  0.4668440000000  0.5285510000000  0.5623480000000 1.0
C      1  0.4890300000000  0.4503470000000  0.5749410000000 1.0
C      1  0.5501150000000  0.5133820000000  0.5637920000000 1.0
C      1  0.4720370000000  0.5323120000000  0.4442280000000 1.0
C      1  0.4833770000000  0.4483580000000  0.4277740000000 1.0
C      1  0.5423300000000  0.5135520000000  0.4393240000000 1.0
C      1  0.4414120000000  0.4551200000000  0.4009290000000 1.0
C      1  0.5281410000000  0.4919040000000  0.3971120000000 1.0
C      1  0.4937950000000  0.5434320000000  0.3950780000000 1.0
C      1  0.4498390000000  0.4580170000000  0.6066710000000 1.0
C      1  0.5260700000000  0.4855740000000  0.5987730000000 1.0
C      1  0.5041220000000  0.5392760000000  0.6003740000000 1.0
C      1  0.4591510000000  0.5681260000000  0.5313380000000 1.0
C      1  0.4660580000000  0.4218650000000  0.5358350000000 1.0
C      1  0.5780000000000  0.5008830000000  0.5339190000000 1.0
C      1  0.4614510000000  0.5687350000000  0.4698370000000 1.0
C      1  0.4634980000000  0.4215640000000  0.4702040000000 1.0
C      1  0.5762180000000  0.5022420000000  0.4681990000000 1.0
C      1  0.5111070000000  0.5720520000000  0.5585830000000 1.0
C      1  0.4399790000000  0.4554330000000  0.5601580000000 1.0
C      1  0.5594970000000  0.4537470000000  0.5585590000000 1.0
C      1  0.5182980000000  0.5766950000000  0.4415570000000 1.0
C      1  0.4363010000000  0.4547510000000  0.4476760000000 1.0
C      1  0.5543120000000  0.4542080000000  0.4404840000000 1.0
C      1  0.5238800000000  0.4406780000000  0.4997110000000 1.0
C      1  0.4203920000000  0.5174750000000  0.4993580000000 1.0
C      1  0.5644500000000  0.5659570000000  0.5023440000000 1.0
C      1  0.5119090000000  0.4988800000000  0.5311910000000 1.0
C      1  0.5136010000000  0.5047750000000  0.4749990000000 1.0
END
