TITL C-2782230-7391-845 0.00353328040860214 125000 -180.485171484447 0 0 34 (C1) n - 1
REM
REM in /home/nfs/bkarasulu/CARBON/AIRSS/Generating-Clusters/REBO/Higher-Symm/SD-CG/HFTN-CG
REM
REM
REM
REM
REM
REM ./C.cell (12c818d87b63d06a65506943cc24bca4)
REM
REM compiler GCC version 9.2.1 20190827 (Red Hat 9.2.1-1)
REM options -cpp -mtune=generic -march=x86-64 -g -O0 -fpre-include=/usr/include/finclude/math-vector-fortran.h
REM seed -913667289 571935169 -750823891 1894328725 938585273 2132175776 14961516 -1900001455 737453105 1242296981 938759433 798304181 -1430823153 1977282626 -1963792265 1168720724 1166176638 1568436125 -1812224906 1850387963 2068503977 849664949 -1176475112 1608745391 -1486427530 -1007863552 453117237 2134193650 -615932844 -2061199410 -387741296 597294405 -1480997141
REM
CELL 1.54180   50.00000   50.00000   50.00000   90.00000   90.00000   90.00000
LATT -1
SFAC C  
C      1  0.5064420000000  0.5437170000000  0.4920370000000 1.0
C      1  0.4920540000000  0.4530930000000  0.5079080000000 1.0
C      1  0.5284580000000  0.5420970000000  0.5469550000000 1.0
C      1  0.4741200000000  0.4642080000000  0.4518650000000 1.0
C      1  0.5533220000000  0.5020940000000  0.5101280000000 1.0
C      1  0.4475620000000  0.4944670000000  0.4875510000000 1.0
C      1  0.5444410000000  0.5070740000000  0.4716310000000 1.0
C      1  0.4585620000000  0.4911510000000  0.5256400000000 1.0
C      1  0.5230010000000  0.4892850000000  0.4647290000000 1.0
C      1  0.4780500000000  0.5110040000000  0.5348120000000 1.0
C      1  0.4884260000000  0.4713610000000  0.4732630000000 1.0
C      1  0.5083840000000  0.5361070000000  0.5303830000000 1.0
C      1  0.5336600000000  0.5256090000000  0.4952300000000 1.0
C      1  0.4626260000000  0.4674990000000  0.5030920000000 1.0
C      1  0.5713130000000  0.4981790000000  0.4813560000000 1.0
C      1  0.4290810000000  0.4976520000000  0.5160010000000 1.0
C      1  0.5667710000000  0.5144830000000  0.5350190000000 1.0
C      1  0.4335450000000  0.4854820000000  0.4614970000000 1.0
C      1  0.5011080000000  0.5012770000000  0.4501740000000 1.0
C      1  0.5011500000000  0.5002880000000  0.5465090000000 1.0
C      1  0.5540240000000  0.5331140000000  0.5503880000000 1.0
C      1  0.4483570000000  0.4699540000000  0.4444130000000 1.0
C      1  0.5373070000000  0.4761980000000  0.5153570000000 1.0
C      1  0.4644590000000  0.5204010000000  0.4846200000000 1.0
C      1  0.5002870000000  0.4535960000000  0.5347090000000 1.0
C      1  0.4975940000000  0.5460520000000  0.4648650000000 1.0
C      1  0.4794400000000  0.5356200000000  0.5115960000000 1.0
C      1  0.5171530000000  0.4683730000000  0.4904540000000 1.0
C      1  0.4834660000000  0.5218830000000  0.4589790000000 1.0
C      1  0.5163820000000  0.4772880000000  0.5395320000000 1.0
C      1  0.5569700000000  0.4528030000000  0.5200290000000 1.0
C      1  0.4479990000000  0.5473030000000  0.4899750000000 1.0
C      1  0.4865940000000  0.4915620000000  0.5010300000000 1.0
C      1  0.5078900000000  0.5097270000000  0.5082720000000 1.0
END
