TITL C-2782238-9940-881 -0.000288086831214509 125000 -714.959176856707 0 0 124 (C1) n - 1
REM
REM in /home/nfs/bkarasulu/CARBON/AIRSS/Generating-Clusters/REBO/Higher-Symm/SD-CG/HFTN-CG
REM
REM
REM
REM
REM
REM ./C.cell (12c818d87b63d06a65506943cc24bca4)
REM
REM compiler GCC version 9.2.1 20190827 (Red Hat 9.2.1-1)
REM options -cpp -mtune=generic -march=x86-64 -g -O0 -fpre-include=/usr/include/finclude/math-vector-fortran.h
REM seed -801139841 -1360263453 -1865336058 1176532481 -259674798 1773903205 1782421754 1173431359 -1334447678 1347067124 1230417658 -900785924 -2025366966 -1637244409 702529338 -1982674330 -1802581488 1022609697 -1886182464 1644242284 -609160546 807825771 894666184 -23459251 240851074 -1998495578 -304609345 -1309619111 -228622706 -254731566 -785541426 1029976668 -918604275
REM
CELL 1.54180   50.00000   50.00000   50.00000   90.00000   90.00000   90.00000
LATT -1
SFAC C  
C      1  0.4477350000000  0.4768820000000  0.5235890000000 1.0
C      1  0.5509910000000  0.5225830000000  0.5247860000000 1.0
C      1  0.5548150000000  0.4768830000000  0.5237890000000 1.0
C      1  0.4475480000000  0.5243320000000  0.5256790000000 1.0
C      1  0.5238880000000  0.5495620000000  0.5094140000000 1.0
C      1  0.4762890000000  0.4492600000000  0.5088260000000 1.0
C      1  0.4768310000000  0.5509540000000  0.5141320000000 1.0
C      1  0.5231840000000  0.4484440000000  0.5137370000000 1.0
C      1  0.4823250000000  0.5326220000000  0.4868630000000 1.0
C      1  0.5177360000000  0.4667970000000  0.4868280000000 1.0
C      1  0.5169360000000  0.5297530000000  0.4845130000000 1.0
C      1  0.4831010000000  0.4694150000000  0.4842500000000 1.0
C      1  0.5927530000000  0.4838880000000  0.5009950000000 1.0
C      1  0.4064900000000  0.5157530000000  0.5018390000000 1.0
C      1  0.4077220000000  0.4862500000000  0.5010860000000 1.0
C      1  0.5925350000000  0.5132940000000  0.5018380000000 1.0
C      1  0.3925160000000  0.4909500000000  0.4525260000000 1.0
C      1  0.6101000000000  0.5178550000000  0.4546760000000 1.0
C      1  0.6086660000000  0.4870030000000  0.4519650000000 1.0
C      1  0.3894300000000  0.5216660000000  0.4544290000000 1.0
C      1  0.4716230000000  0.5316400000000  0.4302470000000 1.0
C      1  0.5281260000000  0.4666540000000  0.4304680000000 1.0
C      1  0.5274040000000  0.5267730000000  0.4305220000000 1.0
C      1  0.4728540000000  0.4715330000000  0.4301430000000 1.0
C      1  0.6082050000000  0.4687120000000  0.4756550000000 1.0
C      1  0.3880950000000  0.5343280000000  0.4802230000000 1.0
C      1  0.3916230000000  0.4720770000000  0.4756670000000 1.0
C      1  0.6111650000000  0.5311980000000  0.4799890000000 1.0
C      1  0.5143240000000  0.4386840000000  0.4438970000000 1.0
C      1  0.4853460000000  0.5595620000000  0.4439830000000 1.0
C      1  0.4822180000000  0.4405670000000  0.4376430000000 1.0
C      1  0.5179320000000  0.5577590000000  0.4380810000000 1.0
C      1  0.5472850000000  0.4919360000000  0.5781090000000 1.0
C      1  0.4522680000000  0.5109860000000  0.5817370000000 1.0
C      1  0.4552300000000  0.4771070000000  0.5799110000000 1.0
C      1  0.5461230000000  0.5253200000000  0.5815880000000 1.0
C      1  0.5651280000000  0.5542350000000  0.5444780000000 1.0
C      1  0.4343320000000  0.4461460000000  0.5451500000000 1.0
C      1  0.4298350000000  0.5500350000000  0.5505910000000 1.0
C      1  0.5699000000000  0.4507080000000  0.5498530000000 1.0
C      1  0.4574150000000  0.4488760000000  0.5650580000000 1.0
C      1  0.5429940000000  0.5522040000000  0.5650640000000 1.0
C      1  0.5457330000000  0.4588040000000  0.5697270000000 1.0
C      1  0.4534540000000  0.5432920000000  0.5707180000000 1.0
C      1  0.5925900000000  0.5521980000000  0.4948860000000 1.0
C      1  0.4063860000000  0.4479430000000  0.4913080000000 1.0
C      1  0.4063880000000  0.5549120000000  0.4956970000000 1.0
C      1  0.5946070000000  0.4451360000000  0.4926710000000 1.0
C      1  0.5497250000000  0.5537650000000  0.4495670000000 1.0
C      1  0.4502540000000  0.4441160000000  0.4482800000000 1.0
C      1  0.4525720000000  0.5576940000000  0.4535610000000 1.0
C      1  0.5471410000000  0.4401290000000  0.4533140000000 1.0
C      1  0.5150980000000  0.5155490000000  0.5789740000000 1.0
C      1  0.4851640000000  0.4897230000000  0.5741840000000 1.0
C      1  0.4845370000000  0.5229410000000  0.5781730000000 1.0
C      1  0.5154650000000  0.4809200000000  0.5743380000000 1.0
C      1  0.4367960000000  0.5607320000000  0.4819810000000 1.0
C      1  0.5629570000000  0.4384810000000  0.4820930000000 1.0
C      1  0.5640380000000  0.5579260000000  0.4782530000000 1.0
C      1  0.4365950000000  0.4418030000000  0.4772970000000 1.0
C      1  0.4865830000000  0.5406410000000  0.5415110000000 1.0
C      1  0.5130970000000  0.4591260000000  0.5409430000000 1.0
C      1  0.5169740000000  0.5393920000000  0.5372700000000 1.0
C      1  0.4830830000000  0.4594580000000  0.5362870000000 1.0
C      1  0.4848080000000  0.4863410000000  0.4550390000000 1.0
C      1  0.5150320000000  0.5123920000000  0.4554170000000 1.0
C      1  0.5172880000000  0.4806160000000  0.4563550000000 1.0
C      1  0.4824730000000  0.5181460000000  0.4564510000000 1.0
C      1  0.4249590000000  0.4861090000000  0.4512460000000 1.0
C      1  0.5778230000000  0.5121660000000  0.4509550000000 1.0
C      1  0.5760790000000  0.4802310000000  0.4516600000000 1.0
C      1  0.4220030000000  0.5178000000000  0.4517410000000 1.0
C      1  0.5589520000000  0.5286090000000  0.4348160000000 1.0
C      1  0.4412940000000  0.4696460000000  0.4334300000000 1.0
C      1  0.4405530000000  0.5353170000000  0.4360410000000 1.0
C      1  0.5591370000000  0.4624680000000  0.4353150000000 1.0
C      1  0.5192090000000  0.4204720000000  0.5343630000000 1.0
C      1  0.4804420000000  0.5792250000000  0.5344300000000 1.0
C      1  0.4870500000000  0.4212820000000  0.5255110000000 1.0
C      1  0.5124490000000  0.5773070000000  0.5256520000000 1.0
C      1  0.4710080000000  0.5152500000000  0.5469320000000 1.0
C      1  0.5306700000000  0.4834570000000  0.5427950000000 1.0
C      1  0.5278620000000  0.5133980000000  0.5481630000000 1.0
C      1  0.4715180000000  0.4850290000000  0.5444040000000 1.0
C      1  0.4384300000000  0.4235780000000  0.5237610000000 1.0
C      1  0.5605480000000  0.5772300000000  0.5248260000000 1.0
C      1  0.5633180000000  0.4270020000000  0.5310040000000 1.0
C      1  0.4361380000000  0.5727220000000  0.5306310000000 1.0
C      1  0.5842000000000  0.4597390000000  0.5216150000000 1.0
C      1  0.4168470000000  0.5384840000000  0.5232210000000 1.0
C      1  0.4177460000000  0.4610300000000  0.5206800000000 1.0
C      1  0.5819940000000  0.5365500000000  0.5232050000000 1.0
C      1  0.5144590000000  0.5129060000000  0.4069620000000 1.0
C      1  0.4858710000000  0.4855340000000  0.4066840000000 1.0
C      1  0.4833740000000  0.5169250000000  0.4064950000000 1.0
C      1  0.5168660000000  0.4814770000000  0.4065130000000 1.0
C      1  0.5686210000000  0.4720670000000  0.4802620000000 1.0
C      1  0.4306050000000  0.5272570000000  0.4809350000000 1.0
C      1  0.4319010000000  0.4755540000000  0.4794620000000 1.0
C      1  0.5691010000000  0.5242140000000  0.4796290000000 1.0
C      1  0.4844950000000  0.4140530000000  0.4923530000000 1.0
C      1  0.5152690000000  0.5846040000000  0.4925810000000 1.0
C      1  0.5173480000000  0.4112800000000  0.5014530000000 1.0
C      1  0.4824610000000  0.5880420000000  0.5014660000000 1.0
C      1  0.5158850000000  0.5606080000000  0.4696400000000 1.0
C      1  0.4836520000000  0.4383610000000  0.4694180000000 1.0
C      1  0.4835870000000  0.5659730000000  0.4770320000000 1.0
C      1  0.5159250000000  0.4334100000000  0.4770810000000 1.0
C      1  0.5459690000000  0.5712140000000  0.4998260000000 1.0
C      1  0.4538970000000  0.4283070000000  0.4991340000000 1.0
C      1  0.4527460000000  0.5715190000000  0.5066960000000 1.0
C      1  0.5471070000000  0.4278010000000  0.5066990000000 1.0
C      1  0.5663880000000  0.5188360000000  0.5550420000000 1.0
C      1  0.4333510000000  0.4817960000000  0.5541860000000 1.0
C      1  0.4320040000000  0.5159030000000  0.5551710000000 1.0
C      1  0.5688680000000  0.4848020000000  0.5539620000000 1.0
C      1  0.4869310000000  0.4338500000000  0.5573200000000 1.0
C      1  0.5130110000000  0.5657160000000  0.5577620000000 1.0
C      1  0.5202600000000  0.4369270000000  0.5642870000000 1.0
C      1  0.4796180000000  0.5634160000000  0.5646350000000 1.0
C      1  0.5443230000000  0.4838340000000  0.4954550000000 1.0
C      1  0.4556080000000  0.5162700000000  0.4965830000000 1.0
C      1  0.4564470000000  0.4861720000000  0.4952370000000 1.0
C      1  0.5439720000000  0.5139090000000  0.4955310000000 1.0
END
