TITL C-2782225-7408-270 -0.00371015694600262 125000 -1100.3803188194 0 0 183 (C1) n - 1
REM
REM in /home/nfs/bkarasulu/CARBON/AIRSS/Generating-Clusters/REBO/Higher-Symm/SD-CG/HFTN-CG
REM
REM
REM
REM
REM
REM ./C.cell (12c818d87b63d06a65506943cc24bca4)
REM
REM compiler GCC version 9.2.1 20190827 (Red Hat 9.2.1-1)
REM options -cpp -mtune=generic -march=x86-64 -g -O0 -fpre-include=/usr/include/finclude/math-vector-fortran.h
REM seed 344775592 741940620 -535662750 -233285421 503457110 -598631174 -1022303180 -564628145 -864393698 -1929272740 -1222832831 -1541729554 878841702 634627957 1249055450 844154433 -189637731 -1716335191 -842303325 -1873385607 2108254134 1773527726 -277695155 1436839274 -1745938888 -354663658 -1707459782 -115051252 1654487963 561927497 -821598483 1760977914 -1151605203
REM
CELL 1.54180   50.00000   50.00000   50.00000   90.00000   90.00000   90.00000
LATT -1
SFAC C  
C      1  0.4279800000000  0.4401660000000  0.4342800000000 1.0
C      1  0.4057110000000  0.4535210000000  0.5224830000000 1.0
C      1  0.4612280000000  0.4614180000000  0.5906390000000 1.0
C      1  0.5392370000000  0.4504710000000  0.5887080000000 1.0
C      1  0.6056210000000  0.4592260000000  0.5211120000000 1.0
C      1  0.5839050000000  0.4586700000000  0.4269940000000 1.0
C      1  0.5065690000000  0.4533770000000  0.3969990000000 1.0
C      1  0.5607690000000  0.5396000000000  0.5783150000000 1.0
C      1  0.5986830000000  0.5400890000000  0.5054190000000 1.0
C      1  0.5609320000000  0.5389140000000  0.4266300000000 1.0
C      1  0.4865260000000  0.5305850000000  0.4046980000000 1.0
C      1  0.4201150000000  0.5346410000000  0.4560020000000 1.0
C      1  0.4144140000000  0.5336930000000  0.5453290000000 1.0
C      1  0.4755520000000  0.5405560000000  0.5939570000000 1.0
C      1  0.4536110000000  0.5265060000000  0.4122350000000 1.0
C      1  0.4031950000000  0.5269320000000  0.4847690000000 1.0
C      1  0.4258040000000  0.5294850000000  0.5714410000000 1.0
C      1  0.5089410000000  0.5350400000000  0.5987450000000 1.0
C      1  0.5844020000000  0.5361120000000  0.5595790000000 1.0
C      1  0.5976860000000  0.5322150000000  0.4722860000000 1.0
C      1  0.5391430000000  0.5322820000000  0.4074780000000 1.0
C      1  0.4388950000000  0.5698510000000  0.4571290000000 1.0
C      1  0.4218600000000  0.5672510000000  0.5252340000000 1.0
C      1  0.4630080000000  0.5811850000000  0.5789830000000 1.0
C      1  0.5333570000000  0.5742470000000  0.5752740000000 1.0
C      1  0.5813150000000  0.5825890000000  0.5233860000000 1.0
C      1  0.5621800000000  0.5718760000000  0.4557600000000 1.0
C      1  0.4965350000000  0.5687230000000  0.4237910000000 1.0
C      1  0.4622460000000  0.3935140000000  0.4934020000000 1.0
C      1  0.4777700000000  0.3905250000000  0.5235420000000 1.0
C      1  0.5039040000000  0.3882140000000  0.5381120000000 1.0
C      1  0.5266110000000  0.3885020000000  0.5216860000000 1.0
C      1  0.5258800000000  0.3935760000000  0.4916240000000 1.0
C      1  0.5057580000000  0.3949290000000  0.4657080000000 1.0
C      1  0.4770670000000  0.3909380000000  0.4660090000000 1.0
C      1  0.4580470000000  0.5915200000000  0.5514930000000 1.0
C      1  0.5101500000000  0.5892870000000  0.5684620000000 1.0
C      1  0.5567800000000  0.5897770000000  0.5356380000000 1.0
C      1  0.5603900000000  0.5887200000000  0.4781880000000 1.0
C      1  0.5135470000000  0.5834650000000  0.4435130000000 1.0
C      1  0.4633720000000  0.5865210000000  0.4555990000000 1.0
C      1  0.4389280000000  0.5799580000000  0.5046550000000 1.0
C      1  0.5633660000000  0.4894420000000  0.4123890000000 1.0
C      1  0.4803750000000  0.4978210000000  0.4050170000000 1.0
C      1  0.4103300000000  0.4816840000000  0.4559090000000 1.0
C      1  0.4260470000000  0.4833970000000  0.5558460000000 1.0
C      1  0.4874140000000  0.4914020000000  0.5922040000000 1.0
C      1  0.5719400000000  0.4871250000000  0.5768860000000 1.0
C      1  0.6052820000000  0.4860420000000  0.4916950000000 1.0
C      1  0.4320630000000  0.5630090000000  0.4824710000000 1.0
C      1  0.4367780000000  0.5667440000000  0.5527630000000 1.0
C      1  0.4888190000000  0.5880000000000  0.5873710000000 1.0
C      1  0.5512990000000  0.5701250000000  0.5542830000000 1.0
C      1  0.5823430000000  0.5898960000000  0.4960400000000 1.0
C      1  0.5379660000000  0.5678640000000  0.4419960000000 1.0
C      1  0.4687780000000  0.5679510000000  0.4310690000000 1.0
C      1  0.5395180000000  0.4898860000000  0.5369290000000 1.0
C      1  0.5554110000000  0.4770510000000  0.4809890000000 1.0
C      1  0.5315720000000  0.4778160000000  0.4462340000000 1.0
C      1  0.4854200000000  0.4752640000000  0.4305200000000 1.0
C      1  0.4417790000000  0.4938190000000  0.4773710000000 1.0
C      1  0.4469720000000  0.4853090000000  0.5320220000000 1.0
C      1  0.4959700000000  0.4857820000000  0.5601140000000 1.0
C      1  0.5558720000000  0.3942210000000  0.4805030000000 1.0
C      1  0.5189810000000  0.4062580000000  0.4435570000000 1.0
C      1  0.4626990000000  0.3978130000000  0.4418750000000 1.0
C      1  0.4319200000000  0.4001200000000  0.4938300000000 1.0
C      1  0.4578960000000  0.4094520000000  0.5391010000000 1.0
C      1  0.5047120000000  0.4004440000000  0.5649270000000 1.0
C      1  0.5501760000000  0.3947360000000  0.5345710000000 1.0
C      1  0.5146550000000  0.5043520000000  0.6006130000000 1.0
C      1  0.5873460000000  0.5034410000000  0.5547450000000 1.0
C      1  0.6003560000000  0.5010500000000  0.4672000000000 1.0
C      1  0.5392260000000  0.5028020000000  0.4026660000000 1.0
C      1  0.4459570000000  0.4958510000000  0.4080100000000 1.0
C      1  0.4005660000000  0.4945410000000  0.4793950000000 1.0
C      1  0.4321310000000  0.5017600000000  0.5775400000000 1.0
C      1  0.4429830000000  0.5146710000000  0.4577060000000 1.0
C      1  0.4352590000000  0.5231920000000  0.5234620000000 1.0
C      1  0.4709550000000  0.5302190000000  0.5617880000000 1.0
C      1  0.5316090000000  0.5279270000000  0.5645540000000 1.0
C      1  0.5686400000000  0.5299670000000  0.5159560000000 1.0
C      1  0.5533500000000  0.5236830000000  0.4551230000000 1.0
C      1  0.5034290000000  0.5209060000000  0.4331200000000 1.0
C      1  0.4821740000000  0.4126300000000  0.4218600000000 1.0
C      1  0.4219010000000  0.4077140000000  0.4665400000000 1.0
C      1  0.4303440000000  0.4151580000000  0.5418000000000 1.0
C      1  0.4774450000000  0.4190760000000  0.5716710000000 1.0
C      1  0.5505200000000  0.4195900000000  0.5526820000000 1.0
C      1  0.5687830000000  0.4144490000000  0.4739970000000 1.0
C      1  0.5461770000000  0.4238980000000  0.4383840000000 1.0
C      1  0.5038460000000  0.4395000000000  0.5712200000000 1.0
C      1  0.5739330000000  0.4378060000000  0.5573020000000 1.0
C      1  0.5572270000000  0.4446810000000  0.4706660000000 1.0
C      1  0.5224720000000  0.4459090000000  0.4421630000000 1.0
C      1  0.4671320000000  0.4371320000000  0.4406430000000 1.0
C      1  0.4188140000000  0.4362670000000  0.4838690000000 1.0
C      1  0.4270780000000  0.4350760000000  0.5621120000000 1.0
C      1  0.4660250000000  0.4992260000000  0.5566030000000 1.0
C      1  0.5265210000000  0.4978700000000  0.5631340000000 1.0
C      1  0.5685650000000  0.5015800000000  0.5284870000000 1.0
C      1  0.5567410000000  0.4943970000000  0.4535430000000 1.0
C      1  0.5115240000000  0.4930360000000  0.4295960000000 1.0
C      1  0.4580480000000  0.4664170000000  0.4153390000000 1.0
C      1  0.4299420000000  0.4952570000000  0.5062970000000 1.0
C      1  0.5022340000000  0.5435770000000  0.5666430000000 1.0
C      1  0.5502920000000  0.5425650000000  0.5401790000000 1.0
C      1  0.5670440000000  0.5348550000000  0.4822650000000 1.0
C      1  0.5255330000000  0.5375880000000  0.4446670000000 1.0
C      1  0.4702510000000  0.5246340000000  0.4404020000000 1.0
C      1  0.4335100000000  0.5328760000000  0.4932240000000 1.0
C      1  0.4543930000000  0.5434460000000  0.5398780000000 1.0
C      1  0.5949300000000  0.4415130000000  0.5395580000000 1.0
C      1  0.5720370000000  0.4382420000000  0.4417450000000 1.0
C      1  0.5128740000000  0.4262380000000  0.4164860000000 1.0
C      1  0.4362780000000  0.4118040000000  0.4419590000000 1.0
C      1  0.4171680000000  0.4223980000000  0.5149270000000 1.0
C      1  0.4504790000000  0.4376910000000  0.5786700000000 1.0
C      1  0.5296010000000  0.4192410000000  0.5789340000000 1.0
C      1  0.5079580000000  0.5941170000000  0.4701640000000 1.0
C      1  0.4802240000000  0.5934260000000  0.4779890000000 1.0
C      1  0.4665110000000  0.5922070000000  0.5042640000000 1.0
C      1  0.4777840000000  0.5958920000000  0.5310080000000 1.0
C      1  0.5054730000000  0.5967000000000  0.5401920000000 1.0
C      1  0.5310570000000  0.6008300000000  0.5224370000000 1.0
C      1  0.5325350000000  0.5991860000000  0.4883550000000 1.0
C      1  0.4787100000000  0.5077080000000  0.4736440000000 1.0
C      1  0.4669450000000  0.5092220000000  0.5041030000000 1.0
C      1  0.4794880000000  0.5082450000000  0.5295260000000 1.0
C      1  0.5055510000000  0.5195470000000  0.5356610000000 1.0
C      1  0.5324290000000  0.5144590000000  0.5181310000000 1.0
C      1  0.5397580000000  0.5064070000000  0.4882860000000 1.0
C      1  0.5123150000000  0.5103840000000  0.4706470000000 1.0
C      1  0.4737220000000  0.5557720000000  0.5190970000000 1.0
C      1  0.5014540000000  0.5532580000000  0.5354360000000 1.0
C      1  0.5281460000000  0.5481540000000  0.5192510000000 1.0
C      1  0.5369310000000  0.5413890000000  0.4889210000000 1.0
C      1  0.5129480000000  0.5527120000000  0.4690020000000 1.0
C      1  0.4825240000000  0.5417820000000  0.4652460000000 1.0
C      1  0.4639950000000  0.5405790000000  0.4907490000000 1.0
C      1  0.5229890000000  0.4373370000000  0.5443190000000 1.0
C      1  0.5271270000000  0.4292630000000  0.5120980000000 1.0
C      1  0.5303390000000  0.4253880000000  0.4790060000000 1.0
C      1  0.5015000000000  0.4351380000000  0.4652810000000 1.0
C      1  0.4578700000000  0.4411870000000  0.4663870000000 1.0
C      1  0.4477270000000  0.4457990000000  0.4985470000000 1.0
C      1  0.4741570000000  0.4371180000000  0.5435850000000 1.0
C      1  0.5400000000000  0.4846330000000  0.5891300000000 1.0
C      1  0.5981720000000  0.4899480000000  0.5249410000000 1.0
C      1  0.5842520000000  0.4884030000000  0.4400330000000 1.0
C      1  0.5110440000000  0.4838090000000  0.3985760000000 1.0
C      1  0.4280470000000  0.4741410000000  0.4276020000000 1.0
C      1  0.4036490000000  0.4765410000000  0.5055200000000 1.0
C      1  0.4534340000000  0.4913450000000  0.5937060000000 1.0
C      1  0.6149430000000  0.4562490000000  0.4921840000000 1.0
C      1  0.5741070000000  0.4633860000000  0.3981820000000 1.0
C      1  0.4777390000000  0.4429300000000  0.4084170000000 1.0
C      1  0.4147420000000  0.4526260000000  0.4582980000000 1.0
C      1  0.4131380000000  0.4581300000000  0.5509890000000 1.0
C      1  0.4917150000000  0.4594530000000  0.5898390000000 1.0
C      1  0.5661420000000  0.4575780000000  0.5759740000000 1.0
C      1  0.5170500000000  0.4708690000000  0.4726930000000 1.0
C      1  0.4877890000000  0.4661070000000  0.4587200000000 1.0
C      1  0.4600330000000  0.4725000000000  0.4740290000000 1.0
C      1  0.4626590000000  0.4597760000000  0.5228120000000 1.0
C      1  0.4935180000000  0.4634280000000  0.5376140000000 1.0
C      1  0.5251630000000  0.4657010000000  0.5276980000000 1.0
C      1  0.5339170000000  0.4597260000000  0.4989180000000 1.0
C      1  0.5355140000000  0.5527150000000  0.5953800000000 1.0
C      1  0.5930030000000  0.5559700000000  0.5334310000000 1.0
C      1  0.5820440000000  0.5506590000000  0.4488040000000 1.0
C      1  0.5138230000000  0.5484250000000  0.4063670000000 1.0
C      1  0.4399470000000  0.5490680000000  0.4320270000000 1.0
C      1  0.4020790000000  0.5433370000000  0.5150070000000 1.0
C      1  0.4456780000000  0.5527160000000  0.5828720000000 1.0
C      1  0.5339710000000  0.6541170000000  0.5031410000000 1.0
C      1  0.4949260000000  0.4674710000000  0.4979370000000 1.0
C      1  0.5329420000000  0.6285570000000  0.5042390000000 1.0
C      1  0.4870890000000  0.4410290000000  0.4936030000000 1.0
C      1  0.4768890000000  0.4197740000000  0.5067050000000 1.0
C      1  0.5037500000000  0.4947490000000  0.5012620000000 1.0
C      1  0.4978610000000  0.5603920000000  0.4967470000000 1.0
C      1  0.5009700000000  0.5285080000000  0.4980870000000 1.0
END
