TITL C-2782228-2999-1488 0.00800207519167632 125000 -340.476993635816 0 0 61 (C1) n - 1
REM
REM in /home/nfs/bkarasulu/CARBON/AIRSS/Generating-Clusters/REBO/Higher-Symm/SD-CG/HFTN-CG
REM
REM
REM
REM
REM
REM ./C.cell (12c818d87b63d06a65506943cc24bca4)
REM
REM compiler GCC version 9.2.1 20190827 (Red Hat 9.2.1-1)
REM options -cpp -mtune=generic -march=x86-64 -g -O0 -fpre-include=/usr/include/finclude/math-vector-fortran.h
REM seed 509868241 -1285258068 1862607477 -520995522 -1900100196 886722815 1225813141 1210688320 956172136 -600212793 -1413430895 1226488044 594636018 -1143717707 -1815987414 -23830740 1152183212 2061145826 869509541 -589143933 397325315 1430446785 340344799 -1976397118 -766957693 443909669 674932765 -1814001878 1066602179 2110044661 -1467323937 1419071241 1569161648
REM
CELL 1.54180   50.00000   50.00000   50.00000   90.00000   90.00000   90.00000
LATT -1
SFAC C  
C      1  0.4703950000000  0.4959570000000  0.4424410000000 1.0
C      1  0.4815660000000  0.5230650000000  0.4425710000000 1.0
C      1  0.5105790000000  0.5256030000000  0.4436910000000 1.0
C      1  0.5294250000000  0.5036540000000  0.4405390000000 1.0
C      1  0.5183560000000  0.4766780000000  0.4404530000000 1.0
C      1  0.4894620000000  0.4738990000000  0.4430550000000 1.0
C      1  0.5321770000000  0.4570150000000  0.4602060000000 1.0
C      1  0.4840030000000  0.4553170000000  0.4640670000000 1.0
C      1  0.4500090000000  0.4933480000000  0.4626280000000 1.0
C      1  0.4692770000000  0.5401540000000  0.4626320000000 1.0
C      1  0.5189430000000  0.5441910000000  0.4639370000000 1.0
C      1  0.5531970000000  0.5069290000000  0.4606000000000 1.0
C      1  0.5803050000000  0.5036570000000  0.5167730000000 1.0
C      1  0.5440180000000  0.4344860000000  0.5168640000000 1.0
C      1  0.4649520000000  0.4286200000000  0.5201900000000 1.0
C      1  0.4211310000000  0.4972020000000  0.5209890000000 1.0
C      1  0.4572790000000  0.5685670000000  0.5206630000000 1.0
C      1  0.5386470000000  0.5695460000000  0.5212260000000 1.0
C      1  0.5280700000000  0.5638820000000  0.4836870000000 1.0
C      1  0.5751890000000  0.5091090000000  0.4780530000000 1.0
C      1  0.5455300000000  0.4395020000000  0.4778150000000 1.0
C      1  0.4732680000000  0.4347850000000  0.4821390000000 1.0
C      1  0.4283420000000  0.4913480000000  0.4826720000000 1.0
C      1  0.4567170000000  0.5586840000000  0.4824860000000 1.0
C      1  0.4373880000000  0.5455960000000  0.5069180000000 1.0
C      1  0.5082560000000  0.5748620000000  0.5079380000000 1.0
C      1  0.5716480000000  0.5319870000000  0.5030640000000 1.0
C      1  0.5628370000000  0.4565020000000  0.5017820000000 1.0
C      1  0.4949120000000  0.4248890000000  0.5051250000000 1.0
C      1  0.4323040000000  0.4688130000000  0.5074180000000 1.0
C      1  0.4799870000000  0.5279490000000  0.4924740000000 1.0
C      1  0.5131780000000  0.5286910000000  0.4948400000000 1.0
C      1  0.5287540000000  0.5045460000000  0.4803760000000 1.0
C      1  0.5152190000000  0.4743890000000  0.4802040000000 1.0
C      1  0.4854510000000  0.4706750000000  0.4945710000000 1.0
C      1  0.4662180000000  0.4971310000000  0.4935760000000 1.0
C      1  0.4304880000000  0.5241340000000  0.5324850000000 1.0
C      1  0.4854240000000  0.5711160000000  0.5329300000000 1.0
C      1  0.5527640000000  0.5434650000000  0.5290760000000 1.0
C      1  0.5579260000000  0.4832660000000  0.5220960000000 1.0
C      1  0.5155960000000  0.4435560000000  0.5220940000000 1.0
C      1  0.4508720000000  0.4533120000000  0.5314330000000 1.0
C      1  0.4874700000000  0.5339730000000  0.5248370000000 1.0
C      1  0.5204250000000  0.5235870000000  0.5264920000000 1.0
C      1  0.5310380000000  0.4916770000000  0.5315610000000 1.0
C      1  0.5096580000000  0.4703260000000  0.5263210000000 1.0
C      1  0.4787410000000  0.4789580000000  0.5269310000000 1.0
C      1  0.4646780000000  0.5092100000000  0.5241780000000 1.0
C      1  0.5832860000000  0.4818300000000  0.4921220000000 1.0
C      1  0.5263120000000  0.4188420000000  0.4931730000000 1.0
C      1  0.4458490000000  0.4403120000000  0.4947050000000 1.0
C      1  0.4206840000000  0.5184760000000  0.4949530000000 1.0
C      1  0.4768450000000  0.5781460000000  0.4953080000000 1.0
C      1  0.5567300000000  0.5605290000000  0.4938890000000 1.0
C      1  0.5050690000000  0.4803700000000  0.5729790000000 1.0
C      1  0.4795250000000  0.4760300000000  0.5610400000000 1.0
C      1  0.4630210000000  0.5007560000000  0.5565090000000 1.0
C      1  0.4777630000000  0.5275800000000  0.5570200000000 1.0
C      1  0.5080640000000  0.5274250000000  0.5583050000000 1.0
C      1  0.5211720000000  0.5005800000000  0.5604710000000 1.0
C      1  0.4968190000000  0.5007380000000  0.4717360000000 1.0
END
