TITL C-2782227-3064-1020 -0.0023413010459753 125000 -244.840792252225 0 0 43 (Cs) n - 1
REM
REM in /home/nfs/bkarasulu/CARBON/AIRSS/Generating-Clusters/REBO/Higher-Symm/SD-CG/HFTN-CG
REM
REM
REM
REM
REM
REM ./C.cell (12c818d87b63d06a65506943cc24bca4)
REM
REM compiler GCC version 9.2.1 20190827 (Red Hat 9.2.1-1)
REM options -cpp -mtune=generic -march=x86-64 -g -O0 -fpre-include=/usr/include/finclude/math-vector-fortran.h
REM seed -290051753 -1095344695 1629146263 2098880706 1749929858 -410147733 -1298787113 -62896580 1465916960 -181802779 -1673456913 -1397098676 -1550089275 -1872882385 587949350 -66589737 325195620 1870855008 1481386472 1342748897 1083046818 887190877 -938803349 -2019822744 856608994 1679685770 -722317241 -249088155 -1153175676 1362374362 -887550786 -1145857614 -1592629991
REM
CELL 1.54180   50.00000   50.00000   50.00000   90.00000   90.00000   90.00000
LATT -1
SFAC C  
C      1  0.4636290000000  0.5248610000000  0.5390490000000 1.0
C      1  0.5214490000000  0.4764090000000  0.5570280000000 1.0
C      1  0.4636270000000  0.4755660000000  0.5390470000000 1.0
C      1  0.5214510000000  0.5240120000000  0.5570300000000 1.0
C      1  0.5514660000000  0.5400180000000  0.4769780000000 1.0
C      1  0.4608390000000  0.4518680000000  0.4936920000000 1.0
C      1  0.5514630000000  0.4604070000000  0.4769750000000 1.0
C      1  0.4608420000000  0.5485630000000  0.4936950000000 1.0
C      1  0.5307180000000  0.5202090000000  0.5048410000000 1.0
C      1  0.4848470000000  0.4836110000000  0.4949530000000 1.0
C      1  0.5307170000000  0.4802160000000  0.5048400000000 1.0
C      1  0.4848490000000  0.5168180000000  0.4949540000000 1.0
C      1  0.4633490000000  0.5137240000000  0.4521810000000 1.0
C      1  0.5318670000000  0.4866350000000  0.4329400000000 1.0
C      1  0.4633480000000  0.4867100000000  0.4521790000000 1.0
C      1  0.5318680000000  0.5137950000000  0.4329410000000 1.0
C      1  0.4886430000000  0.5301060000000  0.5223300000000 1.0
C      1  0.5156730000000  0.4714100000000  0.5299650000000 1.0
C      1  0.4886410000000  0.4703200000000  0.5223280000000 1.0
C      1  0.5156750000000  0.5290140000000  0.5299670000000 1.0
C      1  0.5176530000000  0.5403430000000  0.4806350000000 1.0
C      1  0.4916720000000  0.4455940000000  0.4801220000000 1.0
C      1  0.5176500000000  0.4600840000000  0.4806320000000 1.0
C      1  0.4916760000000  0.5548350000000  0.4801270000000 1.0
C      1  0.5683720000000  0.4731680000000  0.4935440000000 1.0
C      1  0.4503620000000  0.5283820000000  0.5111770000000 1.0
C      1  0.5683740000000  0.5272550000000  0.4935460000000 1.0
C      1  0.4503600000000  0.4720490000000  0.5111750000000 1.0
C      1  0.5331800000000  0.4664360000000  0.4515530000000 1.0
C      1  0.4675390000000  0.5380280000000  0.4643130000000 1.0
C      1  0.5331820000000  0.5339920000000  0.4515550000000 1.0
C      1  0.4675360000000  0.4624040000000  0.4643100000000 1.0
C      1  0.5581020000000  0.5002110000000  0.5076070000000 1.0
C      1  0.4546310000000  0.5002160000000  0.4959000000000 1.0
C      1  0.4649190000000  0.5002130000000  0.5549860000000 1.0
C      1  0.5118400000000  0.5002100000000  0.5696790000000 1.0
C      1  0.4949460000000  0.5846830000000  0.4748200000000 1.0
C      1  0.4949390000000  0.4157460000000  0.4748130000000 1.0
C      1  0.4976730000000  0.3907660000000  0.4703700000000 1.0
C      1  0.4976820000000  0.6096640000000  0.4703790000000 1.0
C      1  0.4754890000000  0.5002110000000  0.6035730000000 1.0
C      1  0.4836120000000  0.5002110000000  0.5776600000000 1.0
C      1  0.5119750000000  0.5002140000000  0.4846740000000 1.0
END
