TITL C-2782233-7966-1240 0.283083613610052 125000 -768.565142738826 0 0 133 (C1) n - 1
REM
REM in /home/nfs/bkarasulu/CARBON/AIRSS/Generating-Clusters/REBO/Higher-Symm/SD-CG/HFTN-CG
REM
REM
REM
REM
REM
REM ./C.cell (12c818d87b63d06a65506943cc24bca4)
REM
REM compiler GCC version 9.2.1 20190827 (Red Hat 9.2.1-1)
REM options -cpp -mtune=generic -march=x86-64 -g -O0 -fpre-include=/usr/include/finclude/math-vector-fortran.h
REM seed -1641124661 -24131436 -996596094 -1197020403 394312877 729439552 -2140982304 1837664873 1712571489 1147897309 -258680716 -1675413476 2050550336 1525167522 -1197946711 -264027406 -548219323 133152548 -1893155428 -601741009 -1338702556 1846091052 1718144376 736097711 704973184 -927068326 188450691 808257688 -809115194 804821845 203352492 -1466380741 85689487
REM
CELL 1.54180   50.00000   50.00000   50.00000   90.00000   90.00000   90.00000
LATT -1
SFAC C  
C      1  0.5274980000000  0.5050520000000  0.4118580000000 1.0
C      1  0.5158060000000  0.4289980000000  0.5401480000000 1.0
C      1  0.5216260000000  0.5778780000000  0.5372500000000 1.0
C      1  0.4936170000000  0.4625930000000  0.4363860000000 1.0
C      1  0.4962890000000  0.4608020000000  0.5720220000000 1.0
C      1  0.4916940000000  0.5770760000000  0.4977390000000 1.0
C      1  0.5120780000000  0.4916090000000  0.4907410000000 1.0
C      1  0.5103920000000  0.4700900000000  0.5171610000000 1.0
C      1  0.5081040000000  0.5224100000000  0.5048150000000 1.0
C      1  0.5511770000000  0.5746520000000  0.4935390000000 1.0
C      1  0.5515290000000  0.4564190000000  0.4455090000000 1.0
C      1  0.5571990000000  0.4728610000000  0.5622880000000 1.0
C      1  0.5809330000000  0.4817800000000  0.5091840000000 1.0
C      1  0.5818000000000  0.5140200000000  0.5012730000000 1.0
C      1  0.5867310000000  0.4915600000000  0.4771220000000 1.0
C      1  0.5085920000000  0.4060480000000  0.4903600000000 1.0
C      1  0.4982770000000  0.5262100000000  0.5826340000000 1.0
C      1  0.5090350000000  0.5542500000000  0.4349690000000 1.0
C      1  0.4792510000000  0.5129380000000  0.5176990000000 1.0
C      1  0.4795480000000  0.5013320000000  0.4870300000000 1.0
C      1  0.4810260000000  0.4823920000000  0.5138670000000 1.0
C      1  0.4190870000000  0.4742550000000  0.4854220000000 1.0
C      1  0.4213350000000  0.4806280000000  0.5392460000000 1.0
C      1  0.4244280000000  0.5270420000000  0.4714500000000 1.0
C      1  0.4840770000000  0.5429650000000  0.5417710000000 1.0
C      1  0.4878850000000  0.5138980000000  0.4428100000000 1.0
C      1  0.4841430000000  0.4411090000000  0.5198060000000 1.0
C      1  0.4864200000000  0.5797890000000  0.4364070000000 1.0
C      1  0.4839300000000  0.4122910000000  0.4696240000000 1.0
C      1  0.4969760000000  0.5081480000000  0.6042880000000 1.0
C      1  0.5464470000000  0.5267120000000  0.4645250000000 1.0
C      1  0.5424010000000  0.4502460000000  0.4965130000000 1.0
C      1  0.5433690000000  0.5182490000000  0.5361450000000 1.0
C      1  0.4526340000000  0.4445940000000  0.4484730000000 1.0
C      1  0.4552190000000  0.4874260000000  0.5876680000000 1.0
C      1  0.4510520000000  0.5779950000000  0.4710670000000 1.0
C      1  0.5583530000000  0.5510580000000  0.4451720000000 1.0
C      1  0.5563350000000  0.4231180000000  0.4859720000000 1.0
C      1  0.5544180000000  0.5256810000000  0.5663100000000 1.0
C      1  0.4642560000000  0.4239450000000  0.5578610000000 1.0
C      1  0.4638930000000  0.5772700000000  0.5402600000000 1.0
C      1  0.4714000000000  0.4988230000000  0.4085050000000 1.0
C      1  0.5726840000000  0.5464460000000  0.5682800000000 1.0
C      1  0.5816420000000  0.5467070000000  0.4310300000000 1.0
C      1  0.5792490000000  0.4135390000000  0.4978510000000 1.0
C      1  0.5491070000000  0.5197080000000  0.5037990000000 1.0
C      1  0.5539080000000  0.4978230000000  0.4777910000000 1.0
C      1  0.5521570000000  0.4725160000000  0.5148710000000 1.0
C      1  0.5411110000000  0.3951820000000  0.5100880000000 1.0
C      1  0.5352750000000  0.5604900000000  0.5700220000000 1.0
C      1  0.5389990000000  0.5430180000000  0.4111210000000 1.0
C      1  0.4954340000000  0.4539970000000  0.4904290000000 1.0
C      1  0.4909850000000  0.5124330000000  0.5553230000000 1.0
C      1  0.4933950000000  0.5399680000000  0.4596760000000 1.0
C      1  0.5060960000000  0.5486540000000  0.4879250000000 1.0
C      1  0.5081860000000  0.4706950000000  0.4641660000000 1.0
C      1  0.5070790000000  0.4831270000000  0.5485210000000 1.0
C      1  0.5235120000000  0.3795720000000  0.4910540000000 1.0
C      1  0.5147530000000  0.5485890000000  0.5829200000000 1.0
C      1  0.5250400000000  0.5663770000000  0.4073770000000 1.0
C      1  0.5253490000000  0.4409350000000  0.6077800000000 1.0
C      1  0.5066780000000  0.6242370000000  0.4898160000000 1.0
C      1  0.5032470000000  0.4270290000000  0.4025760000000 1.0
C      1  0.5026250000000  0.4353390000000  0.4275760000000 1.0
C      1  0.5152820000000  0.4619290000000  0.5954630000000 1.0
C      1  0.5039050000000  0.5993720000000  0.4815490000000 1.0
C      1  0.4748130000000  0.4877840000000  0.4504910000000 1.0
C      1  0.4743610000000  0.4607280000000  0.5458920000000 1.0
C      1  0.4733050000000  0.5510110000000  0.5104080000000 1.0
C      1  0.4377770000000  0.5031500000000  0.5474440000000 1.0
C      1  0.4443670000000  0.5411080000000  0.4575100000000 1.0
C      1  0.4409200000000  0.4559500000000  0.4842490000000 1.0
C      1  0.5953860000000  0.4789460000000  0.4514370000000 1.0
C      1  0.5974460000000  0.4709260000000  0.5324100000000 1.0
C      1  0.5840440000000  0.5431760000000  0.5122880000000 1.0
C      1  0.4204510000000  0.4966860000000  0.4615610000000 1.0
C      1  0.4098130000000  0.4787140000000  0.5125470000000 1.0
C      1  0.4228160000000  0.5351730000000  0.4983250000000 1.0
C      1  0.5427700000000  0.5522860000000  0.5388440000000 1.0
C      1  0.5282290000000  0.5260900000000  0.4379090000000 1.0
C      1  0.5261780000000  0.4257430000000  0.5118260000000 1.0
C      1  0.4319090000000  0.4901730000000  0.4327780000000 1.0
C      1  0.4302930000000  0.4568630000000  0.5544490000000 1.0
C      1  0.4280160000000  0.5614220000000  0.5126360000000 1.0
C      1  0.5496470000000  0.4806370000000  0.5875640000000 1.0
C      1  0.5411690000000  0.5893460000000  0.4722080000000 1.0
C      1  0.5396140000000  0.4316730000000  0.4409550000000 1.0
C      1  0.5628710000000  0.5597900000000  0.5166860000000 1.0
C      1  0.5769340000000  0.4648880000000  0.4370340000000 1.0
C      1  0.5832700000000  0.4648530000000  0.5550600000000 1.0
C      1  0.4725680000000  0.5557210000000  0.4188560000000 1.0
C      1  0.4712560000000  0.4174440000000  0.4985180000000 1.0
C      1  0.4616720000000  0.5399260000000  0.5673190000000 1.0
C      1  0.5432280000000  0.4891630000000  0.3989630000000 1.0
C      1  0.5289220000000  0.4415810000000  0.5592130000000 1.0
C      1  0.5282390000000  0.6001130000000  0.5247030000000 1.0
C      1  0.5397350000000  0.4705990000000  0.4707940000000 1.0
C      1  0.5391340000000  0.4860700000000  0.5398410000000 1.0
C      1  0.5370430000000  0.5455490000000  0.4897550000000 1.0
C      1  0.4418440000000  0.5834600000000  0.4980840000000 1.0
C      1  0.4456520000000  0.4640510000000  0.4279100000000 1.0
C      1  0.4456010000000  0.4604900000000  0.5804600000000 1.0
C      1  0.4506940000000  0.4956060000000  0.4733790000000 1.0
C      1  0.4537280000000  0.4668920000000  0.5203270000000 1.0
C      1  0.4493720000000  0.5275080000000  0.5160560000000 1.0
C      1  0.5220550000000  0.4918180000000  0.6040220000000 1.0
C      1  0.5129750000000  0.5897130000000  0.4525490000000 1.0
C      1  0.5103910000000  0.4170940000000  0.4521070000000 1.0
C      1  0.4479510000000  0.5115040000000  0.4198790000000 1.0
C      1  0.4428440000000  0.4343690000000  0.5408680000000 1.0
C      1  0.4402940000000  0.5587560000000  0.5393460000000 1.0
C      1  0.4366630000000  0.5311090000000  0.5537000000000 1.0
C      1  0.4519230000000  0.5384640000000  0.4302880000000 1.0
C      1  0.4463790000000  0.4362310000000  0.5085260000000 1.0
C      1  0.4699630000000  0.4608980000000  0.4705100000000 1.0
C      1  0.4660340000000  0.4916970000000  0.5572980000000 1.0
C      1  0.4679100000000  0.5512500000000  0.4767640000000 1.0
C      1  0.4656410000000  0.5898240000000  0.5141690000000 1.0
C      1  0.4711450000000  0.4713030000000  0.4144700000000 1.0
C      1  0.4689470000000  0.4419600000000  0.5801980000000 1.0
C      1  0.4611100000000  0.5918480000000  0.4499670000000 1.0
C      1  0.4599700000000  0.4181300000000  0.4501490000000 1.0
C      1  0.4714810000000  0.4968700000000  0.6084960000000 1.0
C      1  0.4890480000000  0.4140870000000  0.5437770000000 1.0
C      1  0.4959960000000  0.5727300000000  0.5507080000000 1.0
C      1  0.4979100000000  0.5150000000000  0.4122940000000 1.0
C      1  0.4809060000000  0.3978970000000  0.5189210000000 1.0
C      1  0.4778640000000  0.5624380000000  0.5760390000000 1.0
C      1  0.4900910000000  0.5429670000000  0.4016660000000 1.0
C      1  0.5413930000000  0.4121140000000  0.4651550000000 1.0
C      1  0.5452730000000  0.5114140000000  0.5884980000000 1.0
C      1  0.5423010000000  0.5739950000000  0.4449980000000 1.0
C      1  0.4449000000000  0.4964680000000  0.5060270000000 1.0
END
