TITL C-2782235-7892-324 0.00028895990606706 125000 -870.220441524086 0 0 153 (C1) n - 1
REM
REM in /home/nfs/bkarasulu/CARBON/AIRSS/Generating-Clusters/REBO/Higher-Symm/SD-CG/HFTN-CG
REM
REM
REM
REM
REM
REM ./C.cell (12c818d87b63d06a65506943cc24bca4)
REM
REM compiler GCC version 9.2.1 20190827 (Red Hat 9.2.1-1)
REM options -cpp -mtune=generic -march=x86-64 -g -O0 -fpre-include=/usr/include/finclude/math-vector-fortran.h
REM seed -1625349054 -433013969 -72248216 1218059968 -720204328 1112785852 -1407179273 1100906652 300476328 -1037894262 1090695229 1058186279 777792221 -1956527910 581446655 362246462 1479649108 -1781775129 1673508286 -727314549 1054396029 -1271552632 1363007054 -164277064 -153687967 1716753049 1489942457 1525663067 -703711944 -163821123 -1845483027 1428819416 905759708
REM
CELL 1.54180   50.00000   50.00000   50.00000   90.00000   90.00000   90.00000
LATT -1
SFAC C  
C      1  0.5078800000000  0.4926730000000  0.6025620000000 1.0
C      1  0.5983360000000  0.5075750000000  0.4951520000000 1.0
C      1  0.4838460000000  0.4911460000000  0.4049900000000 1.0
C      1  0.3920260000000  0.5159220000000  0.5160680000000 1.0
C      1  0.4733470000000  0.4017550000000  0.4914400000000 1.0
C      1  0.4948400000000  0.5895420000000  0.5187950000000 1.0
C      1  0.5070020000000  0.3824700000000  0.4816780000000 1.0
C      1  0.5040540000000  0.5972150000000  0.4625510000000 1.0
C      1  0.5471580000000  0.5478980000000  0.5121130000000 1.0
C      1  0.5131360000000  0.4562100000000  0.4556130000000 1.0
C      1  0.4532990000000  0.5537870000000  0.4913670000000 1.0
C      1  0.4954680000000  0.4486710000000  0.5534850000000 1.0
C      1  0.4711540000000  0.5138340000000  0.4229620000000 1.0
C      1  0.4132170000000  0.4917130000000  0.5122600000000 1.0
C      1  0.5084990000000  0.5177730000000  0.5855160000000 1.0
C      1  0.5787160000000  0.4827440000000  0.4908920000000 1.0
C      1  0.4481380000000  0.5068860000000  0.5497900000000 1.0
C      1  0.5481510000000  0.5002410000000  0.5524360000000 1.0
C      1  0.5458400000000  0.5139370000000  0.4405430000000 1.0
C      1  0.4595130000000  0.5020580000000  0.4479680000000 1.0
C      1  0.5285550000000  0.4350530000000  0.6004150000000 1.0
C      1  0.5917120000000  0.5621210000000  0.4808940000000 1.0
C      1  0.4791020000000  0.4410260000000  0.4031070000000 1.0
C      1  0.4041280000000  0.5609820000000  0.5126290000000 1.0
C      1  0.4550690000000  0.5826340000000  0.4686460000000 1.0
C      1  0.4636010000000  0.4038460000000  0.5408310000000 1.0
C      1  0.5425610000000  0.5945570000000  0.5332840000000 1.0
C      1  0.5359790000000  0.4153090000000  0.4612930000000 1.0
C      1  0.4651550000000  0.4111770000000  0.4705090000000 1.0
C      1  0.4737170000000  0.5811190000000  0.5283590000000 1.0
C      1  0.4993100000000  0.3760210000000  0.5072680000000 1.0
C      1  0.5285060000000  0.5898650000000  0.4731240000000 1.0
C      1  0.5245040000000  0.5316620000000  0.4937370000000 1.0
C      1  0.4932950000000  0.4594530000000  0.4794020000000 1.0
C      1  0.4793530000000  0.5359790000000  0.5023880000000 1.0
C      1  0.5102700000000  0.4594510000000  0.5259320000000 1.0
C      1  0.4685240000000  0.4443220000000  0.5061890000000 1.0
C      1  0.5095610000000  0.5547440000000  0.5423540000000 1.0
C      1  0.5486950000000  0.4475330000000  0.4947790000000 1.0
C      1  0.4922600000000  0.5562380000000  0.4456690000000 1.0
C      1  0.4921970000000  0.5619940000000  0.4899790000000 1.0
C      1  0.5120570000000  0.4253220000000  0.5261430000000 1.0
C      1  0.5198580000000  0.5634810000000  0.5017080000000 1.0
C      1  0.4987390000000  0.4321660000000  0.4959220000000 1.0
C      1  0.4132820000000  0.4648060000000  0.5247960000000 1.0
C      1  0.5282880000000  0.5403810000000  0.5955040000000 1.0
C      1  0.5900490000000  0.4605910000000  0.4717180000000 1.0
C      1  0.4652680000000  0.5422180000000  0.4090960000000 1.0
C      1  0.4639630000000  0.4678150000000  0.5945310000000 1.0
C      1  0.5923930000000  0.5289130000000  0.5409990000000 1.0
C      1  0.5364190000000  0.4796070000000  0.4100230000000 1.0
C      1  0.4078200000000  0.5189860000000  0.4626970000000 1.0
C      1  0.5048540000000  0.4279820000000  0.4404900000000 1.0
C      1  0.4347850000000  0.5821960000000  0.4948310000000 1.0
C      1  0.4994280000000  0.4208520000000  0.5646610000000 1.0
C      1  0.5622680000000  0.5763980000000  0.5038960000000 1.0
C      1  0.4541560000000  0.4324760000000  0.4476890000000 1.0
C      1  0.4440460000000  0.5705730000000  0.5416480000000 1.0
C      1  0.5356210000000  0.4321580000000  0.5497730000000 1.0
C      1  0.5427500000000  0.5629390000000  0.4572090000000 1.0
C      1  0.4936970000000  0.5538860000000  0.3987360000000 1.0
C      1  0.4165310000000  0.4456120000000  0.4988660000000 1.0
C      1  0.4998920000000  0.5557290000000  0.5947330000000 1.0
C      1  0.5941430000000  0.4479230000000  0.5030050000000 1.0
C      1  0.4663390000000  0.4680890000000  0.4085180000000 1.0
C      1  0.3992290000000  0.5390380000000  0.5312840000000 1.0
C      1  0.5315590000000  0.4690700000000  0.5956810000000 1.0
C      1  0.5958720000000  0.5295600000000  0.4730080000000 1.0
C      1  0.4951440000000  0.5722680000000  0.5672250000000 1.0
C      1  0.5698890000000  0.4258110000000  0.5090540000000 1.0
C      1  0.5056110000000  0.5761380000000  0.4210510000000 1.0
C      1  0.4434310000000  0.4267880000000  0.5002020000000 1.0
C      1  0.5563520000000  0.4951510000000  0.5216170000000 1.0
C      1  0.5157150000000  0.5085880000000  0.4384050000000 1.0
C      1  0.4534370000000  0.4983180000000  0.4812170000000 1.0
C      1  0.4778910000000  0.5014150000000  0.5428120000000 1.0
C      1  0.5347690000000  0.4705880000000  0.5132060000000 1.0
C      1  0.5182430000000  0.5389910000000  0.4549960000000 1.0
C      1  0.4709070000000  0.4771880000000  0.4958010000000 1.0
C      1  0.4913730000000  0.5291080000000  0.5292350000000 1.0
C      1  0.4788770000000  0.5204100000000  0.5712190000000 1.0
C      1  0.5846840000000  0.4792340000000  0.5227750000000 1.0
C      1  0.5011050000000  0.5265390000000  0.4171780000000 1.0
C      1  0.4223560000000  0.4885560000000  0.4840560000000 1.0
C      1  0.5844380000000  0.5436190000000  0.5049190000000 1.0
C      1  0.5042340000000  0.4565770000000  0.4128770000000 1.0
C      1  0.4142390000000  0.5485890000000  0.4885590000000 1.0
C      1  0.5025540000000  0.4528650000000  0.6014310000000 1.0
C      1  0.4290310000000  0.5416430000000  0.5474830000000 1.0
C      1  0.5418760000000  0.4625270000000  0.5637850000000 1.0
C      1  0.5699510000000  0.5415360000000  0.4545740000000 1.0
C      1  0.4552650000000  0.4636050000000  0.4382230000000 1.0
C      1  0.5674560000000  0.5760210000000  0.5348690000000 1.0
C      1  0.5373350000000  0.4325980000000  0.4346890000000 1.0
C      1  0.4262470000000  0.5668720000000  0.4650120000000 1.0
C      1  0.4691300000000  0.4203860000000  0.5633150000000 1.0
C      1  0.4308700000000  0.5155570000000  0.5253860000000 1.0
C      1  0.5188130000000  0.4869190000000  0.5625340000000 1.0
C      1  0.5592360000000  0.5138420000000  0.4703970000000 1.0
C      1  0.4793610000000  0.4772100000000  0.4554900000000 1.0
C      1  0.4305110000000  0.5379350000000  0.4514180000000 1.0
C      1  0.4541570000000  0.4500590000000  0.5707150000000 1.0
C      1  0.5694870000000  0.5485490000000  0.5503890000000 1.0
C      1  0.5501780000000  0.4585020000000  0.4257090000000 1.0
C      1  0.5450970000000  0.4859670000000  0.4844140000000 1.0
C      1  0.4914320000000  0.5262680000000  0.4720970000000 1.0
C      1  0.4810460000000  0.4755190000000  0.5276130000000 1.0
C      1  0.5134810000000  0.5165540000000  0.5518820000000 1.0
C      1  0.5671230000000  0.4402500000000  0.4601730000000 1.0
C      1  0.4551930000000  0.5634150000000  0.4332780000000 1.0
C      1  0.4289260000000  0.4369080000000  0.5358700000000 1.0
C      1  0.5348700000000  0.5636660000000  0.5718290000000 1.0
C      1  0.3926270000000  0.5152070000000  0.4853500000000 1.0
C      1  0.4808140000000  0.4855740000000  0.6068930000000 1.0
C      1  0.6046160000000  0.5137780000000  0.5216420000000 1.0
C      1  0.5132390000000  0.4927690000000  0.3996510000000 1.0
C      1  0.4371860000000  0.5244260000000  0.4955480000000 1.0
C      1  0.4981330000000  0.4670740000000  0.5738760000000 1.0
C      1  0.5609690000000  0.5190040000000  0.5032780000000 1.0
C      1  0.5055310000000  0.4806830000000  0.4368980000000 1.0
C      1  0.4134890000000  0.4605190000000  0.4687340000000 1.0
C      1  0.4679840000000  0.5494760000000  0.5852700000000 1.0
C      1  0.5865960000000  0.4491440000000  0.5364510000000 1.0
C      1  0.5262100000000  0.5459490000000  0.4053840000000 1.0
C      1  0.5264740000000  0.5939330000000  0.5068010000000 1.0
C      1  0.5116070000000  0.4099810000000  0.4754900000000 1.0
C      1  0.4832170000000  0.5826650000000  0.4741970000000 1.0
C      1  0.4877300000000  0.4018600000000  0.5222480000000 1.0
C      1  0.4394270000000  0.4090950000000  0.5266850000000 1.0
C      1  0.5222480000000  0.5852290000000  0.5531900000000 1.0
C      1  0.5603160000000  0.4171340000000  0.4802030000000 1.0
C      1  0.4775850000000  0.5857770000000  0.4348620000000 1.0
C      1  0.4315780000000  0.4327840000000  0.4702000000000 1.0
C      1  0.4636040000000  0.5756120000000  0.5657830000000 1.0
C      1  0.5641060000000  0.4246020000000  0.5398780000000 1.0
C      1  0.5372800000000  0.5718120000000  0.4247940000000 1.0
C      1  0.4226350000000  0.5821310000000  0.5225180000000 1.0
C      1  0.5263730000000  0.4182410000000  0.5776530000000 1.0
C      1  0.5678150000000  0.5784200000000  0.4750480000000 1.0
C      1  0.4795320000000  0.4256870000000  0.4287660000000 1.0
C      1  0.4325740000000  0.5425840000000  0.4186060000000 1.0
C      1  0.4258680000000  0.4626540000000  0.5565120000000 1.0
C      1  0.5597730000000  0.5437010000000  0.5827180000000 1.0
C      1  0.5770810000000  0.4646180000000  0.4401930000000 1.0
C      1  0.4593120000000  0.4527380000000  0.5373700000000 1.0
C      1  0.5382890000000  0.5368000000000  0.5498890000000 1.0
C      1  0.5407170000000  0.4593070000000  0.4645600000000 1.0
C      1  0.4642300000000  0.5405190000000  0.4571850000000 1.0
C      1  0.5534050000000  0.5417480000000  0.4250450000000 1.0
C      1  0.4318740000000  0.4824070000000  0.4516980000000 1.0
C      1  0.4455040000000  0.5287410000000  0.5735860000000 1.0
C      1  0.5697070000000  0.4738770000000  0.5526660000000 1.0
C      1  0.5185660000000  0.5073800000000  0.4814080000000 1.0
END
