TITL C-2782225-7408-917 -0.00341676844401243 125000 -377.382264440005 0 0 65 (C1) n - 1
REM
REM in /home/nfs/bkarasulu/CARBON/AIRSS/Generating-Clusters/REBO/Higher-Symm/SD-CG/HFTN-CG
REM
REM
REM
REM
REM
REM ./C.cell (12c818d87b63d06a65506943cc24bca4)
REM
REM compiler GCC version 9.2.1 20190827 (Red Hat 9.2.1-1)
REM options -cpp -mtune=generic -march=x86-64 -g -O0 -fpre-include=/usr/include/finclude/math-vector-fortran.h
REM seed -564053475 941391626 -1651689952 1745464590 1183775658 482061058 -1990173344 995585191 -1728864730 1720111674 1108011801 -971619133 1711057264 86342280 -1081286551 -315446997 -1547503797 1479796645 -1923515133 -274027438 334246138 1118037811 -1135203854 -420478926 -202377556 1308451951 550217659 -2062326116 -512482454 698890431 -811395696 1089945335 661742771
REM
CELL 1.54180   50.00000   50.00000   50.00000   90.00000   90.00000   90.00000
LATT -1
SFAC C  
C      1  0.4530540000000  0.4453820000000  0.4790980000000 1.0
C      1  0.4922690000000  0.5806060000000  0.4686060000000 1.0
C      1  0.5317370000000  0.5580110000000  0.4547960000000 1.0
C      1  0.5074050000000  0.4916470000000  0.4693490000000 1.0
C      1  0.4805580000000  0.4357370000000  0.5195200000000 1.0
C      1  0.5475120000000  0.4571090000000  0.5101250000000 1.0
C      1  0.4737450000000  0.5591700000000  0.4684040000000 1.0
C      1  0.4628760000000  0.5177440000000  0.5308810000000 1.0
C      1  0.4605430000000  0.4572560000000  0.4481390000000 1.0
C      1  0.4637170000000  0.5749850000000  0.5141310000000 1.0
C      1  0.5353410000000  0.5075440000000  0.4441490000000 1.0
C      1  0.4723770000000  0.4290050000000  0.4922880000000 1.0
C      1  0.4517750000000  0.5334520000000  0.5793630000000 1.0
C      1  0.4885370000000  0.4612690000000  0.4339040000000 1.0
C      1  0.4875940000000  0.4965920000000  0.5803890000000 1.0
C      1  0.4363650000000  0.4711620000000  0.4766300000000 1.0
C      1  0.5074650000000  0.5510790000000  0.5199870000000 1.0
C      1  0.4356680000000  0.4733480000000  0.5387660000000 1.0
C      1  0.5668840000000  0.5047910000000  0.4811090000000 1.0
C      1  0.5767530000000  0.4794470000000  0.4739580000000 1.0
C      1  0.4716230000000  0.5080870000000  0.4646220000000 1.0
C      1  0.5249910000000  0.4601890000000  0.5280040000000 1.0
C      1  0.4380280000000  0.5064260000000  0.5164040000000 1.0
C      1  0.4955310000000  0.4224010000000  0.4766060000000 1.0
C      1  0.5287020000000  0.5614640000000  0.5008740000000 1.0
C      1  0.4849410000000  0.5735860000000  0.5317450000000 1.0
C      1  0.5249380000000  0.5054330000000  0.5484790000000 1.0
C      1  0.5423600000000  0.4468160000000  0.4829640000000 1.0
C      1  0.4938530000000  0.5148580000000  0.4282450000000 1.0
C      1  0.4981490000000  0.4589200000000  0.5176490000000 1.0
C      1  0.5445280000000  0.5461400000000  0.5341490000000 1.0
C      1  0.4755590000000  0.4768600000000  0.5659400000000 1.0
C      1  0.5185920000000  0.5729780000000  0.4755130000000 1.0
C      1  0.4749270000000  0.4485130000000  0.5674880000000 1.0
C      1  0.4982210000000  0.4894930000000  0.4387770000000 1.0
C      1  0.5313960000000  0.4658810000000  0.5762180000000 1.0
C      1  0.5184490000000  0.4370220000000  0.4686420000000 1.0
C      1  0.4474850000000  0.4885190000000  0.4534530000000 1.0
C      1  0.5564580000000  0.5500520000000  0.4961880000000 1.0
C      1  0.4648560000000  0.5534840000000  0.4945500000000 1.0
C      1  0.5762390000000  0.5333360000000  0.5098960000000 1.0
C      1  0.5373530000000  0.5205200000000  0.5281450000000 1.0
C      1  0.5283100000000  0.4772000000000  0.5516180000000 1.0
C      1  0.4721770000000  0.5292970000000  0.5577690000000 1.0
C      1  0.5563320000000  0.4633780000000  0.4631110000000 1.0
C      1  0.4881240000000  0.5049050000000  0.4942690000000 1.0
C      1  0.5039650000000  0.5194220000000  0.5649760000000 1.0
C      1  0.4823810000000  0.5355510000000  0.4518220000000 1.0
C      1  0.5582940000000  0.5199000000000  0.4587200000000 1.0
C      1  0.5358310000000  0.4774960000000  0.4450540000000 1.0
C      1  0.5657110000000  0.4803980000000  0.5126620000000 1.0
C      1  0.5471930000000  0.5063020000000  0.5056260000000 1.0
C      1  0.5556740000000  0.5471650000000  0.4659940000000 1.0
C      1  0.4819210000000  0.5312640000000  0.5090960000000 1.0
C      1  0.4192730000000  0.4875940000000  0.4954660000000 1.0
C      1  0.4730820000000  0.4305050000000  0.5464720000000 1.0
C      1  0.4791850000000  0.4745790000000  0.4704050000000 1.0
C      1  0.4833780000000  0.4831270000000  0.5154870000000 1.0
C      1  0.4971820000000  0.5496970000000  0.5521630000000 1.0
C      1  0.4162450000000  0.4736560000000  0.5234740000000 1.0
C      1  0.3967270000000  0.4995820000000  0.4842320000000 1.0
C      1  0.5854030000000  0.5069990000000  0.5164600000000 1.0
C      1  0.5153890000000  0.5353420000000  0.4421850000000 1.0
C      1  0.5155870000000  0.4541780000000  0.4449750000000 1.0
C      1  0.4632810000000  0.4861520000000  0.5398230000000 1.0
END
