TITL C-2782235-7892-1432 -0.00189277825487281 125000 -798.149614175032 0 0 136 (C1) n - 1
REM
REM in /home/nfs/bkarasulu/CARBON/AIRSS/Generating-Clusters/REBO/Higher-Symm/SD-CG/HFTN-CG
REM
REM
REM
REM
REM
REM ./C.cell (12c818d87b63d06a65506943cc24bca4)
REM
REM compiler GCC version 9.2.1 20190827 (Red Hat 9.2.1-1)
REM options -cpp -mtune=generic -march=x86-64 -g -O0 -fpre-include=/usr/include/finclude/math-vector-fortran.h
REM seed 2023917493 -2086634872 -597849167 -1953005128 -1639891073 1769682835 1330199447 1248475429 -1967398838 1801139825 1998550037 444228012 -1501438170 1800175499 1717281799 749576575 880114812 -348229369 -1694416777 -1338962576 1813658224 -789842700 -2040987325 1935838112 685956362 75086570 1948896859 814301693 -1434805226 1755796238 1425849738 396136298 1337240990
REM
CELL 1.54180   50.00000   50.00000   50.00000   90.00000   90.00000   90.00000
LATT -1
SFAC C  
C      1  0.5136960000000  0.4846320000000  0.4675250000000 1.0
C      1  0.4828120000000  0.4860040000000  0.4669320000000 1.0
C      1  0.5415470000000  0.4132030000000  0.5032550000000 1.0
C      1  0.4570730000000  0.4132890000000  0.5019620000000 1.0
C      1  0.4547920000000  0.5720140000000  0.5462870000000 1.0
C      1  0.5433980000000  0.5721880000000  0.5458440000000 1.0
C      1  0.4601450000000  0.5004830000000  0.5366470000000 1.0
C      1  0.5483060000000  0.4961220000000  0.5439350000000 1.0
C      1  0.4493080000000  0.5374140000000  0.5067240000000 1.0
C      1  0.5492730000000  0.5346420000000  0.5074420000000 1.0
C      1  0.4745030000000  0.5207310000000  0.4282330000000 1.0
C      1  0.5250010000000  0.5172650000000  0.4315080000000 1.0
C      1  0.4574750000000  0.5309700000000  0.5357050000000 1.0
C      1  0.5435030000000  0.5291710000000  0.5374770000000 1.0
C      1  0.4401080000000  0.5073530000000  0.5703850000000 1.0
C      1  0.5584930000000  0.5086210000000  0.5798750000000 1.0
C      1  0.5168770000000  0.4678770000000  0.4314790000000 1.0
C      1  0.4849750000000  0.4711340000000  0.4260040000000 1.0
C      1  0.4471560000000  0.4512580000000  0.5661690000000 1.0
C      1  0.5529110000000  0.4515390000000  0.5687140000000 1.0
C      1  0.5730360000000  0.5200330000000  0.4951840000000 1.0
C      1  0.4311000000000  0.5177310000000  0.4920380000000 1.0
C      1  0.4381670000000  0.4341530000000  0.4926350000000 1.0
C      1  0.5599240000000  0.4342450000000  0.4934970000000 1.0
C      1  0.5480510000000  0.4736780000000  0.4238850000000 1.0
C      1  0.4528020000000  0.4778520000000  0.4218160000000 1.0
C      1  0.5867180000000  0.5407160000000  0.5339930000000 1.0
C      1  0.4104850000000  0.5410420000000  0.5355060000000 1.0
C      1  0.3991240000000  0.5235790000000  0.4936830000000 1.0
C      1  0.6042520000000  0.5321770000000  0.4884000000000 1.0
C      1  0.4153200000000  0.5577710000000  0.5062090000000 1.0
C      1  0.5810900000000  0.5582530000000  0.5051900000000 1.0
C      1  0.5564540000000  0.4340780000000  0.5480840000000 1.0
C      1  0.4423940000000  0.4338110000000  0.5458320000000 1.0
C      1  0.4369900000000  0.5007250000000  0.4269950000000 1.0
C      1  0.5601340000000  0.4982650000000  0.4301080000000 1.0
C      1  0.5734900000000  0.4879280000000  0.5017420000000 1.0
C      1  0.4272720000000  0.4898030000000  0.5043690000000 1.0
C      1  0.5669590000000  0.5341630000000  0.5609910000000 1.0
C      1  0.4355970000000  0.5388790000000  0.5583650000000 1.0
C      1  0.4753510000000  0.5986970000000  0.5118320000000 1.0
C      1  0.5286300000000  0.5943260000000  0.5163620000000 1.0
C      1  0.3957440000000  0.5189860000000  0.5224660000000 1.0
C      1  0.6057590000000  0.5244580000000  0.5177070000000 1.0
C      1  0.4824710000000  0.4110710000000  0.4821660000000 1.0
C      1  0.5132040000000  0.4074640000000  0.4853560000000 1.0
C      1  0.5638890000000  0.4481880000000  0.4625400000000 1.0
C      1  0.4367200000000  0.4492260000000  0.4619020000000 1.0
C      1  0.4305660000000  0.5319230000000  0.4398830000000 1.0
C      1  0.5607590000000  0.5297900000000  0.4434010000000 1.0
C      1  0.5291990000000  0.5097360000000  0.4603890000000 1.0
C      1  0.4693780000000  0.5107010000000  0.4564240000000 1.0
C      1  0.5273950000000  0.4738740000000  0.4938610000000 1.0
C      1  0.4704280000000  0.4747350000000  0.4936300000000 1.0
C      1  0.5132720000000  0.5713450000000  0.4407470000000 1.0
C      1  0.4783500000000  0.5715190000000  0.4390860000000 1.0
C      1  0.4562740000000  0.5612390000000  0.5740090000000 1.0
C      1  0.5475480000000  0.5601170000000  0.5715760000000 1.0
C      1  0.5213330000000  0.5650480000000  0.5910460000000 1.0
C      1  0.4876020000000  0.5627410000000  0.5872040000000 1.0
C      1  0.4550820000000  0.4763280000000  0.5757690000000 1.0
C      1  0.5459500000000  0.4769210000000  0.5789370000000 1.0
C      1  0.4859390000000  0.4847690000000  0.5817900000000 1.0
C      1  0.5141170000000  0.4854310000000  0.5840770000000 1.0
C      1  0.3955850000000  0.4647140000000  0.4866430000000 1.0
C      1  0.6042130000000  0.4660060000000  0.4885440000000 1.0
C      1  0.4741910000000  0.4250770000000  0.4582980000000 1.0
C      1  0.5280320000000  0.4211590000000  0.4613260000000 1.0
C      1  0.5411330000000  0.5552810000000  0.4544860000000 1.0
C      1  0.4522890000000  0.5544220000000  0.4536290000000 1.0
C      1  0.4824020000000  0.5021460000000  0.5034750000000 1.0
C      1  0.5144750000000  0.5018110000000  0.5036160000000 1.0
C      1  0.4272800000000  0.4470010000000  0.5203690000000 1.0
C      1  0.5681090000000  0.4479860000000  0.5217280000000 1.0
C      1  0.4703030000000  0.5247190000000  0.4883600000000 1.0
C      1  0.5264380000000  0.5263810000000  0.4899630000000 1.0
C      1  0.4620510000000  0.4130520000000  0.5352090000000 1.0
C      1  0.5384030000000  0.4121510000000  0.5372560000000 1.0
C      1  0.5565980000000  0.5641260000000  0.5231030000000 1.0
C      1  0.4397850000000  0.5650060000000  0.5241790000000 1.0
C      1  0.5290670000000  0.5118590000000  0.5868880000000 1.0
C      1  0.4713260000000  0.5114330000000  0.5775250000000 1.0
C      1  0.5473140000000  0.4429040000000  0.4340400000000 1.0
C      1  0.4539040000000  0.4482800000000  0.4334760000000 1.0
C      1  0.4140970000000  0.4973100000000  0.4510410000000 1.0
C      1  0.5849590000000  0.4979450000000  0.4518270000000 1.0
C      1  0.5892880000000  0.4695500000000  0.4650550000000 1.0
C      1  0.4106980000000  0.4694770000000  0.4640540000000 1.0
C      1  0.5381410000000  0.5924970000000  0.4910840000000 1.0
C      1  0.4661320000000  0.5905050000000  0.4876300000000 1.0
C      1  0.6026110000000  0.4952410000000  0.5195000000000 1.0
C      1  0.4046000000000  0.4897620000000  0.5295390000000 1.0
C      1  0.4825250000000  0.5804830000000  0.5356230000000 1.0
C      1  0.5124940000000  0.5751300000000  0.5384130000000 1.0
C      1  0.5124080000000  0.4610120000000  0.5199470000000 1.0
C      1  0.4845050000000  0.4612510000000  0.5194190000000 1.0
C      1  0.5561810000000  0.4092730000000  0.4588720000000 1.0
C      1  0.4464720000000  0.4127170000000  0.4491680000000 1.0
C      1  0.4845300000000  0.5003590000000  0.4116570000000 1.0
C      1  0.5140920000000  0.4964340000000  0.4165440000000 1.0
C      1  0.4863720000000  0.4009260000000  0.5142510000000 1.0
C      1  0.5165830000000  0.3952820000000  0.5171720000000 1.0
C      1  0.4874690000000  0.4074710000000  0.5536580000000 1.0
C      1  0.5119450000000  0.4074800000000  0.5549010000000 1.0
C      1  0.5166610000000  0.4283550000000  0.4297960000000 1.0
C      1  0.4829460000000  0.4314260000000  0.4263170000000 1.0
C      1  0.4007260000000  0.4618810000000  0.5137180000000 1.0
C      1  0.5965810000000  0.4614340000000  0.5202860000000 1.0
C      1  0.4846460000000  0.5465550000000  0.5392370000000 1.0
C      1  0.5173730000000  0.5420000000000  0.5461380000000 1.0
C      1  0.4243720000000  0.5526260000000  0.4737000000000 1.0
C      1  0.5705590000000  0.5551010000000  0.4725860000000 1.0
C      1  0.5160660000000  0.5363730000000  0.5778270000000 1.0
C      1  0.4856800000000  0.5348980000000  0.5692560000000 1.0
C      1  0.5558840000000  0.4678090000000  0.4893220000000 1.0
C      1  0.4423240000000  0.4679220000000  0.4900160000000 1.0
C      1  0.5907800000000  0.5308950000000  0.4593660000000 1.0
C      1  0.4039450000000  0.5283840000000  0.4612380000000 1.0
C      1  0.5409390000000  0.4660700000000  0.5305720000000 1.0
C      1  0.4525950000000  0.4682880000000  0.5288320000000 1.0
C      1  0.5168140000000  0.5427620000000  0.4253450000000 1.0
C      1  0.4874530000000  0.5453650000000  0.4248150000000 1.0
C      1  0.4403380000000  0.5127550000000  0.4647840000000 1.0
C      1  0.5596620000000  0.5083580000000  0.4696890000000 1.0
C      1  0.5756380000000  0.4845990000000  0.5356540000000 1.0
C      1  0.4307520000000  0.4872380000000  0.5460270000000 1.0
C      1  0.5186130000000  0.5829950000000  0.4722500000000 1.0
C      1  0.4869840000000  0.5790370000000  0.4698480000000 1.0
C      1  0.5133520000000  0.5492420000000  0.4736000000000 1.0
C      1  0.4814770000000  0.5462690000000  0.4695900000000 1.0
C      1  0.5182360000000  0.4983310000000  0.5363280000000 1.0
C      1  0.4909390000000  0.4994620000000  0.5355720000000 1.0
C      1  0.4880210000000  0.4560860000000  0.4563750000000 1.0
C      1  0.5200270000000  0.4519510000000  0.4613980000000 1.0
C      1  0.4413190000000  0.5801820000000  0.4829680000000 1.0
C      1  0.5636300000000  0.5863000000000  0.4832860000000 1.0
END
