TITL C-2782237-5345-800 -0.00169733879326697 125000 -1061.73290450195 0 0 180 (C1) n - 1
REM
REM in /home/nfs/bkarasulu/CARBON/AIRSS/Generating-Clusters/REBO/Higher-Symm/SD-CG/HFTN-CG
REM
REM
REM
REM
REM
REM ./C.cell (12c818d87b63d06a65506943cc24bca4)
REM
REM compiler GCC version 9.2.1 20190827 (Red Hat 9.2.1-1)
REM options -cpp -mtune=generic -march=x86-64 -g -O0 -fpre-include=/usr/include/finclude/math-vector-fortran.h
REM seed 1242238186 202620425 591790102 502295584 1204578458 1541511321 1497848263 -1952476650 1265450549 379506525 -1695639836 -2041045612 564977431 -54741454 -1700414710 -108591280 -1757353958 939675499 -387361483 2014037689 39534157 -1610187308 -63215954 -21023892 -332207181 -521814407 1496328789 -1294264495 2132466410 -14923424 550197194 1209050710 -1476926414
REM
CELL 1.54180   50.00000   50.00000   50.00000   90.00000   90.00000   90.00000
LATT -1
SFAC C  
C      1  0.4476840000000  0.5002350000000  0.5506790000000 1.0
C      1  0.5460830000000  0.4831650000000  0.4518950000000 1.0
C      1  0.5045440000000  0.4556980000000  0.5552800000000 1.0
C      1  0.4911010000000  0.4093400000000  0.5340920000000 1.0
C      1  0.4157120000000  0.4462380000000  0.5357630000000 1.0
C      1  0.4846090000000  0.6000750000000  0.4788230000000 1.0
C      1  0.4860230000000  0.5181600000000  0.5954520000000 1.0
C      1  0.4749580000000  0.6033080000000  0.5276410000000 1.0
C      1  0.4459190000000  0.4729570000000  0.4949630000000 1.0
C      1  0.5405640000000  0.3930520000000  0.5227640000000 1.0
C      1  0.4311570000000  0.4073590000000  0.5007580000000 1.0
C      1  0.4648670000000  0.4753020000000  0.4602630000000 1.0
C      1  0.4492050000000  0.4527570000000  0.5390070000000 1.0
C      1  0.4266540000000  0.5094120000000  0.5184070000000 1.0
C      1  0.6032750000000  0.4510270000000  0.4789710000000 1.0
C      1  0.4930430000000  0.4908250000000  0.6034390000000 1.0
C      1  0.3995190000000  0.5537970000000  0.4907950000000 1.0
C      1  0.5072800000000  0.5499570000000  0.5661350000000 1.0
C      1  0.5272580000000  0.4545000000000  0.4111170000000 1.0
C      1  0.5305400000000  0.6090960000000  0.4652020000000 1.0
C      1  0.5071460000000  0.5865320000000  0.4330090000000 1.0
C      1  0.4138360000000  0.5325090000000  0.4481320000000 1.0
C      1  0.4251650000000  0.5406120000000  0.4186790000000 1.0
C      1  0.4091410000000  0.5638450000000  0.5337770000000 1.0
C      1  0.5661850000000  0.5017020000000  0.4845240000000 1.0
C      1  0.4238650000000  0.4513480000000  0.4880180000000 1.0
C      1  0.4430410000000  0.5357810000000  0.5331150000000 1.0
C      1  0.4759700000000  0.4142490000000  0.5632120000000 1.0
C      1  0.5481880000000  0.5838800000000  0.4904210000000 1.0
C      1  0.5313270000000  0.5367610000000  0.5497760000000 1.0
C      1  0.4456000000000  0.5538130000000  0.5622520000000 1.0
C      1  0.5071450000000  0.5438330000000  0.4993810000000 1.0
C      1  0.5436150000000  0.4362510000000  0.4253800000000 1.0
C      1  0.5748080000000  0.5638210000000  0.5507360000000 1.0
C      1  0.3890560000000  0.5127460000000  0.5054050000000 1.0
C      1  0.5562900000000  0.5934510000000  0.4599690000000 1.0
C      1  0.5424020000000  0.4770160000000  0.5876250000000 1.0
C      1  0.4580290000000  0.5273710000000  0.4366240000000 1.0
C      1  0.5566480000000  0.4214850000000  0.4715720000000 1.0
C      1  0.5399150000000  0.5590230000000  0.5871730000000 1.0
C      1  0.5365600000000  0.4163990000000  0.4988320000000 1.0
C      1  0.5852410000000  0.4170630000000  0.5113860000000 1.0
C      1  0.4948420000000  0.4918350000000  0.4016360000000 1.0
C      1  0.6067890000000  0.4955790000000  0.5153490000000 1.0
C      1  0.4949290000000  0.6065540000000  0.5071730000000 1.0
C      1  0.5143770000000  0.4499500000000  0.4644630000000 1.0
C      1  0.5126140000000  0.4602420000000  0.5884440000000 1.0
C      1  0.5620730000000  0.5140870000000  0.5286770000000 1.0
C      1  0.4769000000000  0.4565310000000  0.4443770000000 1.0
C      1  0.4907650000000  0.4610760000000  0.5295380000000 1.0
C      1  0.5357380000000  0.5362250000000  0.4110310000000 1.0
C      1  0.4495910000000  0.4331700000000  0.4617520000000 1.0
C      1  0.5307300000000  0.4014230000000  0.4623080000000 1.0
C      1  0.4136350000000  0.4582670000000  0.4602810000000 1.0
C      1  0.5033070000000  0.5162140000000  0.4797820000000 1.0
C      1  0.5517080000000  0.5536620000000  0.5321770000000 1.0
C      1  0.5860890000000  0.4282760000000  0.4845780000000 1.0
C      1  0.4448060000000  0.4813330000000  0.5251020000000 1.0
C      1  0.4785180000000  0.4644560000000  0.5871820000000 1.0
C      1  0.5350050000000  0.5931870000000  0.5435890000000 1.0
C      1  0.3986510000000  0.4723400000000  0.5309790000000 1.0
C      1  0.4827850000000  0.5863910000000  0.5490350000000 1.0
C      1  0.5380090000000  0.5847180000000  0.4344560000000 1.0
C      1  0.5465740000000  0.4871120000000  0.5219640000000 1.0
C      1  0.5449270000000  0.5278410000000  0.5025740000000 1.0
C      1  0.5718760000000  0.4744590000000  0.4312960000000 1.0
C      1  0.5028220000000  0.5070080000000  0.4409710000000 1.0
C      1  0.5639270000000  0.4945360000000  0.5566580000000 1.0
C      1  0.6169810000000  0.4676710000000  0.5321120000000 1.0
C      1  0.5064530000000  0.3869780000000  0.4815040000000 1.0
C      1  0.5702100000000  0.4715430000000  0.4708270000000 1.0
C      1  0.4797830000000  0.4353300000000  0.5157220000000 1.0
C      1  0.4247820000000  0.5101540000000  0.4881250000000 1.0
C      1  0.5214990000000  0.4173030000000  0.5360660000000 1.0
C      1  0.5231360000000  0.4827820000000  0.4282760000000 1.0
C      1  0.5793450000000  0.5635510000000  0.4130380000000 1.0
C      1  0.4908390000000  0.5160560000000  0.5229610000000 1.0
C      1  0.5879340000000  0.5472410000000  0.5759020000000 1.0
C      1  0.4486080000000  0.5938040000000  0.5213460000000 1.0
C      1  0.4384230000000  0.4054460000000  0.4731860000000 1.0
C      1  0.6130690000000  0.4650000000000  0.5009420000000 1.0
C      1  0.4567880000000  0.5811610000000  0.4409430000000 1.0
C      1  0.4550830000000  0.5228940000000  0.4846000000000 1.0
C      1  0.4980220000000  0.4315590000000  0.5769900000000 1.0
C      1  0.4363670000000  0.4535600000000  0.4400220000000 1.0
C      1  0.4817560000000  0.5268310000000  0.4553230000000 1.0
C      1  0.5564630000000  0.5585910000000  0.4998530000000 1.0
C      1  0.5566940000000  0.5023000000000  0.4187760000000 1.0
C      1  0.5555300000000  0.4440950000000  0.5045340000000 1.0
C      1  0.3915370000000  0.4722820000000  0.4782860000000 1.0
C      1  0.5266340000000  0.5044800000000  0.4028480000000 1.0
C      1  0.4382780000000  0.4912420000000  0.4668490000000 1.0
C      1  0.4531190000000  0.4189480000000  0.5403070000000 1.0
C      1  0.5199960000000  0.5581490000000  0.4589830000000 1.0
C      1  0.5943000000000  0.4983510000000  0.5703580000000 1.0
C      1  0.6137390000000  0.5531780000000  0.5179560000000 1.0
C      1  0.4659640000000  0.5760910000000  0.5703970000000 1.0
C      1  0.4748710000000  0.4976190000000  0.4816100000000 1.0
C      1  0.5374460000000  0.4641310000000  0.5576620000000 1.0
C      1  0.5984790000000  0.4720020000000  0.4526300000000 1.0
C      1  0.5495570000000  0.5672030000000  0.4154490000000 1.0
C      1  0.5391980000000  0.4849380000000  0.4920990000000 1.0
C      1  0.5615020000000  0.4464530000000  0.4489640000000 1.0
C      1  0.4028050000000  0.5305550000000  0.5293150000000 1.0
C      1  0.4989150000000  0.4941380000000  0.5641930000000 1.0
C      1  0.4002190000000  0.4913000000000  0.5522410000000 1.0
C      1  0.4262170000000  0.4390900000000  0.5675410000000 1.0
C      1  0.5211600000000  0.5009130000000  0.5874780000000 1.0
C      1  0.4542930000000  0.5577390000000  0.4223130000000 1.0
C      1  0.4803630000000  0.4660260000000  0.4057280000000 1.0
C      1  0.5352300000000  0.5257840000000  0.5807880000000 1.0
C      1  0.4737430000000  0.4241700000000  0.4426620000000 1.0
C      1  0.4184070000000  0.4320050000000  0.5077400000000 1.0
C      1  0.3907710000000  0.4838130000000  0.5053120000000 1.0
C      1  0.5215590000000  0.5621860000000  0.5189620000000 1.0
C      1  0.5290830000000  0.4126990000000  0.4314970000000 1.0
C      1  0.5239450000000  0.5951040000000  0.5114750000000 1.0
C      1  0.4538740000000  0.4022460000000  0.5171290000000 1.0
C      1  0.5066210000000  0.4222290000000  0.4996630000000 1.0
C      1  0.4993480000000  0.3946990000000  0.4496330000000 1.0
C      1  0.4299660000000  0.5465840000000  0.5046210000000 1.0
C      1  0.4997620000000  0.4440770000000  0.4071710000000 1.0
C      1  0.6009550000000  0.5442860000000  0.5445390000000 1.0
C      1  0.5655210000000  0.4130600000000  0.5303000000000 1.0
C      1  0.5942450000000  0.5138440000000  0.5398630000000 1.0
C      1  0.5902560000000  0.4746030000000  0.5464140000000 1.0
C      1  0.5640450000000  0.5187260000000  0.4483250000000 1.0
C      1  0.4268950000000  0.5184510000000  0.4019860000000 1.0
C      1  0.4195650000000  0.5094330000000  0.5587670000000 1.0
C      1  0.5645540000000  0.5355530000000  0.5925390000000 1.0
C      1  0.4715580000000  0.4003720000000  0.4673810000000 1.0
C      1  0.5274280000000  0.4463740000000  0.5235950000000 1.0
C      1  0.4863950000000  0.4886620000000  0.5099030000000 1.0
C      1  0.4846170000000  0.5466540000000  0.4144900000000 1.0
C      1  0.5972510000000  0.5134800000000  0.4920170000000 1.0
C      1  0.4496370000000  0.4673790000000  0.4174040000000 1.0
C      1  0.5659320000000  0.5017460000000  0.5891650000000 1.0
C      1  0.4138630000000  0.5417920000000  0.5593520000000 1.0
C      1  0.5033530000000  0.5688930000000  0.5432000000000 1.0
C      1  0.6087240000000  0.5415790000000  0.4962370000000 1.0
C      1  0.5906200000000  0.5041760000000  0.4607430000000 1.0
C      1  0.5489230000000  0.5785660000000  0.5631100000000 1.0
C      1  0.4972800000000  0.4155630000000  0.4226580000000 1.0
C      1  0.3985050000000  0.5258880000000  0.4763620000000 1.0
C      1  0.5129510000000  0.5887290000000  0.4722310000000 1.0
C      1  0.4738450000000  0.5388630000000  0.5052720000000 1.0
C      1  0.4942100000000  0.4378520000000  0.4788790000000 1.0
C      1  0.5078520000000  0.5664450000000  0.5934030000000 1.0
C      1  0.4688350000000  0.5731650000000  0.4783490000000 1.0
C      1  0.4685860000000  0.4908570000000  0.5720880000000 1.0
C      1  0.5133810000000  0.4707240000000  0.5072880000000 1.0
C      1  0.5224490000000  0.5186680000000  0.5263940000000 1.0
C      1  0.5079830000000  0.3861470000000  0.5154490000000 1.0
C      1  0.5281120000000  0.5060360000000  0.4603890000000 1.0
C      1  0.4342560000000  0.5084410000000  0.4410350000000 1.0
C      1  0.4849270000000  0.5308160000000  0.5713580000000 1.0
C      1  0.4898760000000  0.5527720000000  0.4714520000000 1.0
C      1  0.4597990000000  0.4435670000000  0.5704880000000 1.0
C      1  0.4708050000000  0.5227660000000  0.5462920000000 1.0
C      1  0.5416910000000  0.5339630000000  0.4691390000000 1.0
C      1  0.4208420000000  0.5836710000000  0.5164570000000 1.0
C      1  0.4813250000000  0.5754000000000  0.5953490000000 1.0
C      1  0.5543070000000  0.4381640000000  0.5439510000000 1.0
C      1  0.4634970000000  0.4463400000000  0.4877630000000 1.0
C      1  0.4359950000000  0.4922340000000  0.4132510000000 1.0
C      1  0.4782350000000  0.3932330000000  0.4999480000000 1.0
C      1  0.4827530000000  0.5926780000000  0.4463470000000 1.0
C      1  0.4417080000000  0.5323470000000  0.5862770000000 1.0
C      1  0.5690360000000  0.5329120000000  0.4187420000000 1.0
C      1  0.5659330000000  0.4646570000000  0.5296050000000 1.0
C      1  0.4152980000000  0.5796890000000  0.4878670000000 1.0
C      1  0.5209530000000  0.4893520000000  0.5417000000000 1.0
C      1  0.5038870000000  0.4620870000000  0.4426260000000 1.0
C      1  0.4820610000000  0.5153510000000  0.4171410000000 1.0
C      1  0.4386430000000  0.5767270000000  0.4662380000000 1.0
C      1  0.4554890000000  0.5663110000000  0.5066480000000 1.0
C      1  0.5367500000000  0.4550770000000  0.4791480000000 1.0
C      1  0.5130020000000  0.5547500000000  0.4257240000000 1.0
C      1  0.4477230000000  0.5085180000000  0.5897320000000 1.0
C      1  0.4330630000000  0.5451180000000  0.4709020000000 1.0
END
