TITL C-2782225-7408-1413 0.000603460509161929 125000 -439.821013597188 0 0 77 (C1) n - 1
REM
REM in /home/nfs/bkarasulu/CARBON/AIRSS/Generating-Clusters/REBO/Higher-Symm/SD-CG/HFTN-CG
REM
REM
REM
REM
REM
REM ./C.cell (12c818d87b63d06a65506943cc24bca4)
REM
REM compiler GCC version 9.2.1 20190827 (Red Hat 9.2.1-1)
REM options -cpp -mtune=generic -march=x86-64 -g -O0 -fpre-include=/usr/include/finclude/math-vector-fortran.h
REM seed 284897571 1465017331 716157190 1636742575 1197853786 500973898 22833668 -377083030 -1521831075 -395901474 852141477 -598497919 18689159 -1443945283 -1309296716 -1285202571 -451376328 -1020274897 -1011106529 1626859888 -133149006 1674456497 -707749925 1680109321 539810697 1845991162 1242448551 1532720299 -471236558 1420545819 734430484 -1280474337 396442152
REM
CELL 1.54180   50.00000   50.00000   50.00000   90.00000   90.00000   90.00000
LATT -1
SFAC C  
C      1  0.4507380000000  0.5547660000000  0.5001440000000 1.0
C      1  0.4502390000000  0.4437390000000  0.5016550000000 1.0
C      1  0.4901520000000  0.5803740000000  0.5023510000000 1.0
C      1  0.4894250000000  0.4183720000000  0.4989180000000 1.0
C      1  0.5659460000000  0.5568510000000  0.4776120000000 1.0
C      1  0.5675510000000  0.4422400000000  0.5243270000000 1.0
C      1  0.4531950000000  0.4661440000000  0.5656780000000 1.0
C      1  0.4545940000000  0.5320400000000  0.4356060000000 1.0
C      1  0.4867080000000  0.5211970000000  0.4739400000000 1.0
C      1  0.4843710000000  0.4765310000000  0.5271550000000 1.0
C      1  0.4712200000000  0.4302460000000  0.5155650000000 1.0
C      1  0.4718820000000  0.5678420000000  0.4863680000000 1.0
C      1  0.5626820000000  0.5284190000000  0.5235820000000 1.0
C      1  0.5612620000000  0.4716090000000  0.4777130000000 1.0
C      1  0.5017070000000  0.4673120000000  0.5008280000000 1.0
C      1  0.5033450000000  0.5344960000000  0.5004860000000 1.0
C      1  0.4240900000000  0.5372590000000  0.4968310000000 1.0
C      1  0.4236020000000  0.4616450000000  0.5039430000000 1.0
C      1  0.5188710000000  0.5849800000000  0.5470880000000 1.0
C      1  0.5109670000000  0.4251590000000  0.4467280000000 1.0
C      1  0.4339880000000  0.4984110000000  0.4687760000000 1.0
C      1  0.4323500000000  0.5002860000000  0.5323030000000 1.0
C      1  0.4605640000000  0.5433430000000  0.5276790000000 1.0
C      1  0.4608310000000  0.4549020000000  0.4740510000000 1.0
C      1  0.4868150000000  0.5527870000000  0.4641280000000 1.0
C      1  0.4865400000000  0.4455660000000  0.5378450000000 1.0
C      1  0.4920470000000  0.5669510000000  0.5890100000000 1.0
C      1  0.4974770000000  0.4483300000000  0.4005070000000 1.0
C      1  0.5314990000000  0.5752980000000  0.4782410000000 1.0
C      1  0.5326510000000  0.4271530000000  0.5167160000000 1.0
C      1  0.5188350000000  0.5440460000000  0.4575200000000 1.0
C      1  0.5191950000000  0.4526780000000  0.5440340000000 1.0
C      1  0.4692770000000  0.5526400000000  0.4382280000000 1.0
C      1  0.4688190000000  0.4461510000000  0.5637470000000 1.0
C      1  0.4840110000000  0.5047300000000  0.5450050000000 1.0
C      1  0.4858310000000  0.4932700000000  0.4554220000000 1.0
C      1  0.4811660000000  0.5125950000000  0.5950670000000 1.0
C      1  0.4820770000000  0.4848920000000  0.4055600000000 1.0
C      1  0.4882370000000  0.4670200000000  0.4719300000000 1.0
C      1  0.4880860000000  0.5308790000000  0.5302350000000 1.0
C      1  0.5474560000000  0.5476910000000  0.5368800000000 1.0
C      1  0.5449950000000  0.4553220000000  0.4619180000000 1.0
C      1  0.5610140000000  0.5128020000000  0.4557300000000 1.0
C      1  0.5599310000000  0.4866960000000  0.5445460000000 1.0
C      1  0.4349650000000  0.5269850000000  0.5239740000000 1.0
C      1  0.4356680000000  0.4717430000000  0.4773240000000 1.0
C      1  0.5176870000000  0.5655130000000  0.5010330000000 1.0
C      1  0.5148230000000  0.4360520000000  0.4966110000000 1.0
C      1  0.5473680000000  0.4626570000000  0.5277340000000 1.0
C      1  0.5473500000000  0.5352820000000  0.4739220000000 1.0
C      1  0.5201840000000  0.4906530000000  0.5726220000000 1.0
C      1  0.5212490000000  0.5072830000000  0.4274390000000 1.0
C      1  0.5368920000000  0.5012270000000  0.5526830000000 1.0
C      1  0.5380640000000  0.4972020000000  0.4477310000000 1.0
C      1  0.5057340000000  0.5660080000000  0.5655720000000 1.0
C      1  0.5052700000000  0.4464910000000  0.4263730000000 1.0
C      1  0.5202920000000  0.4622130000000  0.5706390000000 1.0
C      1  0.5201670000000  0.5356280000000  0.4306500000000 1.0
C      1  0.5269320000000  0.4326570000000  0.4690640000000 1.0
C      1  0.5333360000000  0.5718510000000  0.5262970000000 1.0
C      1  0.4963540000000  0.4937500000000  0.4273880000000 1.0
C      1  0.4949840000000  0.5035630000000  0.5729950000000 1.0
C      1  0.4157290000000  0.5178210000000  0.4782040000000 1.0
C      1  0.4142360000000  0.4811560000000  0.5220320000000 1.0
C      1  0.4585670000000  0.5102470000000  0.4575020000000 1.0
C      1  0.4565850000000  0.4879420000000  0.5436120000000 1.0
C      1  0.4684930000000  0.4764650000000  0.3847930000000 1.0
C      1  0.4680280000000  0.5211830000000  0.6160530000000 1.0
C      1  0.5145120000000  0.5427960000000  0.5459750000000 1.0
C      1  0.5140500000000  0.4653590000000  0.4503780000000 1.0
C      1  0.5250180000000  0.5158260000000  0.5281170000000 1.0
C      1  0.5243210000000  0.4869640000000  0.4747600000000 1.0
C      1  0.5779310000000  0.4924200000000  0.4669960000000 1.0
C      1  0.5778730000000  0.5067590000000  0.5348330000000 1.0
C      1  0.5447240000000  0.4828310000000  0.5020340000000 1.0
C      1  0.5452320000000  0.5169310000000  0.5002180000000 1.0
C      1  0.5090850000000  0.5006830000000  0.5019950000000 1.0
END
