TITL C-2782236-320-332 -0.00490590335371296 125000 -120.456654804307 0 0 22 (Cs) n - 1
REM
REM in /home/nfs/bkarasulu/CARBON/AIRSS/Generating-Clusters/REBO/Higher-Symm/SD-CG/HFTN-CG
REM
REM
REM
REM
REM
REM ./C.cell (12c818d87b63d06a65506943cc24bca4)
REM
REM compiler GCC version 9.2.1 20190827 (Red Hat 9.2.1-1)
REM options -cpp -mtune=generic -march=x86-64 -g -O0 -fpre-include=/usr/include/finclude/math-vector-fortran.h
REM seed -1108001232 -366274353 71805743 -1699160904 -134139928 1933564469 -1201506262 -596178485 -361806382 1498128022 -1100909720 1032002548 557219974 -788985991 7965726 858285225 -1921266437 -1780602579 960176590 24587661 16653776 -1290743163 558031699 857133310 -1726512524 -1981370585 555942189 2017925287 -1442037161 562747707 -277480773 -398924045 2095366725
REM
CELL 1.54180   50.00000   50.00000   50.00000   90.00000   90.00000   90.00000
LATT -1
SFAC C  
C      1  0.4987300000000  0.4573350000000  0.5080100000000 1.0
C      1  0.4992740000000  0.4985040000000  0.5420090000000 1.0
C      1  0.4805870000000  0.5510310000000  0.5132000000000 1.0
C      1  0.4845730000000  0.5358980000000  0.4550360000000 1.0
C      1  0.4795970000000  0.4759910000000  0.4512290000000 1.0
C      1  0.4712870000000  0.5988050000000  0.5317640000000 1.0
C      1  0.4861530000000  0.5690400000000  0.4148790000000 1.0
C      1  0.4693080000000  0.4488840000000  0.4079530000000 1.0
C      1  0.5149340000000  0.4156250000000  0.5244200000000 1.0
C      1  0.5159160000000  0.4900180000000  0.5858560000000 1.0
C      1  0.4759660000000  0.5747700000000  0.5224250000000 1.0
C      1  0.4853580000000  0.5523660000000  0.4350820000000 1.0
C      1  0.4744840000000  0.4625220000000  0.4297260000000 1.0
C      1  0.5088340000000  0.4419390000000  0.5282440000000 1.0
C      1  0.5093540000000  0.4813880000000  0.5608220000000 1.0
C      1  0.4869200000000  0.4767890000000  0.4832900000000 1.0
C      1  0.4878740000000  0.4871210000000  0.5140450000000 1.0
C      1  0.4874810000000  0.5192860000000  0.5183860000000 1.0
C      1  0.4838750000000  0.5304510000000  0.4875520000000 1.0
C      1  0.4835390000000  0.5050110000000  0.4665420000000 1.0
C      1  0.5134370000000  0.4536480000000  0.5541690000000 1.0
C      1  0.5228110000000  0.4371760000000  0.5739660000000 1.0
END
