TITL C-2782240-8521-545 -0.00383610412830345 125000 -758.71147910742 0 0 132 (C1) n - 1
REM
REM in /home/nfs/bkarasulu/CARBON/AIRSS/Generating-Clusters/REBO/Higher-Symm/SD-CG/HFTN-CG
REM
REM
REM
REM
REM
REM ./C.cell (12c818d87b63d06a65506943cc24bca4)
REM
REM compiler GCC version 9.2.1 20190827 (Red Hat 9.2.1-1)
REM options -cpp -mtune=generic -march=x86-64 -g -O0 -fpre-include=/usr/include/finclude/math-vector-fortran.h
REM seed -309275658 1799725990 1507607914 1709616705 -1865196915 -1449983242 764558114 -69941939 1653951434 1831584778 1706389291 -652251179 -596817311 -2135716591 -376211187 -545863423 136659776 -1381289953 -1094186821 829346520 -900352725 2143063015 -195160158 -1438138078 2094118262 -858394628 -1622695402 -783803641 1525572743 -1580808731 935031523 171434098 347136076
REM
CELL 1.54180   50.00000   50.00000   50.00000   90.00000   90.00000   90.00000
LATT -1
SFAC C  
C      1  0.4906790000000  0.4767640000000  0.4783690000000 1.0
C      1  0.4702100000000  0.4857870000000  0.5282870000000 1.0
C      1  0.4781930000000  0.5073720000000  0.4714400000000 1.0
C      1  0.4796150000000  0.5165530000000  0.5254300000000 1.0
C      1  0.5035410000000  0.5287830000000  0.4708100000000 1.0
C      1  0.5115360000000  0.5201430000000  0.5184970000000 1.0
C      1  0.5310210000000  0.5112840000000  0.4712860000000 1.0
C      1  0.5252710000000  0.4899460000000  0.5265350000000 1.0
C      1  0.5228910000000  0.4810760000000  0.4789760000000 1.0
C      1  0.4988020000000  0.4686280000000  0.5249950000000 1.0
C      1  0.5135500000000  0.5209000000000  0.5848340000000 1.0
C      1  0.5428320000000  0.5185010000000  0.4184820000000 1.0
C      1  0.5362710000000  0.4911650000000  0.5919570000000 1.0
C      1  0.5214860000000  0.4819960000000  0.4141300000000 1.0
C      1  0.5041130000000  0.4709260000000  0.5896680000000 1.0
C      1  0.4827520000000  0.4730780000000  0.4119810000000 1.0
C      1  0.4670260000000  0.4857040000000  0.5875460000000 1.0
C      1  0.4667730000000  0.5090950000000  0.4061660000000 1.0
C      1  0.4738480000000  0.5249000000000  0.5852930000000 1.0
C      1  0.5006640000000  0.5302800000000  0.4075310000000 1.0
C      1  0.5468810000000  0.5453580000000  0.4139700000000 1.0
C      1  0.5654800000000  0.4953190000000  0.5748230000000 1.0
C      1  0.5476010000000  0.4668960000000  0.4300460000000 1.0
C      1  0.5214260000000  0.4423220000000  0.5819860000000 1.0
C      1  0.4780360000000  0.4427550000000  0.4266840000000 1.0
C      1  0.4467700000000  0.4605700000000  0.5803960000000 1.0
C      1  0.4368380000000  0.4997470000000  0.4200140000000 1.0
C      1  0.4467640000000  0.5415070000000  0.5767690000000 1.0
C      1  0.4778100000000  0.5540650000000  0.4163070000000 1.0
C      1  0.5174380000000  0.5518400000000  0.5712300000000 1.0
C      1  0.4578020000000  0.5329410000000  0.5127380000000 1.0
C      1  0.5017890000000  0.5576390000000  0.4818930000000 1.0
C      1  0.5185010000000  0.5473990000000  0.5087190000000 1.0
C      1  0.5589080000000  0.5221620000000  0.4762670000000 1.0
C      1  0.5530360000000  0.4775490000000  0.5173400000000 1.0
C      1  0.5440880000000  0.4643450000000  0.4895090000000 1.0
C      1  0.4989180000000  0.4386260000000  0.5155850000000 1.0
C      1  0.4811770000000  0.4507190000000  0.4899850000000 1.0
C      1  0.4407890000000  0.4801550000000  0.5261050000000 1.0
C      1  0.4522230000000  0.5165260000000  0.4843560000000 1.0
C      1  0.4572260000000  0.5651830000000  0.5103650000000 1.0
C      1  0.5096180000000  0.5891010000000  0.4926960000000 1.0
C      1  0.5485720000000  0.5568740000000  0.5071490000000 1.0
C      1  0.5882750000000  0.5188920000000  0.4931230000000 1.0
C      1  0.5800390000000  0.4593430000000  0.5061370000000 1.0
C      1  0.5416320000000  0.4326400000000  0.4902690000000 1.0
C      1  0.4870830000000  0.4078290000000  0.5072190000000 1.0
C      1  0.4502690000000  0.4432050000000  0.4928720000000 1.0
C      1  0.4132350000000  0.4858230000000  0.5069990000000 1.0
C      1  0.4273900000000  0.5373460000000  0.4871690000000 1.0
C      1  0.5660090000000  0.5041160000000  0.4242830000000 1.0
C      1  0.5529580000000  0.4638010000000  0.5811300000000 1.0
C      1  0.5180090000000  0.4500090000000  0.4251960000000 1.0
C      1  0.4874770000000  0.4431620000000  0.5779960000000 1.0
C      1  0.4519650000000  0.4647760000000  0.4221930000000 1.0
C      1  0.4355480000000  0.4931250000000  0.5802040000000 1.0
C      1  0.4466240000000  0.5324430000000  0.4205480000000 1.0
C      1  0.4773510000000  0.5570080000000  0.5787770000000 1.0
C      1  0.5107760000000  0.5589030000000  0.4231910000000 1.0
C      1  0.5442160000000  0.5306400000000  0.5753410000000 1.0
C      1  0.4952980000000  0.5695990000000  0.5533250000000 1.0
C      1  0.5399330000000  0.5642680000000  0.4403920000000 1.0
C      1  0.5662120000000  0.5209550000000  0.5524930000000 1.0
C      1  0.5731570000000  0.4802060000000  0.4470760000000 1.0
C      1  0.5439250000000  0.4422300000000  0.5564280000000 1.0
C      1  0.5016290000000  0.4293490000000  0.4461010000000 1.0
C      1  0.4592350000000  0.4382290000000  0.5593400000000 1.0
C      1  0.4335640000000  0.4791600000000  0.4469580000000 1.0
C      1  0.4285520000000  0.5197190000000  0.5601440000000 1.0
C      1  0.4566140000000  0.5572860000000  0.4418770000000 1.0
C      1  0.5459750000000  0.5553620000000  0.5524990000000 1.0
C      1  0.5817020000000  0.5192260000000  0.4455000000000 1.0
C      1  0.5740870000000  0.4683390000000  0.5554280000000 1.0
C      1  0.5405620000000  0.4381380000000  0.4474140000000 1.0
C      1  0.4954470000000  0.4229660000000  0.5538410000000 1.0
C      1  0.4507790000000  0.4430650000000  0.4476230000000 1.0
C      1  0.4219500000000  0.4808040000000  0.5544590000000 1.0
C      1  0.4265560000000  0.5315960000000  0.4455680000000 1.0
C      1  0.4554960000000  0.5659590000000  0.5542860000000 1.0
C      1  0.5032280000000  0.5779000000000  0.4474780000000 1.0
C      1  0.4615560000000  0.5853530000000  0.4832960000000 1.0
C      1  0.5306970000000  0.5912470000000  0.5165600000000 1.0
C      1  0.5714120000000  0.5630630000000  0.4820050000000 1.0
C      1  0.5976340000000  0.5010890000000  0.5175960000000 1.0
C      1  0.5807280000000  0.4354280000000  0.4837020000000 1.0
C      1  0.5359460000000  0.4121820000000  0.5167200000000 1.0
C      1  0.4658250000000  0.4076100000000  0.4836600000000 1.0
C      1  0.4266530000000  0.4379390000000  0.5175750000000 1.0
C      1  0.4054490000000  0.5045060000000  0.4829430000000 1.0
C      1  0.4191330000000  0.5542720000000  0.5149290000000 1.0
C      1  0.5663630000000  0.4224420000000  0.5115810000000 1.0
C      1  0.5154150000000  0.4031550000000  0.4946290000000 1.0
C      1  0.4482850000000  0.4148600000000  0.5116600000000 1.0
C      1  0.4133850000000  0.4571430000000  0.4960280000000 1.0
C      1  0.4049850000000  0.5247100000000  0.5096820000000 1.0
C      1  0.4307750000000  0.5764790000000  0.4918500000000 1.0
C      1  0.4818390000000  0.5959550000000  0.5049910000000 1.0
C      1  0.5490920000000  0.5856220000000  0.4889060000000 1.0
C      1  0.5867660000000  0.5470730000000  0.5048930000000 1.0
C      1  0.5990060000000  0.4807040000000  0.4946030000000 1.0
C      1  0.4767670000000  0.5703640000000  0.4621900000000 1.0
C      1  0.5224280000000  0.5678920000000  0.5352450000000 1.0
C      1  0.5654080000000  0.5476140000000  0.4549980000000 1.0
C      1  0.5753810000000  0.4947540000000  0.5363670000000 1.0
C      1  0.5631090000000  0.4540950000000  0.4643430000000 1.0
C      1  0.5219940000000  0.4282040000000  0.5387870000000 1.0
C      1  0.4747010000000  0.4301310000000  0.4642100000000 1.0
C      1  0.4339270000000  0.4518960000000  0.5437760000000 1.0
C      1  0.4280710000000  0.5061720000000  0.4624930000000 1.0
C      1  0.4380640000000  0.5439450000000  0.5381680000000 1.0
C      1  0.4692720000000  0.5054170000000  0.4394000000000 1.0
C      1  0.4804750000000  0.5097650000000  0.5585650000000 1.0
C      1  0.4921950000000  0.5278030000000  0.4400740000000 1.0
C      1  0.5107190000000  0.5183360000000  0.5504440000000 1.0
C      1  0.5214790000000  0.5135390000000  0.4386290000000 1.0
C      1  0.5284490000000  0.4930540000000  0.5603290000000 1.0
C      1  0.5155770000000  0.4828810000000  0.4477920000000 1.0
C      1  0.5099170000000  0.4674770000000  0.5557070000000 1.0
C      1  0.4836690000000  0.4773370000000  0.4457550000000 1.0
C      1  0.4795330000000  0.4772670000000  0.5587760000000 1.0
C      1  0.5705150000000  0.4444880000000  0.5353530000000 1.0
C      1  0.5237220000000  0.4180670000000  0.4664840000000 1.0
C      1  0.4702260000000  0.4159510000000  0.5358920000000 1.0
C      1  0.4300590000000  0.4549980000000  0.4684910000000 1.0
C      1  0.4110170000000  0.5053610000000  0.5347820000000 1.0
C      1  0.4296260000000  0.5592570000000  0.4625420000000 1.0
C      1  0.4737340000000  0.5822670000000  0.5333590000000 1.0
C      1  0.5286120000000  0.5855140000000  0.4644680000000 1.0
C      1  0.5689070000000  0.5466400000000  0.5321460000000 1.0
C      1  0.5922380000000  0.4972790000000  0.4673000000000 1.0
C      1  0.4938140000000  0.5003920000000  0.5980240000000 1.0
C      1  0.4985960000000  0.4991790000000  0.3992810000000 1.0
END
