TITL C-2782230-7391-1454 -0.00469201018667125 125000 -758.298825427856 0 0 130 (C1) n - 1
REM
REM in /home/nfs/bkarasulu/CARBON/AIRSS/Generating-Clusters/REBO/Higher-Symm/SD-CG/HFTN-CG
REM
REM
REM
REM
REM
REM ./C.cell (12c818d87b63d06a65506943cc24bca4)
REM
REM compiler GCC version 9.2.1 20190827 (Red Hat 9.2.1-1)
REM options -cpp -mtune=generic -march=x86-64 -g -O0 -fpre-include=/usr/include/finclude/math-vector-fortran.h
REM seed -744738179 -1213657157 -13665649 1524592783 -1795979712 -194912269 -705397630 405802841 -2086212355 976836049 1336224910 1204805596 -1248839899 -2134529618 909863764 -522990559 1918801133 -1591826289 -330189156 2051974116 1860223225 -1722703471 -273558461 968436464 -1603470637 1364908224 -1502765413 -2002309512 -1806792166 1387917534 -650207660 775675307 -2058984574
REM
CELL 1.54180   50.00000   50.00000   50.00000   90.00000   90.00000   90.00000
LATT -1
SFAC C  
C      1  0.4434240000000  0.4265340000000  0.5024270000000 1.0
C      1  0.5326410000000  0.4264680000000  0.5463110000000 1.0
C      1  0.5255400000000  0.4229760000000  0.4472620000000 1.0
C      1  0.5639500000000  0.5505310000000  0.4857270000000 1.0
C      1  0.4535620000000  0.5570540000000  0.4548990000000 1.0
C      1  0.4794260000000  0.5516810000000  0.5656110000000 1.0
C      1  0.4064360000000  0.4851720000000  0.5250110000000 1.0
C      1  0.5638040000000  0.4888390000000  0.5675780000000 1.0
C      1  0.5233570000000  0.4855550000000  0.4095890000000 1.0
C      1  0.5117880000000  0.4445900000000  0.5071690000000 1.0
C      1  0.5036080000000  0.4380320000000  0.4770760000000 1.0
C      1  0.4780920000000  0.4453330000000  0.5067930000000 1.0
C      1  0.4748580000000  0.5381420000000  0.4619700000000 1.0
C      1  0.4720820000000  0.5302620000000  0.5467220000000 1.0
C      1  0.5482960000000  0.5306580000000  0.5043910000000 1.0
C      1  0.5447700000000  0.4640220000000  0.4711920000000 1.0
C      1  0.4563710000000  0.4561440000000  0.4741910000000 1.0
C      1  0.4970980000000  0.4631240000000  0.5393900000000 1.0
C      1  0.4996320000000  0.4951060000000  0.4566770000000 1.0
C      1  0.4545670000000  0.4927230000000  0.5210010000000 1.0
C      1  0.5425330000000  0.4963550000000  0.5254880000000 1.0
C      1  0.5185280000000  0.5508010000000  0.5715930000000 1.0
C      1  0.5522950000000  0.5445870000000  0.4483590000000 1.0
C      1  0.4162810000000  0.5468190000000  0.4768110000000 1.0
C      1  0.5698650000000  0.4853610000000  0.4553040000000 1.0
C      1  0.4178480000000  0.4891110000000  0.4577430000000 1.0
C      1  0.5187670000000  0.4960640000000  0.5916600000000 1.0
C      1  0.5514230000000  0.5455730000000  0.5646800000000 1.0
C      1  0.5270230000000  0.5341470000000  0.4280780000000 1.0
C      1  0.4206060000000  0.5345220000000  0.5078870000000 1.0
C      1  0.4254120000000  0.4577190000000  0.4343500000000 1.0
C      1  0.4825360000000  0.4630280000000  0.5888920000000 1.0
C      1  0.5934600000000  0.4551980000000  0.4667100000000 1.0
C      1  0.4825200000000  0.4515750000000  0.4650370000000 1.0
C      1  0.4894430000000  0.4774610000000  0.5090820000000 1.0
C      1  0.5328480000000  0.4662540000000  0.5011100000000 1.0
C      1  0.5809400000000  0.5375420000000  0.4591970000000 1.0
C      1  0.4256940000000  0.5423680000000  0.4443250000000 1.0
C      1  0.4952960000000  0.5425220000000  0.5923880000000 1.0
C      1  0.4599870000000  0.4508350000000  0.5979020000000 1.0
C      1  0.6181740000000  0.4438450000000  0.4623790000000 1.0
C      1  0.4090070000000  0.4485670000000  0.4142420000000 1.0
C      1  0.5461230000000  0.4185800000000  0.5002360000000 1.0
C      1  0.4786300000000  0.4121820000000  0.4597230000000 1.0
C      1  0.4815450000000  0.4232390000000  0.5399240000000 1.0
C      1  0.5295160000000  0.4717630000000  0.5451040000000 1.0
C      1  0.5255260000000  0.4779470000000  0.4487560000000 1.0
C      1  0.4435920000000  0.4739800000000  0.4977270000000 1.0
C      1  0.5933010000000  0.5180250000000  0.4842520000000 1.0
C      1  0.4399980000000  0.5193520000000  0.4273200000000 1.0
C      1  0.4726110000000  0.5178720000000  0.5855830000000 1.0
C      1  0.4791610000000  0.5517370000000  0.4246280000000 1.0
C      1  0.4402400000000  0.5522790000000  0.5594690000000 1.0
C      1  0.5772970000000  0.5509390000000  0.5229980000000 1.0
C      1  0.5293050000000  0.5131770000000  0.6113930000000 1.0
C      1  0.5845420000000  0.4971360000000  0.4321720000000 1.0
C      1  0.3950620000000  0.5034350000000  0.4578700000000 1.0
C      1  0.4670720000000  0.5280270000000  0.4139280000000 1.0
C      1  0.4431970000000  0.5265860000000  0.5740720000000 1.0
C      1  0.5903550000000  0.5275880000000  0.5146660000000 1.0
C      1  0.5523430000000  0.4312490000000  0.5253470000000 1.0
C      1  0.4972260000000  0.4244570000000  0.4400130000000 1.0
C      1  0.4542500000000  0.4385870000000  0.5303720000000 1.0
C      1  0.5616370000000  0.5108110000000  0.4850320000000 1.0
C      1  0.4622820000000  0.5129240000000  0.4506020000000 1.0
C      1  0.4835870000000  0.5025610000000  0.5581190000000 1.0
C      1  0.5140140000000  0.4968140000000  0.5602480000000 1.0
C      1  0.5429120000000  0.5025430000000  0.4616780000000 1.0
C      1  0.4467200000000  0.4945040000000  0.4717900000000 1.0
C      1  0.5140110000000  0.5356410000000  0.6163270000000 1.0
C      1  0.5920990000000  0.5213500000000  0.4344110000000 1.0
C      1  0.3968100000000  0.5305270000000  0.4563850000000 1.0
C      1  0.4443350000000  0.5214360000000  0.5289240000000 1.0
C      1  0.5504310000000  0.5251690000000  0.5372000000000 1.0
C      1  0.5013830000000  0.5260630000000  0.4490380000000 1.0
C      1  0.5284120000000  0.5149900000000  0.4046030000000 1.0
C      1  0.4011000000000  0.5146720000000  0.5237580000000 1.0
C      1  0.5682870000000  0.5189070000000  0.5741930000000 1.0
C      1  0.4135370000000  0.4666520000000  0.5043070000000 1.0
C      1  0.5453290000000  0.4669490000000  0.5741580000000 1.0
C      1  0.5378790000000  0.4635640000000  0.4233870000000 1.0
C      1  0.4865120000000  0.4555650000000  0.4313090000000 1.0
C      1  0.4446880000000  0.4634470000000  0.5463990000000 1.0
C      1  0.5599180000000  0.4608560000000  0.5218660000000 1.0
C      1  0.4225030000000  0.4411970000000  0.4890720000000 1.0
C      1  0.5281360000000  0.4417020000000  0.5712510000000 1.0
C      1  0.5473870000000  0.4392770000000  0.4365570000000 1.0
C      1  0.5169460000000  0.5747410000000  0.4748250000000 1.0
C      1  0.4676120000000  0.5779960000000  0.4924230000000 1.0
C      1  0.5131570000000  0.5812700000000  0.5302280000000 1.0
C      1  0.5056990000000  0.5198250000000  0.3864500000000 1.0
C      1  0.4003940000000  0.5215230000000  0.5521740000000 1.0
C      1  0.5952650000000  0.5196760000000  0.5617710000000 1.0
C      1  0.4723450000000  0.5009790000000  0.4933270000000 1.0
C      1  0.5085010000000  0.4985680000000  0.5253200000000 1.0
C      1  0.5190960000000  0.4932140000000  0.4850480000000 1.0
C      1  0.4823840000000  0.5077420000000  0.4000940000000 1.0
C      1  0.4226990000000  0.5075920000000  0.5660300000000 1.0
C      1  0.5936170000000  0.5072370000000  0.5350850000000 1.0
C      1  0.4774750000000  0.5307280000000  0.4911820000000 1.0
C      1  0.4977680000000  0.5264940000000  0.5294780000000 1.0
C      1  0.5191320000000  0.5256380000000  0.4958650000000 1.0
C      1  0.4535890000000  0.5646140000000  0.5384440000000 1.0
C      1  0.5476430000000  0.5634500000000  0.5263850000000 1.0
C      1  0.4934560000000  0.5680620000000  0.4431720000000 1.0
C      1  0.5000380000000  0.4507210000000  0.5694080000000 1.0
C      1  0.5681710000000  0.4456770000000  0.4585420000000 1.0
C      1  0.4305810000000  0.4460320000000  0.4594190000000 1.0
C      1  0.5355200000000  0.5754560000000  0.5556090000000 1.0
C      1  0.5257900000000  0.5653500000000  0.4431410000000 1.0
C      1  0.4374570000000  0.5624790000000  0.4949460000000 1.0
C      1  0.5668370000000  0.4865570000000  0.5036410000000 1.0
C      1  0.4721290000000  0.4829550000000  0.4430040000000 1.0
C      1  0.4708100000000  0.4801260000000  0.5442140000000 1.0
C      1  0.5908440000000  0.4841040000000  0.4807010000000 1.0
C      1  0.4398860000000  0.4856580000000  0.4324590000000 1.0
C      1  0.4894230000000  0.4899840000000  0.5954370000000 1.0
C      1  0.5293970000000  0.4195790000000  0.4775150000000 1.0
C      1  0.4688080000000  0.4200560000000  0.4854840000000 1.0
C      1  0.5074310000000  0.4253380000000  0.5317810000000 1.0
C      1  0.4940610000000  0.4810940000000  0.4100580000000 1.0
C      1  0.4226110000000  0.4810980000000  0.5500800000000 1.0
C      1  0.5765960000000  0.4830870000000  0.5417130000000 1.0
C      1  0.4816090000000  0.5754810000000  0.5223770000000 1.0
C      1  0.5279200000000  0.5752940000000  0.5011180000000 1.0
C      1  0.4857310000000  0.5768590000000  0.4713300000000 1.0
C      1  0.4587560000000  0.5446380000000  0.5118650000000 1.0
C      1  0.5220630000000  0.5427680000000  0.5384720000000 1.0
C      1  0.5255360000000  0.5359570000000  0.4675180000000 1.0
C      1  0.4980200000000  0.5496890000000  0.5074470000000 1.0
END
