TITL C-2782232-2968-117 0.000990617342785063 125000 -439.50150329591 0 0 77 (C1) n - 1
REM
REM in /home/nfs/bkarasulu/CARBON/AIRSS/Generating-Clusters/REBO/Higher-Symm/SD-CG/HFTN-CG
REM
REM
REM
REM
REM
REM ./C.cell (12c818d87b63d06a65506943cc24bca4)
REM
REM compiler GCC version 9.2.1 20190827 (Red Hat 9.2.1-1)
REM options -cpp -mtune=generic -march=x86-64 -g -O0 -fpre-include=/usr/include/finclude/math-vector-fortran.h
REM seed -1313403293 697180566 952989251 -2067119618 1752655887 637761885 375900589 1836349615 1644044266 -1311919694 -1296290180 242531903 -182363651 1398942116 -1038184927 -1290094610 -2122627010 1967646949 -712589379 -1692881879 98463948 351811405 -614174651 1485094196 870406086 2110421459 -1697178162 -518128050 -2045144431 -676804707 1636652582 1890537945 1601581341
REM
CELL 1.54180   50.00000   50.00000   50.00000   90.00000   90.00000   90.00000
LATT -1
SFAC C  
C      1  0.5546590000000  0.5291580000000  0.5410490000000 1.0
C      1  0.5474520000000  0.5204650000000  0.4585710000000 1.0
C      1  0.5510220000000  0.4530120000000  0.5046240000000 1.0
C      1  0.4461230000000  0.5276620000000  0.5390110000000 1.0
C      1  0.4517240000000  0.5194880000000  0.4565240000000 1.0
C      1  0.4475600000000  0.4544540000000  0.5024150000000 1.0
C      1  0.5207850000000  0.4607450000000  0.5602550000000 1.0
C      1  0.5255660000000  0.5759170000000  0.5084410000000 1.0
C      1  0.5247600000000  0.4664700000000  0.4327240000000 1.0
C      1  0.4739200000000  0.4593330000000  0.5607660000000 1.0
C      1  0.4786720000000  0.5732930000000  0.5078590000000 1.0
C      1  0.4760520000000  0.4651050000000  0.4338260000000 1.0
C      1  0.5363180000000  0.5088410000000  0.5613130000000 1.0
C      1  0.5354770000000  0.5497740000000  0.4674530000000 1.0
C      1  0.5459280000000  0.4390930000000  0.4741180000000 1.0
C      1  0.4590630000000  0.5103330000000  0.5643740000000 1.0
C      1  0.4701320000000  0.5453250000000  0.4664510000000 1.0
C      1  0.4651650000000  0.4409880000000  0.4770150000000 1.0
C      1  0.5227670000000  0.5564420000000  0.4301700000000 1.0
C      1  0.5249150000000  0.4113130000000  0.4930750000000 1.0
C      1  0.5297840000000  0.5371480000000  0.5887870000000 1.0
C      1  0.4683400000000  0.5589820000000  0.4268720000000 1.0
C      1  0.4717820000000  0.4043100000000  0.4913820000000 1.0
C      1  0.4748890000000  0.5340280000000  0.5790890000000 1.0
C      1  0.4604500000000  0.4734340000000  0.4772490000000 1.0
C      1  0.4565480000000  0.4963210000000  0.5342100000000 1.0
C      1  0.4618350000000  0.5224140000000  0.4890520000000 1.0
C      1  0.5417670000000  0.4716190000000  0.4782370000000 1.0
C      1  0.5426510000000  0.4993270000000  0.5307520000000 1.0
C      1  0.5396870000000  0.5274880000000  0.4909540000000 1.0
C      1  0.5139000000000  0.4131960000000  0.4667760000000 1.0
C      1  0.5176100000000  0.5125740000000  0.5963040000000 1.0
C      1  0.5106210000000  0.5756330000000  0.4474020000000 1.0
C      1  0.4841380000000  0.4077300000000  0.4659420000000 1.0
C      1  0.4881180000000  0.5102190000000  0.5916810000000 1.0
C      1  0.4804930000000  0.5772510000000  0.4448250000000 1.0
C      1  0.4526460000000  0.4888870000000  0.4411440000000 1.0
C      1  0.4522530000000  0.4567750000000  0.5362570000000 1.0
C      1  0.4577070000000  0.5527380000000  0.5191860000000 1.0
C      1  0.5465410000000  0.4910190000000  0.4419110000000 1.0
C      1  0.5424840000000  0.4598370000000  0.5368870000000 1.0
C      1  0.5474590000000  0.5553530000000  0.5202800000000 1.0
C      1  0.5661240000000  0.5291000000000  0.5090190000000 1.0
C      1  0.5627350000000  0.4938440000000  0.4720770000000 1.0
C      1  0.5651300000000  0.4792240000000  0.5203490000000 1.0
C      1  0.4358270000000  0.5294090000000  0.5073880000000 1.0
C      1  0.4371980000000  0.4936710000000  0.4713010000000 1.0
C      1  0.4335900000000  0.4798150000000  0.5193050000000 1.0
C      1  0.4830460000000  0.4836970000000  0.5222130000000 1.0
C      1  0.4841400000000  0.5146530000000  0.5083320000000 1.0
C      1  0.4860310000000  0.4829340000000  0.4618640000000 1.0
C      1  0.5148080000000  0.4913340000000  0.5187810000000 1.0
C      1  0.5166980000000  0.5231310000000  0.5097030000000 1.0
C      1  0.5165660000000  0.4784870000000  0.4648050000000 1.0
C      1  0.5150230000000  0.5039150000000  0.4420870000000 1.0
C      1  0.5136460000000  0.4580030000000  0.5210090000000 1.0
C      1  0.5191750000000  0.5458180000000  0.5339120000000 1.0
C      1  0.4819790000000  0.5045120000000  0.4355700000000 1.0
C      1  0.4815110000000  0.4504620000000  0.5226570000000 1.0
C      1  0.4865560000000  0.5405080000000  0.5293760000000 1.0
C      1  0.5208670000000  0.4410140000000  0.4515090000000 1.0
C      1  0.5158280000000  0.4877970000000  0.5738240000000 1.0
C      1  0.5191130000000  0.5733630000000  0.4785830000000 1.0
C      1  0.4868000000000  0.4387220000000  0.4524180000000 1.0
C      1  0.4792790000000  0.4849360000000  0.5742340000000 1.0
C      1  0.4851480000000  0.5705660000000  0.4776470000000 1.0
C      1  0.5111310000000  0.4260190000000  0.5128060000000 1.0
C      1  0.5198580000000  0.5507820000000  0.5662240000000 1.0
C      1  0.5098100000000  0.5315520000000  0.4269330000000 1.0
C      1  0.4814480000000  0.4198350000000  0.5128600000000 1.0
C      1  0.4902660000000  0.5487600000000  0.5609160000000 1.0
C      1  0.4798640000000  0.5337170000000  0.4224120000000 1.0
C      1  0.4978240000000  0.4453140000000  0.5587830000000 1.0
C      1  0.5016100000000  0.5801140000000  0.5220100000000 1.0
C      1  0.5004690000000  0.4690170000000  0.4164710000000 1.0
C      1  0.4254640000000  0.5010790000000  0.4981440000000 1.0
C      1  0.5745630000000  0.5006490000000  0.4994130000000 1.0
END
