TITL C-2782230-7391-208 -0.000999022374246177 125000 -549.715934262864 0 0 96 (C1) n - 1
REM
REM in /home/nfs/bkarasulu/CARBON/AIRSS/Generating-Clusters/REBO/Higher-Symm/SD-CG/HFTN-CG
REM
REM
REM
REM
REM
REM ./C.cell (12c818d87b63d06a65506943cc24bca4)
REM
REM compiler GCC version 9.2.1 20190827 (Red Hat 9.2.1-1)
REM options -cpp -mtune=generic -march=x86-64 -g -O0 -fpre-include=/usr/include/finclude/math-vector-fortran.h
REM seed 1659549824 834561584 395892048 482299563 1655135111 -1283932812 1850607933 -139235418 276266823 -1279080433 -584412592 -1448487659 1477072416 701991175 -1901089804 112300503 -629482480 -1127518250 566355569 189703871 -754726784 1877497411 -1066520828 -881977651 1004766798 -1848963537 328606752 -110258114 954308476 -374582610 -1888371449 -1527074890 1861260423
REM
CELL 1.54180   50.00000   50.00000   50.00000   90.00000   90.00000   90.00000
LATT -1
SFAC C  
C      1  0.5444150000000  0.4853360000000  0.4500100000000 1.0
C      1  0.5489600000000  0.5440450000000  0.4561990000000 1.0
C      1  0.5525800000000  0.5529470000000  0.5313100000000 1.0
C      1  0.5518170000000  0.4830250000000  0.5563700000000 1.0
C      1  0.5514840000000  0.4278520000000  0.5003690000000 1.0
C      1  0.5337830000000  0.4520930000000  0.5388330000000 1.0
C      1  0.5362320000000  0.4525060000000  0.4711940000000 1.0
C      1  0.5280190000000  0.5209150000000  0.4433460000000 1.0
C      1  0.5360150000000  0.5608740000000  0.4959390000000 1.0
C      1  0.5416440000000  0.5212440000000  0.5522600000000 1.0
C      1  0.4782210000000  0.4664570000000  0.4678330000000 1.0
C      1  0.4788980000000  0.5184680000000  0.4599890000000 1.0
C      1  0.4784870000000  0.5448940000000  0.5061910000000 1.0
C      1  0.4789290000000  0.5086110000000  0.5441270000000 1.0
C      1  0.4798620000000  0.4634220000000  0.5200110000000 1.0
C      1  0.5798170000000  0.5350140000000  0.5209660000000 1.0
C      1  0.5801390000000  0.4814690000000  0.5379340000000 1.0
C      1  0.5801280000000  0.4463470000000  0.4992940000000 1.0
C      1  0.5903020000000  0.4929060000000  0.4850040000000 1.0
C      1  0.5791660000000  0.5409560000000  0.4691300000000 1.0
C      1  0.4202660000000  0.5243300000000  0.4863630000000 1.0
C      1  0.4329600000000  0.5079730000000  0.5205700000000 1.0
C      1  0.4222540000000  0.4836830000000  0.5309440000000 1.0
C      1  0.4163070000000  0.4702810000000  0.4935470000000 1.0
C      1  0.4202890000000  0.4997730000000  0.4669150000000 1.0
C      1  0.5117910000000  0.4281740000000  0.5468760000000 1.0
C      1  0.5168290000000  0.4348320000000  0.4505920000000 1.0
C      1  0.5123920000000  0.5290330000000  0.4160920000000 1.0
C      1  0.5143900000000  0.5855730000000  0.5030860000000 1.0
C      1  0.5094100000000  0.5310470000000  0.5865210000000 1.0
C      1  0.4803460000000  0.4836910000000  0.4224890000000 1.0
C      1  0.4806600000000  0.5681820000000  0.4620740000000 1.0
C      1  0.4787140000000  0.5590220000000  0.5526540000000 1.0
C      1  0.4867590000000  0.4688040000000  0.5727600000000 1.0
C      1  0.4790330000000  0.4229270000000  0.4894020000000 1.0
C      1  0.5205610000000  0.5526760000000  0.5395880000000 1.0
C      1  0.5212980000000  0.4836040000000  0.5596370000000 1.0
C      1  0.5174210000000  0.4309870000000  0.4990980000000 1.0
C      1  0.5184440000000  0.4829850000000  0.4342790000000 1.0
C      1  0.5185420000000  0.5555520000000  0.4604850000000 1.0
C      1  0.5253380000000  0.5838150000000  0.4724200000000 1.0
C      1  0.5291920000000  0.5418180000000  0.5693670000000 1.0
C      1  0.5166550000000  0.4526770000000  0.5688420000000 1.0
C      1  0.5346110000000  0.4184830000000  0.4729710000000 1.0
C      1  0.5190770000000  0.4995160000000  0.4107820000000 1.0
C      1  0.4397500000000  0.5266450000000  0.5410990000000 1.0
C      1  0.4403200000000  0.4675520000000  0.5460320000000 1.0
C      1  0.4360090000000  0.4535480000000  0.4855270000000 1.0
C      1  0.4374090000000  0.5000830000000  0.4458310000000 1.0
C      1  0.4366580000000  0.5460120000000  0.4837740000000 1.0
C      1  0.4919350000000  0.4905080000000  0.4542900000000 1.0
C      1  0.4930540000000  0.5403490000000  0.4773760000000 1.0
C      1  0.4924600000000  0.5347620000000  0.5323470000000 1.0
C      1  0.4964330000000  0.4843400000000  0.5373200000000 1.0
C      1  0.4932880000000  0.4542340000000  0.4934100000000 1.0
C      1  0.5320330000000  0.5065510000000  0.4742990000000 1.0
C      1  0.5310500000000  0.5306680000000  0.4980010000000 1.0
C      1  0.5304500000000  0.5108380000000  0.5260740000000 1.0
C      1  0.5308970000000  0.4784320000000  0.5179340000000 1.0
C      1  0.5315660000000  0.4765710000000  0.4903680000000 1.0
C      1  0.4566980000000  0.4431430000000  0.5047480000000 1.0
C      1  0.4559310000000  0.4766240000000  0.4438490000000 1.0
C      1  0.4567750000000  0.5445700000000  0.4611820000000 1.0
C      1  0.4555260000000  0.5499340000000  0.5311350000000 1.0
C      1  0.4605910000000  0.4851430000000  0.5612640000000 1.0
C      1  0.4422100000000  0.4517700000000  0.4588860000000 1.0
C      1  0.4461200000000  0.5248690000000  0.4380540000000 1.0
C      1  0.4424880000000  0.5622400000000  0.5048630000000 1.0
C      1  0.4454580000000  0.5141230000000  0.5650920000000 1.0
C      1  0.4462930000000  0.4433940000000  0.5349060000000 1.0
C      1  0.4816010000000  0.5300830000000  0.5703540000000 1.0
C      1  0.4840480000000  0.4465500000000  0.5471360000000 1.0
C      1  0.4856470000000  0.4355790000000  0.4590170000000 1.0
C      1  0.4833670000000  0.5174290000000  0.4263270000000 1.0
C      1  0.4846850000000  0.5750510000000  0.4951840000000 1.0
C      1  0.4974610000000  0.4564630000000  0.4342580000000 1.0
C      1  0.4946540000000  0.5479060000000  0.4381820000000 1.0
C      1  0.4966300000000  0.5740220000000  0.5278080000000 1.0
C      1  0.4981710000000  0.5005840000000  0.5780200000000 1.0
C      1  0.4919410000000  0.4253620000000  0.5209110000000 1.0
C      1  0.5633970000000  0.4625100000000  0.4589330000000 1.0
C      1  0.5609310000000  0.5130280000000  0.4474650000000 1.0
C      1  0.5642700000000  0.5686220000000  0.5064870000000 1.0
C      1  0.5667840000000  0.5096000000000  0.5627930000000 1.0
C      1  0.5584130000000  0.4367540000000  0.5306560000000 1.0
C      1  0.5873900000000  0.5122100000000  0.4649820000000 1.0
C      1  0.5856710000000  0.5528240000000  0.4935950000000 1.0
C      1  0.5912700000000  0.5136910000000  0.5441690000000 1.0
C      1  0.5841040000000  0.4533290000000  0.5291470000000 1.0
C      1  0.5829920000000  0.4658610000000  0.4790270000000 1.0
C      1  0.5872410000000  0.5027760000000  0.5126700000000 1.0
C      1  0.4796940000000  0.5057800000000  0.4979140000000 1.0
C      1  0.3996370000000  0.4982960000000  0.4936220000000 1.0
C      1  0.3752810000000  0.5006930000000  0.5053990000000 1.0
C      1  0.4527750000000  0.5056940000000  0.5002790000000 1.0
C      1  0.5048070000000  0.5100510000000  0.5035200000000 1.0
END
