TITL C-2782237-5345-213 -0.00162357896909126 125000 -1132.12716389576 0 0 195 (C1) n - 1
REM
REM in /home/nfs/bkarasulu/CARBON/AIRSS/Generating-Clusters/REBO/Higher-Symm/SD-CG/HFTN-CG
REM
REM
REM
REM
REM
REM ./C.cell (12c818d87b63d06a65506943cc24bca4)
REM
REM compiler GCC version 9.2.1 20190827 (Red Hat 9.2.1-1)
REM options -cpp -mtune=generic -march=x86-64 -g -O0 -fpre-include=/usr/include/finclude/math-vector-fortran.h
REM seed -983894746 1312825074 -414994727 366349834 1169724781 -1926976691 -490316017 -307198383 1953772574 -318841861 1039931383 -456591591 790101653 1978581233 -1378841750 -751852564 -1574740061 -2001847324 -614343251 -1394136755 1962556216 -1593971569 2000405922 -1795727562 -582517547 497271169 895341860 433926242 1065104582 -669744934 -1782514492 194656443 812011882
REM
CELL 1.54180   50.00000   50.00000   50.00000   90.00000   90.00000   90.00000
LATT -1
SFAC C  
C      1  0.5359960000000  0.4636610000000  0.3981630000000 1.0
C      1  0.5402420000000  0.6130090000000  0.5066320000000 1.0
C      1  0.5359800000000  0.4342300000000  0.5907160000000 1.0
C      1  0.4642900000000  0.4551250000000  0.3997950000000 1.0
C      1  0.4680250000000  0.6093050000000  0.5091670000000 1.0
C      1  0.4664010000000  0.4358890000000  0.5908510000000 1.0
C      1  0.4479170000000  0.5513100000000  0.5739930000000 1.0
C      1  0.4368440000000  0.4118570000000  0.5110770000000 1.0
C      1  0.4402250000000  0.5299230000000  0.4192840000000 1.0
C      1  0.5622730000000  0.5550360000000  0.5734850000000 1.0
C      1  0.5608370000000  0.4193370000000  0.5112580000000 1.0
C      1  0.5632190000000  0.5343230000000  0.4201870000000 1.0
C      1  0.5915580000000  0.4477490000000  0.4687110000000 1.0
C      1  0.5898850000000  0.5402350000000  0.4633730000000 1.0
C      1  0.5746860000000  0.5145720000000  0.5430420000000 1.0
C      1  0.4024180000000  0.4368560000000  0.4767570000000 1.0
C      1  0.4211580000000  0.5362490000000  0.4656610000000 1.0
C      1  0.4100890000000  0.5011110000000  0.5578330000000 1.0
C      1  0.5163790000000  0.5159280000000  0.3918210000000 1.0
C      1  0.5145130000000  0.5884380000000  0.5591830000000 1.0
C      1  0.5142750000000  0.4016500000000  0.5407430000000 1.0
C      1  0.4847990000000  0.5095470000000  0.3896370000000 1.0
C      1  0.4851770000000  0.5843120000000  0.5587770000000 1.0
C      1  0.4815470000000  0.4030330000000  0.5439950000000 1.0
C      1  0.5571910000000  0.6003560000000  0.4882530000000 1.0
C      1  0.5560060000000  0.4538940000000  0.5905010000000 1.0
C      1  0.5584190000000  0.4517370000000  0.4098250000000 1.0
C      1  0.4512820000000  0.6041630000000  0.4850710000000 1.0
C      1  0.4443760000000  0.4533070000000  0.5940060000000 1.0
C      1  0.4424480000000  0.4453440000000  0.4142480000000 1.0
C      1  0.3763840000000  0.4783110000000  0.5027200000000 1.0
C      1  0.3775480000000  0.5043530000000  0.4808750000000 1.0
C      1  0.3807970000000  0.5102390000000  0.5145120000000 1.0
C      1  0.6222480000000  0.4811190000000  0.5027270000000 1.0
C      1  0.6249250000000  0.5091090000000  0.4832600000000 1.0
C      1  0.6213200000000  0.5119220000000  0.5171060000000 1.0
C      1  0.4507570000000  0.4552120000000  0.4920100000000 1.0
C      1  0.4597490000000  0.5266160000000  0.4652100000000 1.0
C      1  0.4537980000000  0.5216810000000  0.5461460000000 1.0
C      1  0.5440530000000  0.4508180000000  0.4928210000000 1.0
C      1  0.5412140000000  0.5256440000000  0.4659680000000 1.0
C      1  0.5351890000000  0.5195180000000  0.5457640000000 1.0
C      1  0.4200170000000  0.4467960000000  0.5028900000000 1.0
C      1  0.4337120000000  0.5147030000000  0.4475190000000 1.0
C      1  0.4251070000000  0.5292120000000  0.5609270000000 1.0
C      1  0.5774480000000  0.4528280000000  0.4966450000000 1.0
C      1  0.5718020000000  0.5169700000000  0.4550960000000 1.0
C      1  0.5693190000000  0.5433110000000  0.5431050000000 1.0
C      1  0.4278750000000  0.4841430000000  0.4726480000000 1.0
C      1  0.4251220000000  0.5221460000000  0.5028240000000 1.0
C      1  0.4252710000000  0.4936170000000  0.5114060000000 1.0
C      1  0.5742920000000  0.4896090000000  0.4814930000000 1.0
C      1  0.5746580000000  0.5321770000000  0.5051100000000 1.0
C      1  0.5636480000000  0.4943890000000  0.5104070000000 1.0
C      1  0.6027670000000  0.4766200000000  0.4771370000000 1.0
C      1  0.6042340000000  0.5333870000000  0.4881930000000 1.0
C      1  0.5932310000000  0.4972320000000  0.5248770000000 1.0
C      1  0.3974950000000  0.4697980000000  0.4792910000000 1.0
C      1  0.3977800000000  0.5289080000000  0.4836750000000 1.0
C      1  0.4011470000000  0.4907550000000  0.5311370000000 1.0
C      1  0.4839670000000  0.4923380000000  0.5142800000000 1.0
C      1  0.4848550000000  0.4791350000000  0.4827520000000 1.0
C      1  0.4865320000000  0.5255890000000  0.5060410000000 1.0
C      1  0.5157060000000  0.4830920000000  0.5240020000000 1.0
C      1  0.5175340000000  0.4808040000000  0.4899930000000 1.0
C      1  0.5196770000000  0.5308550000000  0.4992010000000 1.0
C      1  0.5731790000000  0.4522140000000  0.4335850000000 1.0
C      1  0.5729280000000  0.5774000000000  0.4875400000000 1.0
C      1  0.5714070000000  0.4726870000000  0.5765770000000 1.0
C      1  0.4234450000000  0.4489030000000  0.4340670000000 1.0
C      1  0.4331560000000  0.5836360000000  0.4841050000000 1.0
C      1  0.4274870000000  0.4708740000000  0.5802040000000 1.0
C      1  0.5204000000000  0.6286840000000  0.4944900000000 1.0
C      1  0.5164440000000  0.4375380000000  0.6099330000000 1.0
C      1  0.5153730000000  0.4451750000000  0.3963480000000 1.0
C      1  0.4936420000000  0.6194960000000  0.5014680000000 1.0
C      1  0.4858220000000  0.4397550000000  0.6104720000000 1.0
C      1  0.4852280000000  0.4368300000000  0.3970300000000 1.0
C      1  0.5948140000000  0.4620640000000  0.5642830000000 1.0
C      1  0.5982620000000  0.4655180000000  0.4296420000000 1.0
C      1  0.5960570000000  0.5800810000000  0.5039110000000 1.0
C      1  0.4032060000000  0.4592340000000  0.5713040000000 1.0
C      1  0.3994720000000  0.4619140000000  0.4253670000000 1.0
C      1  0.4115240000000  0.5848750000000  0.5006750000000 1.0
C      1  0.5181460000000  0.5563550000000  0.4763930000000 1.0
C      1  0.5172860000000  0.4857290000000  0.5581120000000 1.0
C      1  0.5128600000000  0.4546200000000  0.4683550000000 1.0
C      1  0.4866350000000  0.5504800000000  0.4817320000000 1.0
C      1  0.4849820000000  0.4880630000000  0.5491330000000 1.0
C      1  0.4804080000000  0.4499920000000  0.4657610000000 1.0
C      1  0.4524060000000  0.5279120000000  0.5141780000000 1.0
C      1  0.4517540000000  0.4800460000000  0.5120210000000 1.0
C      1  0.4563540000000  0.4959660000000  0.4746110000000 1.0
C      1  0.5443360000000  0.5205020000000  0.5152220000000 1.0
C      1  0.5455490000000  0.4717640000000  0.5168810000000 1.0
C      1  0.5439870000000  0.4959530000000  0.4756670000000 1.0
C      1  0.3982540000000  0.5390850000000  0.5152530000000 1.0
C      1  0.3967890000000  0.4599440000000  0.5217350000000 1.0
C      1  0.3995310000000  0.4960840000000  0.4581000000000 1.0
C      1  0.6027060000000  0.5382970000000  0.5215730000000 1.0
C      1  0.5966420000000  0.4652380000000  0.5161800000000 1.0
C      1  0.6033160000000  0.5031760000000  0.4580460000000 1.0
C      1  0.5149900000000  0.4415670000000  0.5408380000000 1.0
C      1  0.5128910000000  0.4952840000000  0.4342670000000 1.0
C      1  0.5176910000000  0.5658130000000  0.5266210000000 1.0
C      1  0.4865470000000  0.4419950000000  0.5372750000000 1.0
C      1  0.4835820000000  0.4895640000000  0.4329370000000 1.0
C      1  0.4890690000000  0.5619360000000  0.5259670000000 1.0
C      1  0.4810320000000  0.5605030000000  0.4514950000000 1.0
C      1  0.4829450000000  0.5047890000000  0.5783270000000 1.0
C      1  0.4751180000000  0.4208600000000  0.4721510000000 1.0
C      1  0.5236470000000  0.5650650000000  0.4479070000000 1.0
C      1  0.5228800000000  0.5093660000000  0.5822970000000 1.0
C      1  0.5217850000000  0.4245430000000  0.4728180000000 1.0
C      1  0.5512500000000  0.5895190000000  0.4332140000000 1.0
C      1  0.5497040000000  0.5102490000000  0.6117830000000 1.0
C      1  0.5457040000000  0.3967750000000  0.4577590000000 1.0
C      1  0.4649610000000  0.5856020000000  0.4253080000000 1.0
C      1  0.4652710000000  0.5147100000000  0.6125990000000 1.0
C      1  0.4537530000000  0.3896750000000  0.4599850000000 1.0
C      1  0.5370390000000  0.5667900000000  0.5015100000000 1.0
C      1  0.5438630000000  0.4681290000000  0.5480420000000 1.0
C      1  0.5312030000000  0.4770460000000  0.4527220000000 1.0
C      1  0.4624490000000  0.5575110000000  0.5050710000000 1.0
C      1  0.4575230000000  0.4728500000000  0.5416820000000 1.0
C      1  0.4627860000000  0.4732140000000  0.4502690000000 1.0
C      1  0.4440200000000  0.5549970000000  0.4763270000000 1.0
C      1  0.4424120000000  0.4933180000000  0.5612110000000 1.0
C      1  0.4301990000000  0.4519970000000  0.4647360000000 1.0
C      1  0.5564350000000  0.5478290000000  0.4838920000000 1.0
C      1  0.5554930000000  0.4967720000000  0.5608390000000 1.0
C      1  0.5594830000000  0.4477080000000  0.4624150000000 1.0
C      1  0.5791980000000  0.5087520000000  0.4168950000000 1.0
C      1  0.5814580000000  0.5738570000000  0.5525270000000 1.0
C      1  0.5723620000000  0.4300080000000  0.5355610000000 1.0
C      1  0.4176100000000  0.5053690000000  0.4126170000000 1.0
C      1  0.4250400000000  0.5613310000000  0.5523890000000 1.0
C      1  0.4239000000000  0.4326860000000  0.5323690000000 1.0
C      1  0.4886260000000  0.5934990000000  0.4472960000000 1.0
C      1  0.4896780000000  0.4936660000000  0.6097730000000 1.0
C      1  0.4823490000000  0.3993840000000  0.4466800000000 1.0
C      1  0.5218770000000  0.5989470000000  0.4449850000000 1.0
C      1  0.5227630000000  0.4927850000000  0.6119870000000 1.0
C      1  0.5157440000000  0.4057780000000  0.4450330000000 1.0
C      1  0.4483360000000  0.4444100000000  0.5468450000000 1.0
C      1  0.4444650000000  0.4902880000000  0.4267330000000 1.0
C      1  0.4403310000000  0.5733070000000  0.5258570000000 1.0
C      1  0.5519160000000  0.4395160000000  0.5534500000000 1.0
C      1  0.5524070000000  0.4975530000000  0.4345030000000 1.0
C      1  0.5570430000000  0.5718110000000  0.5286620000000 1.0
C      1  0.4703140000000  0.5234290000000  0.4164780000000 1.0
C      1  0.4729320000000  0.5672130000000  0.5779540000000 1.0
C      1  0.4675700000000  0.4146270000000  0.5152460000000 1.0
C      1  0.5324500000000  0.5305010000000  0.4181850000000 1.0
C      1  0.5317510000000  0.5662030000000  0.5767360000000 1.0
C      1  0.5297500000000  0.4162430000000  0.5140070000000 1.0
C      1  0.4546350000000  0.5576130000000  0.4297020000000 1.0
C      1  0.4555150000000  0.5233020000000  0.5860210000000 1.0
C      1  0.4456550000000  0.4074520000000  0.4825880000000 1.0
C      1  0.5545020000000  0.5597650000000  0.4341450000000 1.0
C      1  0.5477650000000  0.5320920000000  0.5898410000000 1.0
C      1  0.5529470000000  0.4135910000000  0.4817600000000 1.0
C      1  0.4895120000000  0.5539830000000  0.5969660000000 1.0
C      1  0.4857180000000  0.3875670000000  0.5139300000000 1.0
C      1  0.4872890000000  0.5428550000000  0.3971180000000 1.0
C      1  0.5144000000000  0.5448580000000  0.5931560000000 1.0
C      1  0.5177640000000  0.3863210000000  0.5101100000000 1.0
C      1  0.5188270000000  0.5499630000000  0.3958300000000 1.0
C      1  0.4072230000000  0.5649650000000  0.5250800000000 1.0
C      1  0.3983610000000  0.4440910000000  0.5491280000000 1.0
C      1  0.3980580000000  0.4902630000000  0.4289100000000 1.0
C      1  0.6011830000000  0.5672990000000  0.5277390000000 1.0
C      1  0.5949390000000  0.4476300000000  0.5397090000000 1.0
C      1  0.6007540000000  0.4940900000000  0.4290200000000 1.0
C      1  0.4782570000000  0.6126330000000  0.4706540000000 1.0
C      1  0.4817940000000  0.4663520000000  0.6263900000000 1.0
C      1  0.4865730000000  0.4132280000000  0.4188380000000 1.0
C      1  0.5110040000000  0.6205970000000  0.4659410000000 1.0
C      1  0.5135920000000  0.4650410000000  0.6237300000000 1.0
C      1  0.5158020000000  0.4253980000000  0.4194530000000 1.0
C      1  0.5279780000000  0.4211710000000  0.5634540000000 1.0
C      1  0.5315280000000  0.4918800000000  0.4079850000000 1.0
C      1  0.5328370000000  0.5956140000000  0.5313550000000 1.0
C      1  0.4694690000000  0.4270490000000  0.5622680000000 1.0
C      1  0.4696990000000  0.4852960000000  0.4044170000000 1.0
C      1  0.4680820000000  0.5877900000000  0.5305590000000 1.0
C      1  0.5184270000000  0.5255540000000  0.4456500000000 1.0
C      1  0.5304770000000  0.5503580000000  0.5492770000000 1.0
C      1  0.5135630000000  0.4438940000000  0.5067920000000 1.0
C      1  0.4846820000000  0.5213040000000  0.4451050000000 1.0
C      1  0.4827430000000  0.5336940000000  0.5395950000000 1.0
C      1  0.4793420000000  0.4430140000000  0.5050920000000 1.0
C      1  0.5032240000000  0.5226690000000  0.5579120000000 1.0
C      1  0.5021740000000  0.5558340000000  0.4251870000000 1.0
C      1  0.4996630000000  0.4062690000000  0.4887900000000 1.0
END
