TITL C-2782240-8521-399 0.00162404962004288 125000 -298.120355457937 0 0 53 (C1) n - 1
REM
REM in /home/nfs/bkarasulu/CARBON/AIRSS/Generating-Clusters/REBO/Higher-Symm/SD-CG/HFTN-CG
REM
REM
REM
REM
REM
REM ./C.cell (12c818d87b63d06a65506943cc24bca4)
REM
REM compiler GCC version 9.2.1 20190827 (Red Hat 9.2.1-1)
REM options -cpp -mtune=generic -march=x86-64 -g -O0 -fpre-include=/usr/include/finclude/math-vector-fortran.h
REM seed 1479792044 2144711430 1985761551 2099279605 -1325864260 -1981014448 -1126154060 698152951 2041964757 414204434 -1663676605 1116119163 1502660317 -1648540153 1350678425 194904201 -197002594 1278603030 203475029 -1603376792 736460981 -259935498 -1797268777 1778208102 650325180 1267073966 2053970276 976300991 -579465249 -606600056 -268257482 -1744164006 -1136895616
REM
CELL 1.54180   50.00000   50.00000   50.00000   90.00000   90.00000   90.00000
LATT -1
SFAC C  
C      1  0.4800040000000  0.4541970000000  0.4609030000000 1.0
C      1  0.5172800000000  0.5511360000000  0.5352570000000 1.0
C      1  0.5468490000000  0.4962340000000  0.5251010000000 1.0
C      1  0.4461880000000  0.5056920000000  0.4760840000000 1.0
C      1  0.4381730000000  0.5427520000000  0.5216080000000 1.0
C      1  0.5607550000000  0.4627270000000  0.4787600000000 1.0
C      1  0.5254410000000  0.4812510000000  0.4770990000000 1.0
C      1  0.4734290000000  0.5243250000000  0.5186340000000 1.0
C      1  0.4808770000000  0.4934280000000  0.5595480000000 1.0
C      1  0.5243590000000  0.5163750000000  0.4398170000000 1.0
C      1  0.5034720000000  0.4685500000000  0.4996340000000 1.0
C      1  0.5037500000000  0.5303230000000  0.5038990000000 1.0
C      1  0.5343590000000  0.5085080000000  0.4685410000000 1.0
C      1  0.4677990000000  0.4965490000000  0.5298980000000 1.0
C      1  0.5321900000000  0.4459030000000  0.5224650000000 1.0
C      1  0.4713190000000  0.5507960000000  0.4734170000000 1.0
C      1  0.5071240000000  0.4459020000000  0.4769720000000 1.0
C      1  0.4914050000000  0.5596800000000  0.5160650000000 1.0
C      1  0.4748270000000  0.4704300000000  0.5117570000000 1.0
C      1  0.5271330000000  0.5339540000000  0.4869490000000 1.0
C      1  0.4786210000000  0.4240790000000  0.5246260000000 1.0
C      1  0.5255010000000  0.5690550000000  0.4680040000000 1.0
C      1  0.5077930000000  0.4941650000000  0.5395450000000 1.0
C      1  0.4846600000000  0.5006750000000  0.4853190000000 1.0
C      1  0.4857340000000  0.5422910000000  0.5447500000000 1.0
C      1  0.5103460000000  0.4660680000000  0.4504440000000 1.0
C      1  0.4640980000000  0.4406090000000  0.5063040000000 1.0
C      1  0.5411500000000  0.5631470000000  0.4927810000000 1.0
C      1  0.4919850000000  0.4391240000000  0.5508480000000 1.0
C      1  0.5143130000000  0.5486000000000  0.4431600000000 1.0
C      1  0.4685990000000  0.5236820000000  0.5647900000000 1.0
C      1  0.5333870000000  0.4843490000000  0.4367200000000 1.0
C      1  0.4423290000000  0.5037690000000  0.5632980000000 1.0
C      1  0.5616960000000  0.5022920000000  0.4379580000000 1.0
C      1  0.4403090000000  0.4813720000000  0.5172400000000 1.0
C      1  0.5611040000000  0.5203230000000  0.4855530000000 1.0
C      1  0.4458790000000  0.5391260000000  0.5450180000000 1.0
C      1  0.5552930000000  0.4667100000000  0.4548080000000 1.0
C      1  0.5530570000000  0.5213710000000  0.5153650000000 1.0
C      1  0.4432900000000  0.4800510000000  0.4867160000000 1.0
C      1  0.4317510000000  0.4896960000000  0.5457820000000 1.0
C      1  0.5723150000000  0.5140720000000  0.4572790000000 1.0
C      1  0.4726810000000  0.5201820000000  0.4620420000000 1.0
C      1  0.5318850000000  0.4717380000000  0.5430770000000 1.0
C      1  0.4575250000000  0.4556020000000  0.4790940000000 1.0
C      1  0.5419080000000  0.5480020000000  0.5211450000000 1.0
C      1  0.5111610000000  0.4280600000000  0.5275070000000 1.0
C      1  0.4938380000000  0.5650750000000  0.4648350000000 1.0
C      1  0.4532540000000  0.5330110000000  0.4943930000000 1.0
C      1  0.5429310000000  0.4706360000000  0.5046650000000 1.0
C      1  0.5019510000000  0.4666710000000  0.5590290000000 1.0
C      1  0.4919760000000  0.5232400000000  0.4389130000000 1.0
C      1  0.5029940000000  0.4988040000000  0.5111240000000 1.0
END
