TITL C-2782229-3092-4 -0.00426314143635467 125000 -826.062946068851 0 0 144 (C1) n - 1
REM
REM in /home/nfs/bkarasulu/CARBON/AIRSS/Generating-Clusters/REBO/Higher-Symm/SD-CG/HFTN-CG
REM
REM
REM
REM
REM
REM ./C.cell (12c818d87b63d06a65506943cc24bca4)
REM
REM compiler GCC version 9.2.1 20190827 (Red Hat 9.2.1-1)
REM options -cpp -mtune=generic -march=x86-64 -g -O0 -fpre-include=/usr/include/finclude/math-vector-fortran.h
REM seed 653869109 -510908137 279791535 1659609455 -890875352 -756810715 287310228 1574666166 -1676056652 -1669263880 -1910587968 254359686 1027110976 588971047 -1812964845 -1922944679 670747419 1559910572 737162654 -1929300581 1329474047 1954893606 1203970323 -2128964590 -1737970870 -144610500 -94891978 1872606280 177944107 539504420 136516962 -450715315 -470468550
REM
CELL 1.54180   50.00000   50.00000   50.00000   90.00000   90.00000   90.00000
LATT -1
SFAC C  
C      1  0.4330190000000  0.4730610000000  0.4707430000000 1.0
C      1  0.5400470000000  0.4756470000000  0.4889150000000 1.0
C      1  0.4397290000000  0.5548140000000  0.5619830000000 1.0
C      1  0.5466090000000  0.5597490000000  0.4239420000000 1.0
C      1  0.4347750000000  0.5639780000000  0.5024680000000 1.0
C      1  0.5418780000000  0.5825880000000  0.5393900000000 1.0
C      1  0.4697360000000  0.4373480000000  0.5159860000000 1.0
C      1  0.4631000000000  0.5625260000000  0.4876380000000 1.0
C      1  0.4839970000000  0.5807440000000  0.5579250000000 1.0
C      1  0.4756660000000  0.4194970000000  0.4662610000000 1.0
C      1  0.5390710000000  0.4476960000000  0.4476200000000 1.0
C      1  0.4698050000000  0.5581380000000  0.5710570000000 1.0
C      1  0.4895430000000  0.4909380000000  0.4808700000000 1.0
C      1  0.4689210000000  0.4693970000000  0.5275270000000 1.0
C      1  0.5385380000000  0.4566240000000  0.4159960000000 1.0
C      1  0.4233700000000  0.5135620000000  0.4457940000000 1.0
C      1  0.5133000000000  0.4759070000000  0.5511100000000 1.0
C      1  0.4868690000000  0.5115870000000  0.3813950000000 1.0
C      1  0.3834230000000  0.4890590000000  0.5313470000000 1.0
C      1  0.4448850000000  0.5641670000000  0.4489620000000 1.0
C      1  0.4880560000000  0.4240690000000  0.5488820000000 1.0
C      1  0.4342770000000  0.4571070000000  0.5464500000000 1.0
C      1  0.5363780000000  0.5318850000000  0.5174050000000 1.0
C      1  0.5754250000000  0.5165710000000  0.4795050000000 1.0
C      1  0.5113440000000  0.4438960000000  0.5570920000000 1.0
C      1  0.4408110000000  0.5724060000000  0.5324830000000 1.0
C      1  0.4896410000000  0.5151830000000  0.6115000000000 1.0
C      1  0.5164780000000  0.5318320000000  0.5691370000000 1.0
C      1  0.5194030000000  0.3951220000000  0.4711830000000 1.0
C      1  0.4283360000000  0.4682220000000  0.5210570000000 1.0
C      1  0.5628140000000  0.5557260000000  0.5376850000000 1.0
C      1  0.4283980000000  0.5562420000000  0.4691070000000 1.0
C      1  0.5722240000000  0.5565060000000  0.4850610000000 1.0
C      1  0.4730440000000  0.5828290000000  0.4706910000000 1.0
C      1  0.5267320000000  0.4865750000000  0.5913510000000 1.0
C      1  0.4318760000000  0.5395600000000  0.5340130000000 1.0
C      1  0.5842870000000  0.5102330000000  0.5546690000000 1.0
C      1  0.4094040000000  0.4942920000000  0.5220960000000 1.0
C      1  0.5887570000000  0.5345000000000  0.5388230000000 1.0
C      1  0.5884460000000  0.4818740000000  0.5487750000000 1.0
C      1  0.5466730000000  0.5387030000000  0.5624210000000 1.0
C      1  0.4559990000000  0.4511110000000  0.5764240000000 1.0
C      1  0.5193040000000  0.4524320000000  0.5022070000000 1.0
C      1  0.4461450000000  0.5102280000000  0.4182660000000 1.0
C      1  0.5383380000000  0.5060890000000  0.5379770000000 1.0
C      1  0.4935040000000  0.5237880000000  0.4394480000000 1.0
C      1  0.4975110000000  0.5334580000000  0.4695170000000 1.0
C      1  0.4678710000000  0.5871910000000  0.5309780000000 1.0
C      1  0.5682100000000  0.4300730000000  0.5336570000000 1.0
C      1  0.4903610000000  0.4393650000000  0.4350040000000 1.0
C      1  0.5136800000000  0.5085130000000  0.5071610000000 1.0
C      1  0.4558090000000  0.5419790000000  0.4256600000000 1.0
C      1  0.5709800000000  0.5432630000000  0.4314660000000 1.0
C      1  0.4327760000000  0.4804460000000  0.4099670000000 1.0
C      1  0.5126170000000  0.5305090000000  0.4052690000000 1.0
C      1  0.4868780000000  0.4669470000000  0.4628640000000 1.0
C      1  0.5450140000000  0.4679870000000  0.5285180000000 1.0
C      1  0.5815440000000  0.5014070000000  0.4532080000000 1.0
C      1  0.5646260000000  0.4581130000000  0.5537260000000 1.0
C      1  0.4104700000000  0.4940640000000  0.4243450000000 1.0
C      1  0.5246110000000  0.5602880000000  0.4448130000000 1.0
C      1  0.5338250000000  0.4187670000000  0.4535350000000 1.0
C      1  0.5769690000000  0.4218780000000  0.5013150000000 1.0
C      1  0.4545580000000  0.5314880000000  0.5143280000000 1.0
C      1  0.5564700000000  0.4943360000000  0.5115670000000 1.0
C      1  0.5836080000000  0.4734660000000  0.4578970000000 1.0
C      1  0.4683430000000  0.5288120000000  0.5517720000000 1.0
C      1  0.5136950000000  0.4130480000000  0.5323730000000 1.0
C      1  0.4770490000000  0.3995440000000  0.4911650000000 1.0
C      1  0.5547470000000  0.5653640000000  0.5058840000000 1.0
C      1  0.5193870000000  0.4710360000000  0.4033670000000 1.0
C      1  0.4860330000000  0.6032670000000  0.5086120000000 1.0
C      1  0.4267930000000  0.5018800000000  0.4749230000000 1.0
C      1  0.4871860000000  0.5490830000000  0.4182120000000 1.0
C      1  0.5062670000000  0.5186530000000  0.5395050000000 1.0
C      1  0.4743690000000  0.5036900000000  0.4563540000000 1.0
C      1  0.5106400000000  0.4658320000000  0.4429040000000 1.0
C      1  0.4801750000000  0.4674870000000  0.5886770000000 1.0
C      1  0.4104470000000  0.5146550000000  0.4980670000000 1.0
C      1  0.4627180000000  0.5210450000000  0.5836210000000 1.0
C      1  0.5414510000000  0.4889820000000  0.5652200000000 1.0
C      1  0.5725510000000  0.4579370000000  0.5145860000000 1.0
C      1  0.4567540000000  0.4703920000000  0.4502630000000 1.0
C      1  0.5460980000000  0.5231200000000  0.4859910000000 1.0
C      1  0.5471930000000  0.4383230000000  0.5013740000000 1.0
C      1  0.6055670000000  0.4785300000000  0.5231100000000 1.0
C      1  0.4364070000000  0.4224280000000  0.4649980000000 1.0
C      1  0.5086710000000  0.5906660000000  0.4864890000000 1.0
C      1  0.5952960000000  0.5400710000000  0.4920190000000 1.0
C      1  0.5015250000000  0.3873170000000  0.4919850000000 1.0
C      1  0.5561020000000  0.4602090000000  0.4682810000000 1.0
C      1  0.4641390000000  0.4484600000000  0.4757460000000 1.0
C      1  0.4161590000000  0.4457300000000  0.4732450000000 1.0
C      1  0.5568590000000  0.5044860000000  0.4087840000000 1.0
C      1  0.5156610000000  0.5114230000000  0.5963800000000 1.0
C      1  0.4986470000000  0.4881290000000  0.3987470000000 1.0
C      1  0.4288210000000  0.5083850000000  0.5413570000000 1.0
C      1  0.4574140000000  0.4319390000000  0.4399700000000 1.0
C      1  0.4702950000000  0.5372980000000  0.4775820000000 1.0
C      1  0.4182080000000  0.4295370000000  0.4991230000000 1.0
C      1  0.5119950000000  0.4610040000000  0.5927480000000 1.0
C      1  0.5230770000000  0.4977260000000  0.4435920000000 1.0
C      1  0.5752250000000  0.5149570000000  0.4283920000000 1.0
C      1  0.5846580000000  0.4461820000000  0.4784790000000 1.0
C      1  0.4318890000000  0.5227850000000  0.5706940000000 1.0
C      1  0.4592050000000  0.4965700000000  0.5460050000000 1.0
C      1  0.5165340000000  0.5929040000000  0.5198210000000 1.0
C      1  0.5212440000000  0.5417840000000  0.4819050000000 1.0
C      1  0.5036040000000  0.5783560000000  0.4561000000000 1.0
C      1  0.4598290000000  0.4362510000000  0.5478840000000 1.0
C      1  0.5125410000000  0.5766250000000  0.5558690000000 1.0
C      1  0.5867040000000  0.5000650000000  0.5052810000000 1.0
C      1  0.6197370000000  0.5061320000000  0.5139650000000 1.0
C      1  0.6037510000000  0.4531330000000  0.5045720000000 1.0
C      1  0.5199560000000  0.4971380000000  0.4762600000000 1.0
C      1  0.4496940000000  0.4178730000000  0.4965240000000 1.0
C      1  0.5609300000000  0.5140350000000  0.5696520000000 1.0
C      1  0.5236960000000  0.5551660000000  0.5304720000000 1.0
C      1  0.4897960000000  0.5401340000000  0.5879660000000 1.0
C      1  0.5288580000000  0.5095940000000  0.4137050000000 1.0
C      1  0.5024370000000  0.4128920000000  0.4484650000000 1.0
C      1  0.5400750000000  0.4271530000000  0.5485620000000 1.0
C      1  0.5364290000000  0.5290660000000  0.4474930000000 1.0
C      1  0.4705510000000  0.4894020000000  0.5031290000000 1.0
C      1  0.5150490000000  0.4794330000000  0.5197860000000 1.0
C      1  0.4778870000000  0.5102920000000  0.4142290000000 1.0
C      1  0.4825800000000  0.4754700000000  0.5576970000000 1.0
C      1  0.5600230000000  0.5501270000000  0.4602470000000 1.0
C      1  0.4998680000000  0.4311780000000  0.5114690000000 1.0
C      1  0.4463090000000  0.4591150000000  0.4230590000000 1.0
C      1  0.5287450000000  0.5666890000000  0.4926630000000 1.0
C      1  0.4517600000000  0.5253820000000  0.4546620000000 1.0
C      1  0.3827000000000  0.5564270000000  0.4978970000000 1.0
C      1  0.4663310000000  0.4934290000000  0.6020470000000 1.0
C      1  0.4079940000000  0.5455070000000  0.4941860000000 1.0
C      1  0.4301700000000  0.4696810000000  0.5757650000000 1.0
C      1  0.4498440000000  0.5088570000000  0.4986820000000 1.0
C      1  0.4347800000000  0.4942280000000  0.5891000000000 1.0
C      1  0.4838060000000  0.5379360000000  0.5250950000000 1.0
C      1  0.6065630000000  0.5327960000000  0.5166820000000 1.0
C      1  0.5389540000000  0.4497550000000  0.5746350000000 1.0
C      1  0.4426210000000  0.4611470000000  0.4988530000000 1.0
C      1  0.4754780000000  0.5743930000000  0.4377670000000 1.0
C      1  0.4936920000000  0.5669300000000  0.5218250000000 1.0
END
