TITL C-2782230-7391-1142 -0.00311098160569097 125000 -321.270322088437 0 0 59 (C1) n - 1
REM
REM in /home/nfs/bkarasulu/CARBON/AIRSS/Generating-Clusters/REBO/Higher-Symm/SD-CG/HFTN-CG
REM
REM
REM
REM
REM
REM ./C.cell (12c818d87b63d06a65506943cc24bca4)
REM
REM compiler GCC version 9.2.1 20190827 (Red Hat 9.2.1-1)
REM options -cpp -mtune=generic -march=x86-64 -g -O0 -fpre-include=/usr/include/finclude/math-vector-fortran.h
REM seed -44898872 1278175196 146523333 1842506468 769597455 1995025922 -1438011152 1467766406 -1619454470 908271390 -1688521596 -2040276313 784074893 1049735958 -1270507373 790475817 -91586818 113972105 -927831012 -1603149655 -695766600 1673214905 -1911764294 -931182970 -151160380 1793780696 156627105 -1549956624 610401151 -545191477 -1344150858 304314212 1541481490
REM
CELL 1.54180   50.00000   50.00000   50.00000   90.00000   90.00000   90.00000
LATT -1
SFAC C  
C      1  0.4694270000000  0.5043880000000  0.4342670000000 1.0
C      1  0.5279630000000  0.4974800000000  0.4316770000000 1.0
C      1  0.5234400000000  0.4690370000000  0.4475840000000 1.0
C      1  0.4750270000000  0.5317120000000  0.4518700000000 1.0
C      1  0.5133480000000  0.5696660000000  0.5092390000000 1.0
C      1  0.4900140000000  0.4252740000000  0.5040400000000 1.0
C      1  0.5354870000000  0.4775660000000  0.5406680000000 1.0
C      1  0.4763050000000  0.5073350000000  0.5401740000000 1.0
C      1  0.4809770000000  0.5377520000000  0.5255830000000 1.0
C      1  0.5257880000000  0.4531450000000  0.5201000000000 1.0
C      1  0.5284190000000  0.5278690000000  0.4474080000000 1.0
C      1  0.4704890000000  0.4730410000000  0.4478950000000 1.0
C      1  0.5680340000000  0.4794970000000  0.4725010000000 1.0
C      1  0.4324140000000  0.5187810000000  0.4791500000000 1.0
C      1  0.4555850000000  0.4447570000000  0.5068110000000 1.0
C      1  0.5481220000000  0.5506960000000  0.5070420000000 1.0
C      1  0.5521270000000  0.5198000000000  0.5036780000000 1.0
C      1  0.4522100000000  0.4759380000000  0.5056280000000 1.0
C      1  0.5263960000000  0.5613160000000  0.4831220000000 1.0
C      1  0.4748980000000  0.4361200000000  0.4801580000000 1.0
C      1  0.4965490000000  0.4492530000000  0.5183710000000 1.0
C      1  0.5091360000000  0.5440360000000  0.5214880000000 1.0
C      1  0.5241390000000  0.5207410000000  0.5585420000000 1.0
C      1  0.4812110000000  0.4728500000000  0.5596470000000 1.0
C      1  0.5224410000000  0.5204990000000  0.5115500000000 1.0
C      1  0.4825770000000  0.4736650000000  0.5118480000000 1.0
C      1  0.4700840000000  0.5037800000000  0.4833500000000 1.0
C      1  0.5314990000000  0.4949250000000  0.4803120000000 1.0
C      1  0.4312810000000  0.4973450000000  0.4984260000000 1.0
C      1  0.5714850000000  0.4988230000000  0.4931750000000 1.0
C      1  0.5047450000000  0.5424900000000  0.4647770000000 1.0
C      1  0.4949400000000  0.4565930000000  0.4617260000000 1.0
C      1  0.4523520000000  0.4842950000000  0.5482240000000 1.0
C      1  0.5520610000000  0.5068720000000  0.5459960000000 1.0
C      1  0.4546970000000  0.4877090000000  0.4674870000000 1.0
C      1  0.5458780000000  0.5117920000000  0.4644320000000 1.0
C      1  0.4525180000000  0.5374870000000  0.4710750000000 1.0
C      1  0.5474320000000  0.4619010000000  0.4643940000000 1.0
C      1  0.4618960000000  0.4534740000000  0.5390630000000 1.0
C      1  0.5448360000000  0.5391280000000  0.5385520000000 1.0
C      1  0.4611870000000  0.5221060000000  0.5066750000000 1.0
C      1  0.5408360000000  0.4748730000000  0.5014540000000 1.0
C      1  0.5208100000000  0.4534150000000  0.4840180000000 1.0
C      1  0.4809370000000  0.5430860000000  0.4894270000000 1.0
C      1  0.5633440000000  0.4867920000000  0.5229620000000 1.0
C      1  0.4430390000000  0.5072130000000  0.5284710000000 1.0
C      1  0.5004790000000  0.4999290000000  0.4750990000000 1.0
C      1  0.4869400000000  0.5131250000000  0.6511430000000 1.0
C      1  0.5066410000000  0.4917120000000  0.5381520000000 1.0
C      1  0.4913940000000  0.5085250000000  0.6252940000000 1.0
C      1  0.4961480000000  0.5042530000000  0.3583590000000 1.0
C      1  0.4969750000000  0.5031210000000  0.3849540000000 1.0
C      1  0.4953350000000  0.5053660000000  0.3321880000000 1.0
C      1  0.4977870000000  0.5020090000000  0.4111080000000 1.0
C      1  0.5008610000000  0.4987480000000  0.5703630000000 1.0
C      1  0.4825560000000  0.5176530000000  0.6765810000000 1.0
C      1  0.4992520000000  0.5006600000000  0.4459150000000 1.0
C      1  0.4958090000000  0.5039650000000  0.5996770000000 1.0
C      1  0.5017830000000  0.4975950000000  0.5067070000000 1.0
END
