TITL C-2782228-2999-761 -0.00523553104716013 125000 -764.54823276548 0 0 131 (C1) n - 1
REM
REM in /home/nfs/bkarasulu/CARBON/AIRSS/Generating-Clusters/REBO/Higher-Symm/SD-CG/HFTN-CG
REM
REM
REM
REM
REM
REM ./C.cell (12c818d87b63d06a65506943cc24bca4)
REM
REM compiler GCC version 9.2.1 20190827 (Red Hat 9.2.1-1)
REM options -cpp -mtune=generic -march=x86-64 -g -O0 -fpre-include=/usr/include/finclude/math-vector-fortran.h
REM seed -1741417673 303442040 1824724676 -1771841941 1208706553 680779032 1194399251 -1127056938 376734462 -1925966560 -102034804 429292482 -1915268136 289558252 991168849 446274123 -2052174024 1575889540 467607844 -1211872508 -2072948961 -854245096 598728773 -1699626459 -1779048642 -840463181 -615809771 -1785200767 -1728329175 13909005 2016391953 1203450132 -702045975
REM
CELL 1.54180   50.00000   50.00000   50.00000   90.00000   90.00000   90.00000
LATT -1
SFAC C  
C      1  0.5072000000000  0.5183950000000  0.3981670000000 1.0
C      1  0.5197120000000  0.4461050000000  0.5440060000000 1.0
C      1  0.4526150000000  0.4982330000000  0.4822620000000 1.0
C      1  0.4472330000000  0.4578310000000  0.5726970000000 1.0
C      1  0.4739590000000  0.5461380000000  0.4327920000000 1.0
C      1  0.4263540000000  0.4090150000000  0.5142730000000 1.0
C      1  0.4735530000000  0.4846640000000  0.4218470000000 1.0
C      1  0.5548430000000  0.4274880000000  0.5449650000000 1.0
C      1  0.4702000000000  0.4712520000000  0.4875540000000 1.0
C      1  0.5846170000000  0.4806460000000  0.4904680000000 1.0
C      1  0.5251720000000  0.4164390000000  0.5322260000000 1.0
C      1  0.5593560000000  0.4259860000000  0.5144130000000 1.0
C      1  0.4494790000000  0.5441450000000  0.5565710000000 1.0
C      1  0.5469780000000  0.4694730000000  0.4491960000000 1.0
C      1  0.4151790000000  0.5717890000000  0.4796730000000 1.0
C      1  0.4244430000000  0.4911100000000  0.4741870000000 1.0
C      1  0.5465520000000  0.5121400000000  0.4535270000000 1.0
C      1  0.5492960000000  0.5207310000000  0.4828690000000 1.0
C      1  0.4670140000000  0.5239260000000  0.5734070000000 1.0
C      1  0.4629660000000  0.5684770000000  0.5521380000000 1.0
C      1  0.4961500000000  0.4037110000000  0.4919290000000 1.0
C      1  0.4482880000000  0.5889430000000  0.5366480000000 1.0
C      1  0.4806170000000  0.4286050000000  0.5257360000000 1.0
C      1  0.5706060000000  0.4930040000000  0.4461930000000 1.0
C      1  0.4803820000000  0.4570790000000  0.5680720000000 1.0
C      1  0.5599130000000  0.5514540000000  0.5175760000000 1.0
C      1  0.5541570000000  0.4503670000000  0.5649150000000 1.0
C      1  0.4442500000000  0.4995560000000  0.5280530000000 1.0
C      1  0.4229250000000  0.4160670000000  0.5402560000000 1.0
C      1  0.5316870000000  0.5331520000000  0.5390370000000 1.0
C      1  0.5317010000000  0.4766910000000  0.4195510000000 1.0
C      1  0.4087550000000  0.4940000000000  0.5105500000000 1.0
C      1  0.4264180000000  0.4920660000000  0.4274850000000 1.0
C      1  0.5035880000000  0.5033100000000  0.5066990000000 1.0
C      1  0.4753530000000  0.5908820000000  0.4669320000000 1.0
C      1  0.5108990000000  0.5463010000000  0.5613670000000 1.0
C      1  0.4138870000000  0.5232130000000  0.5175960000000 1.0
C      1  0.5601730000000  0.4467610000000  0.4673240000000 1.0
C      1  0.4744460000000  0.4786930000000  0.4553320000000 1.0
C      1  0.4681400000000  0.4324500000000  0.5504550000000 1.0
C      1  0.5203430000000  0.4983100000000  0.4431530000000 1.0
C      1  0.3927840000000  0.4948120000000  0.4830590000000 1.0
C      1  0.4485430000000  0.4848440000000  0.4110110000000 1.0
C      1  0.4906620000000  0.4540570000000  0.5064940000000 1.0
C      1  0.4657310000000  0.5532690000000  0.4574550000000 1.0
C      1  0.5020970000000  0.4629690000000  0.5877230000000 1.0
C      1  0.6003010000000  0.4962700000000  0.5236380000000 1.0
C      1  0.4403740000000  0.4003520000000  0.4420780000000 1.0
C      1  0.6100830000000  0.4964970000000  0.4944140000000 1.0
C      1  0.4513930000000  0.4198950000000  0.4585940000000 1.0
C      1  0.5054190000000  0.4571370000000  0.4119730000000 1.0
C      1  0.4375930000000  0.4847740000000  0.5742410000000 1.0
C      1  0.5238640000000  0.5866910000000  0.4761140000000 1.0
C      1  0.4266210000000  0.4698030000000  0.5082990000000 1.0
C      1  0.5667550000000  0.5481640000000  0.5507850000000 1.0
C      1  0.4959920000000  0.5922540000000  0.5201550000000 1.0
C      1  0.5487350000000  0.5386370000000  0.4019000000000 1.0
C      1  0.5042390000000  0.5721490000000  0.4336170000000 1.0
C      1  0.4945890000000  0.5146030000000  0.4559760000000 1.0
C      1  0.5554500000000  0.5134850000000  0.5312850000000 1.0
C      1  0.5327650000000  0.5215470000000  0.3872300000000 1.0
C      1  0.4137570000000  0.5402860000000  0.4904420000000 1.0
C      1  0.4237430000000  0.4500410000000  0.4877560000000 1.0
C      1  0.4705320000000  0.5706830000000  0.5131860000000 1.0
C      1  0.4114390000000  0.4552400000000  0.4627250000000 1.0
C      1  0.5072690000000  0.5116030000000  0.5359860000000 1.0
C      1  0.6081570000000  0.5152670000000  0.4717630000000 1.0
C      1  0.5707550000000  0.5264670000000  0.5658600000000 1.0
C      1  0.5016000000000  0.5846810000000  0.4581110000000 1.0
C      1  0.4943790000000  0.5694240000000  0.5452220000000 1.0
C      1  0.4285750000000  0.4962350000000  0.5499020000000 1.0
C      1  0.4961950000000  0.4862460000000  0.6039720000000 1.0
C      1  0.5838190000000  0.4558900000000  0.4776280000000 1.0
C      1  0.5043850000000  0.4327400000000  0.4287260000000 1.0
C      1  0.5975200000000  0.5411510000000  0.4779940000000 1.0
C      1  0.5019980000000  0.4908500000000  0.4085370000000 1.0
C      1  0.5003970000000  0.4075010000000  0.5205550000000 1.0
C      1  0.5683970000000  0.5472760000000  0.4860900000000 1.0
C      1  0.5119710000000  0.5077960000000  0.5931620000000 1.0
C      1  0.5021950000000  0.4692320000000  0.4446550000000 1.0
C      1  0.5230230000000  0.5630030000000  0.5276330000000 1.0
C      1  0.4983620000000  0.5286540000000  0.5797930000000 1.0
C      1  0.5177740000000  0.4131660000000  0.4763440000000 1.0
C      1  0.5434930000000  0.4311430000000  0.4878620000000 1.0
C      1  0.4385620000000  0.4318750000000  0.5571220000000 1.0
C      1  0.5313440000000  0.5439700000000  0.5005500000000 1.0
C      1  0.5350880000000  0.4944330000000  0.5794170000000 1.0
C      1  0.5860510000000  0.5203890000000  0.5294770000000 1.0
C      1  0.5188950000000  0.5992940000000  0.5043450000000 1.0
C      1  0.5740140000000  0.4726990000000  0.5603620000000 1.0
C      1  0.5585560000000  0.4982210000000  0.5009980000000 1.0
C      1  0.4087220000000  0.5204730000000  0.4672980000000 1.0
C      1  0.5323820000000  0.4944710000000  0.5477290000000 1.0
C      1  0.5087570000000  0.4979620000000  0.4811720000000 1.0
C      1  0.4635970000000  0.5113510000000  0.4546150000000 1.0
C      1  0.4119290000000  0.4712100000000  0.4405820000000 1.0
C      1  0.5263540000000  0.4758160000000  0.4754960000000 1.0
C      1  0.4790400000000  0.5426980000000  0.4859960000000 1.0
C      1  0.4991040000000  0.5446250000000  0.4133970000000 1.0
C      1  0.5464850000000  0.5381450000000  0.4357260000000 1.0
C      1  0.4718130000000  0.5401110000000  0.5193420000000 1.0
C      1  0.4326930000000  0.5151100000000  0.4440710000000 1.0
C      1  0.4454720000000  0.5490570000000  0.4910420000000 1.0
C      1  0.4650160000000  0.6042450000000  0.5155680000000 1.0
C      1  0.5530890000000  0.5743730000000  0.4830520000000 1.0
C      1  0.4535290000000  0.5026350000000  0.5895070000000 1.0
C      1  0.5523250000000  0.5765550000000  0.5386400000000 1.0
C      1  0.5578280000000  0.4696820000000  0.5176910000000 1.0
C      1  0.5650340000000  0.4990340000000  0.5708410000000 1.0
C      1  0.4578980000000  0.4730120000000  0.5187940000000 1.0
C      1  0.4692850000000  0.4921550000000  0.6104100000000 1.0
C      1  0.4838350000000  0.4665760000000  0.5374010000000 1.0
C      1  0.5292000000000  0.5600350000000  0.4177910000000 1.0
C      1  0.5983270000000  0.5449330000000  0.5265690000000 1.0
C      1  0.4286680000000  0.5347410000000  0.5393230000000 1.0
C      1  0.4392070000000  0.4228820000000  0.4898000000000 1.0
C      1  0.5097900000000  0.4302340000000  0.5663840000000 1.0
C      1  0.5115320000000  0.4401820000000  0.4591010000000 1.0
C      1  0.4820610000000  0.5253500000000  0.5434830000000 1.0
C      1  0.4467570000000  0.5771590000000  0.4718140000000 1.0
C      1  0.4589250000000  0.4442050000000  0.4464940000000 1.0
C      1  0.5465390000000  0.5891800000000  0.5088250000000 1.0
C      1  0.5086130000000  0.5428310000000  0.4805170000000 1.0
C      1  0.4516270000000  0.5190260000000  0.5050640000000 1.0
C      1  0.4702340000000  0.4100050000000  0.4835740000000 1.0
C      1  0.5957250000000  0.5022620000000  0.4492090000000 1.0
C      1  0.5841370000000  0.4730640000000  0.5325970000000 1.0
C      1  0.5307440000000  0.4618330000000  0.5790540000000 1.0
C      1  0.5172020000000  0.5390710000000  0.4518430000000 1.0
C      1  0.5162100000000  0.4499700000000  0.4913620000000 1.0
C      1  0.5346780000000  0.4674810000000  0.5345120000000 1.0
END
