TITL C-2782240-8521-86 9.10684141701034e-06 125000 -94.0535583462837 0 0 17 (C1) n - 1
REM
REM in /home/nfs/bkarasulu/CARBON/AIRSS/Generating-Clusters/REBO/Higher-Symm/SD-CG/HFTN-CG
REM
REM
REM
REM
REM
REM ./C.cell (12c818d87b63d06a65506943cc24bca4)
REM
REM compiler GCC version 9.2.1 20190827 (Red Hat 9.2.1-1)
REM options -cpp -mtune=generic -march=x86-64 -g -O0 -fpre-include=/usr/include/finclude/math-vector-fortran.h
REM seed -406913029 -218387344 1552445510 -1542281131 1140680561 -37248181 762001769 -1794424174 -533432591 -1642540117 1561658376 -656147889 395330412 63188827 -379916219 -441447744 -716301440 290352776 1912755508 -12068800 478924756 996898509 205622283 -1620340049 -1464254203 1253693902 -2141665174 1065543551 -646763028 -388235466 882674610 -763601882 -508427595
REM
CELL 1.54180   50.00000   50.00000   50.00000   90.00000   90.00000   90.00000
LATT -1
SFAC C  
C      1  0.5346180000000  0.5281180000000  0.5349990000000 1.0
C      1  0.4816110000000  0.4954680000000  0.5065930000000 1.0
C      1  0.4969630000000  0.5538510000000  0.5100860000000 1.0
C      1  0.5437660000000  0.5031280000000  0.5384510000000 1.0
C      1  0.5182890000000  0.5471740000000  0.5252960000000 1.0
C      1  0.4879820000000  0.4707100000000  0.4923720000000 1.0
C      1  0.4699640000000  0.5024080000000  0.4611790000000 1.0
C      1  0.4735170000000  0.5156180000000  0.4869570000000 1.0
C      1  0.4780610000000  0.5424310000000  0.4941710000000 1.0
C      1  0.5455580000000  0.4760070000000  0.5360680000000 1.0
C      1  0.5069180000000  0.4538450000000  0.5041450000000 1.0
C      1  0.4786700000000  0.4747830000000  0.4651280000000 1.0
C      1  0.4852710000000  0.4998420000000  0.5330480000000 1.0
C      1  0.4615800000000  0.5139930000000  0.4374640000000 1.0
C      1  0.4536470000000  0.5249570000000  0.4150210000000 1.0
C      1  0.5546510000000  0.4449110000000  0.5385830000000 1.0
C      1  0.5289340000000  0.4527560000000  0.5204400000000 1.0
END
