TITL C-2782239-8622-891 4.82036271032304e-10 125000 -25.1356698579082 0 0 5 (D(inf)h) n - 1
REM
REM in /home/nfs/bkarasulu/CARBON/AIRSS/Generating-Clusters/REBO/Higher-Symm/SD-CG/HFTN-CG
REM
REM
REM
REM
REM
REM ./C.cell (12c818d87b63d06a65506943cc24bca4)
REM
REM compiler GCC version 9.2.1 20190827 (Red Hat 9.2.1-1)
REM options -cpp -mtune=generic -march=x86-64 -g -O0 -fpre-include=/usr/include/finclude/math-vector-fortran.h
REM seed -1852954509 -1344218625 1992670910 910969577 1832052405 -1015474313 -433870498 774503960 -130825584 -2035383184 1748277971 1650650274 -372596612 -612915685 -978146742 1140441470 1036751568 1872667356 -51955713 940509291 -1888389143 818371704 -793362366 1411476560 695199124 556315552 1287072696 -1868526757 -1930042390 -1477745744 1388653305 -1219406343 535058116
REM
CELL 1.54180   50.00000   50.00000   50.00000   90.00000   90.00000   90.00000
LATT -1
SFAC C  
C      1  0.5003130000000  0.5002460000000  0.4733690000000 1.0
C      1  0.5003130000000  0.5002460000000  0.5266310000000 1.0
C      1  0.5003130000000  0.5002460000000  0.5528380000000 1.0
C      1  0.5003130000000  0.5002460000000  0.5000000000000 1.0
C      1  0.5003130000000  0.5002460000000  0.4471620000000 1.0
END
