TITL C-2782233-7966-1031 -0.000411534960405731 125000 -672.057302823506 0 0 115 (C1) n - 1
REM
REM in /home/nfs/bkarasulu/CARBON/AIRSS/Generating-Clusters/REBO/Higher-Symm/SD-CG/HFTN-CG
REM
REM
REM
REM
REM
REM ./C.cell (12c818d87b63d06a65506943cc24bca4)
REM
REM compiler GCC version 9.2.1 20190827 (Red Hat 9.2.1-1)
REM options -cpp -mtune=generic -march=x86-64 -g -O0 -fpre-include=/usr/include/finclude/math-vector-fortran.h
REM seed -297217077 -529177200 600885066 245532611 1178848071 -164396909 -195941026 -1442364010 1549836370 -1621763772 1228481284 1410933728 699836706 -1096280428 1364236962 1783452796 -184143702 1141325111 691570940 -1724100214 2054860671 -1408638954 -61287967 -1822750488 808783717 -2014881307 454356156 1131699623 1358652698 -722304031 908095347 -404865925 -202573656
REM
CELL 1.54180   50.00000   50.00000   50.00000   90.00000   90.00000   90.00000
LATT -1
SFAC C  
C      1  0.5471660000000  0.5592430000000  0.5005700000000 1.0
C      1  0.4506150000000  0.5266230000000  0.4457830000000 1.0
C      1  0.5500270000000  0.4659640000000  0.4479000000000 1.0
C      1  0.4487290000000  0.4406990000000  0.5054750000000 1.0
C      1  0.5560130000000  0.4696530000000  0.5543630000000 1.0
C      1  0.4528060000000  0.5395990000000  0.5549770000000 1.0
C      1  0.4761640000000  0.5042290000000  0.5386280000000 1.0
C      1  0.5239850000000  0.5275690000000  0.5079130000000 1.0
C      1  0.4825920000000  0.5119530000000  0.4848960000000 1.0
C      1  0.5254850000000  0.4876660000000  0.4707640000000 1.0
C      1  0.4844010000000  0.4655370000000  0.4929000000000 1.0
C      1  0.5244190000000  0.4789700000000  0.5149870000000 1.0
C      1  0.4944200000000  0.5810210000000  0.4981690000000 1.0
C      1  0.4992470000000  0.5368460000000  0.4092030000000 1.0
C      1  0.5035850000000  0.4415380000000  0.4275250000000 1.0
C      1  0.5006590000000  0.4099600000000  0.5135270000000 1.0
C      1  0.5009530000000  0.4671260000000  0.5701780000000 1.0
C      1  0.4971640000000  0.5529530000000  0.5713240000000 1.0
C      1  0.4785660000000  0.4143730000000  0.5395820000000 1.0
C      1  0.5245280000000  0.4806390000000  0.5903810000000 1.0
C      1  0.4784080000000  0.5805280000000  0.5712240000000 1.0
C      1  0.5176300000000  0.5886310000000  0.4737570000000 1.0
C      1  0.4762970000000  0.5145900000000  0.4052860000000 1.0
C      1  0.5262460000000  0.4220890000000  0.4422820000000 1.0
C      1  0.4794410000000  0.4607900000000  0.4250720000000 1.0
C      1  0.5263210000000  0.4119120000000  0.4955160000000 1.0
C      1  0.4750020000000  0.4606060000000  0.5554610000000 1.0
C      1  0.5211950000000  0.5333700000000  0.5768540000000 1.0
C      1  0.4706470000000  0.5797580000000  0.5206830000000 1.0
C      1  0.5167790000000  0.5456630000000  0.4322830000000 1.0
C      1  0.4819290000000  0.4333190000000  0.5045630000000 1.0
C      1  0.5244310000000  0.4776650000000  0.5479340000000 1.0
C      1  0.4854450000000  0.5349410000000  0.5447030000000 1.0
C      1  0.5137740000000  0.5546500000000  0.4942430000000 1.0
C      1  0.4809060000000  0.5167040000000  0.4523320000000 1.0
C      1  0.5156050000000  0.4594800000000  0.4540750000000 1.0
C      1  0.4320490000000  0.5327220000000  0.4962000000000 1.0
C      1  0.5688980000000  0.5144780000000  0.4758910000000 1.0
C      1  0.4329470000000  0.4858130000000  0.4781980000000 1.0
C      1  0.5718310000000  0.4700270000000  0.5000110000000 1.0
C      1  0.4264530000000  0.4956760000000  0.5287440000000 1.0
C      1  0.5703580000000  0.5137060000000  0.5260310000000 1.0
C      1  0.4392700000000  0.4724130000000  0.5073540000000 1.0
C      1  0.5563990000000  0.4848660000000  0.5251240000000 1.0
C      1  0.4378930000000  0.5269890000000  0.5278570000000 1.0
C      1  0.5559490000000  0.5274600000000  0.5014210000000 1.0
C      1  0.4494180000000  0.5136110000000  0.4767210000000 1.0
C      1  0.5572540000000  0.4844410000000  0.4753900000000 1.0
C      1  0.4482680000000  0.5227820000000  0.5805780000000 1.0
C      1  0.5549880000000  0.5739320000000  0.5263790000000 1.0
C      1  0.4442250000000  0.5557620000000  0.4419360000000 1.0
C      1  0.5546540000000  0.4843890000000  0.4235640000000 1.0
C      1  0.4443460000000  0.4253800000000  0.4777800000000 1.0
C      1  0.5607810000000  0.4397690000000  0.5530140000000 1.0
C      1  0.4855460000000  0.5893440000000  0.4662480000000 1.0
C      1  0.5071120000000  0.5069480000000  0.3979510000000 1.0
C      1  0.4946090000000  0.4152490000000  0.4477040000000 1.0
C      1  0.5097980000000  0.4118280000000  0.5462540000000 1.0
C      1  0.4946740000000  0.4902200000000  0.5945970000000 1.0
C      1  0.5089480000000  0.5829730000000  0.5607230000000 1.0
C      1  0.4512880000000  0.4795350000000  0.4279420000000 1.0
C      1  0.5541370000000  0.4250670000000  0.4809080000000 1.0
C      1  0.4442660000000  0.4614760000000  0.5393450000000 1.0
C      1  0.5508480000000  0.5169360000000  0.5741340000000 1.0
C      1  0.4416960000000  0.5606760000000  0.5229040000000 1.0
C      1  0.5446610000000  0.5539490000000  0.4497030000000 1.0
C      1  0.5486210000000  0.4343080000000  0.4540740000000 1.0
C      1  0.4554280000000  0.4294620000000  0.5362520000000 1.0
C      1  0.5481320000000  0.4888320000000  0.5781490000000 1.0
C      1  0.4571030000000  0.5727110000000  0.5508730000000 1.0
C      1  0.5412720000000  0.5722880000000  0.4715280000000 1.0
C      1  0.4554060000000  0.5069280000000  0.4221430000000 1.0
C      1  0.4252900000000  0.4380710000000  0.4618820000000 1.0
C      1  0.5796880000000  0.4324150000000  0.5339590000000 1.0
C      1  0.4252320000000  0.5073190000000  0.5795100000000 1.0
C      1  0.5752320000000  0.5612770000000  0.5408030000000 1.0
C      1  0.4259940000000  0.5660580000000  0.4601340000000 1.0
C      1  0.5735200000000  0.5045690000000  0.4276950000000 1.0
C      1  0.5146170000000  0.5142070000000  0.4567790000000 1.0
C      1  0.4850590000000  0.4677910000000  0.4640130000000 1.0
C      1  0.5237120000000  0.4509390000000  0.5035970000000 1.0
C      1  0.4809860000000  0.4888920000000  0.5174320000000 1.0
C      1  0.5180940000000  0.5290110000000  0.5373060000000 1.0
C      1  0.4761920000000  0.5413130000000  0.4925650000000 1.0
C      1  0.4694920000000  0.5728300000000  0.4420100000000 1.0
C      1  0.5302050000000  0.4964360000000  0.4105530000000 1.0
C      1  0.4703870000000  0.4201360000000  0.4616060000000 1.0
C      1  0.5344790000000  0.4248190000000  0.5491630000000 1.0
C      1  0.4722020000000  0.5054000000000  0.5880590000000 1.0
C      1  0.5313610000000  0.5786120000000  0.5447000000000 1.0
C      1  0.4609620000000  0.4898140000000  0.5619620000000 1.0
C      1  0.5392710000000  0.5477080000000  0.5518630000000 1.0
C      1  0.4654050000000  0.5636780000000  0.4748150000000 1.0
C      1  0.5365250000000  0.5183670000000  0.4339560000000 1.0
C      1  0.4621110000000  0.4498700000000  0.4518630000000 1.0
C      1  0.5428210000000  0.4302050000000  0.5187440000000 1.0
C      1  0.6005180000000  0.4821450000000  0.4995880000000 1.0
C      1  0.3985160000000  0.4993290000000  0.5144270000000 1.0
C      1  0.5996180000000  0.5094200000000  0.5163100000000 1.0
C      1  0.4023240000000  0.5236640000000  0.4936940000000 1.0
C      1  0.5988690000000  0.5103010000000  0.4841300000000 1.0
C      1  0.4029390000000  0.4936520000000  0.4831550000000 1.0
C      1  0.5679310000000  0.5311620000000  0.5503920000000 1.0
C      1  0.4365930000000  0.5634170000000  0.4901200000000 1.0
C      1  0.5644900000000  0.5274140000000  0.4490240000000 1.0
C      1  0.4347420000000  0.4678070000000  0.4539270000000 1.0
C      1  0.5710720000000  0.4402900000000  0.5036850000000 1.0
C      1  0.4283870000000  0.4844420000000  0.5580810000000 1.0
C      1  0.5169430000000  0.4390660000000  0.4778670000000 1.0
C      1  0.4813950000000  0.4577850000000  0.5255130000000 1.0
C      1  0.5159000000000  0.5047710000000  0.5591880000000 1.0
C      1  0.4795020000000  0.5492860000000  0.5173260000000 1.0
C      1  0.5086740000000  0.5457910000000  0.4653660000000 1.0
C      1  0.4880430000000  0.4897700000000  0.4396620000000 1.0
C      1  0.5105200000000  0.5024560000000  0.4952880000000 1.0
END
