TITL C-2782226-7400-996 0.00233851891818773 125000 -684.647172635856 0 0 118 (C1) n - 1
REM
REM in /home/nfs/bkarasulu/CARBON/AIRSS/Generating-Clusters/REBO/Higher-Symm/SD-CG/HFTN-CG
REM
REM
REM
REM
REM
REM ./C.cell (12c818d87b63d06a65506943cc24bca4)
REM
REM compiler GCC version 9.2.1 20190827 (Red Hat 9.2.1-1)
REM options -cpp -mtune=generic -march=x86-64 -g -O0 -fpre-include=/usr/include/finclude/math-vector-fortran.h
REM seed -1197499674 -2126567478 -880241977 -832234748 1403916776 -1324692808 539086839 799595791 -2024108503 -152363413 265542070 -266445168 9900985 -22194318 -376744333 1750524899 -1051107539 1997410715 164560244 541090534 1688834736 -1678920987 -1349728325 -955929528 -1698098884 -794837108 1425252093 -972050203 -1859447989 -2092827910 2084256050 1075494305 -1744847547
REM
CELL 1.54180   50.00000   50.00000   50.00000   90.00000   90.00000   90.00000
LATT -1
SFAC C  
C      1  0.5623130000000  0.5048340000000  0.4971220000000 1.0
C      1  0.4617930000000  0.5089700000000  0.5626550000000 1.0
C      1  0.4592530000000  0.5109100000000  0.4336780000000 1.0
C      1  0.5401130000000  0.5134760000000  0.4065970000000 1.0
C      1  0.5475310000000  0.5214620000000  0.5705720000000 1.0
C      1  0.4124600000000  0.5194870000000  0.5077410000000 1.0
C      1  0.4431900000000  0.4550210000000  0.5345390000000 1.0
C      1  0.4999450000000  0.4448750000000  0.4252520000000 1.0
C      1  0.5628980000000  0.4537290000000  0.5333240000000 1.0
C      1  0.5442700000000  0.4314030000000  0.4885670000000 1.0
C      1  0.4928050000000  0.4287730000000  0.5465010000000 1.0
C      1  0.4673490000000  0.4184710000000  0.4738930000000 1.0
C      1  0.5132690000000  0.4457370000000  0.5273380000000 1.0
C      1  0.4733470000000  0.4596650000000  0.5031220000000 1.0
C      1  0.5152050000000  0.4453470000000  0.4773930000000 1.0
C      1  0.5020620000000  0.4628870000000  0.4537810000000 1.0
C      1  0.5411020000000  0.4513040000000  0.5137230000000 1.0
C      1  0.4704950000000  0.4744760000000  0.5324040000000 1.0
C      1  0.5704700000000  0.4043870000000  0.5620820000000 1.0
C      1  0.4415920000000  0.4291180000000  0.4862100000000 1.0
C      1  0.5469570000000  0.4232360000000  0.4281630000000 1.0
C      1  0.5630150000000  0.4730800000000  0.4591420000000 1.0
C      1  0.5017920000000  0.4916470000000  0.5932930000000 1.0
C      1  0.4406560000000  0.4834020000000  0.4712070000000 1.0
C      1  0.5024490000000  0.4705420000000  0.5422400000000 1.0
C      1  0.4586340000000  0.4834690000000  0.4953860000000 1.0
C      1  0.5356330000000  0.4712870000000  0.4736060000000 1.0
C      1  0.5186390000000  0.5504260000000  0.5260740000000 1.0
C      1  0.4871290000000  0.5610320000000  0.5181720000000 1.0
C      1  0.4977660000000  0.5578000000000  0.4863510000000 1.0
C      1  0.5419180000000  0.5302820000000  0.5408550000000 1.0
C      1  0.4649740000000  0.5476960000000  0.5338780000000 1.0
C      1  0.5011600000000  0.5497070000000  0.4534290000000 1.0
C      1  0.4955960000000  0.4926670000000  0.5181770000000 1.0
C      1  0.4990350000000  0.4855560000000  0.4791550000000 1.0
C      1  0.5211070000000  0.4769640000000  0.5036130000000 1.0
C      1  0.4542030000000  0.4562960000000  0.5638520000000 1.0
C      1  0.4703900000000  0.4536130000000  0.4312780000000 1.0
C      1  0.5858650000000  0.4636450000000  0.4813910000000 1.0
C      1  0.5583390000000  0.5489820000000  0.5224330000000 1.0
C      1  0.4557410000000  0.5604480000000  0.5575910000000 1.0
C      1  0.4779540000000  0.5612100000000  0.4340010000000 1.0
C      1  0.5305080000000  0.5784510000000  0.5108090000000 1.0
C      1  0.4842580000000  0.5933800000000  0.5194800000000 1.0
C      1  0.4997120000000  0.5893360000000  0.4743000000000 1.0
C      1  0.5195150000000  0.4112110000000  0.4975610000000 1.0
C      1  0.4963440000000  0.4101770000000  0.5216800000000 1.0
C      1  0.4880470000000  0.4080800000000  0.4895930000000 1.0
C      1  0.5281220000000  0.4611890000000  0.4159880000000 1.0
C      1  0.5540710000000  0.4590650000000  0.5652570000000 1.0
C      1  0.4140170000000  0.4603660000000  0.5176740000000 1.0
C      1  0.5288470000000  0.5825450000000  0.4821030000000 1.0
C      1  0.5118460000000  0.5894530000000  0.5315820000000 1.0
C      1  0.4768320000000  0.5985870000000  0.4917620000000 1.0
C      1  0.5135560000000  0.5045590000000  0.4051620000000 1.0
C      1  0.5734310000000  0.5094880000000  0.5538560000000 1.0
C      1  0.4042470000000  0.5092660000000  0.5321600000000 1.0
C      1  0.5333720000000  0.5470210000000  0.4466830000000 1.0
C      1  0.5043710000000  0.5508460000000  0.5696260000000 1.0
C      1  0.4459510000000  0.5566170000000  0.4748590000000 1.0
C      1  0.4622570000000  0.4789500000000  0.4222290000000 1.0
C      1  0.5899400000000  0.4860110000000  0.4981090000000 1.0
C      1  0.4475860000000  0.4814910000000  0.5747060000000 1.0
C      1  0.4846840000000  0.5235140000000  0.4448090000000 1.0
C      1  0.5428130000000  0.5030020000000  0.5211360000000 1.0
C      1  0.4620320000000  0.5196650000000  0.5333900000000 1.0
C      1  0.4236630000000  0.5323610000000  0.4782890000000 1.0
C      1  0.5550530000000  0.5230050000000  0.4356060000000 1.0
C      1  0.5185020000000  0.5275050000000  0.5874800000000 1.0
C      1  0.4526490000000  0.5657740000000  0.4426710000000 1.0
C      1  0.5504970000000  0.5470790000000  0.4965850000000 1.0
C      1  0.4743810000000  0.5638770000000  0.5785610000000 1.0
C      1  0.5226560000000  0.4222560000000  0.4229960000000 1.0
C      1  0.5648610000000  0.4286450000000  0.5562000000000 1.0
C      1  0.4331810000000  0.4331450000000  0.5126020000000 1.0
C      1  0.5701670000000  0.4369270000000  0.4735470000000 1.0
C      1  0.4811060000000  0.4457830000000  0.5669820000000 1.0
C      1  0.4579100000000  0.4393830000000  0.4516290000000 1.0
C      1  0.4415150000000  0.5099050000000  0.3833320000000 1.0
C      1  0.5955880000000  0.5428630000000  0.4851450000000 1.0
C      1  0.4295100000000  0.5219100000000  0.6038600000000 1.0
C      1  0.3972960000000  0.4815520000000  0.5324150000000 1.0
C      1  0.5086680000000  0.4838150000000  0.4275340000000 1.0
C      1  0.5732550000000  0.4816040000000  0.5499720000000 1.0
C      1  0.4115080000000  0.5195800000000  0.5573670000000 1.0
C      1  0.4910270000000  0.5115190000000  0.3917260000000 1.0
C      1  0.5886860000000  0.5242510000000  0.5363680000000 1.0
C      1  0.4631830000000  0.5293270000000  0.4825310000000 1.0
C      1  0.5273350000000  0.5181090000000  0.4632100000000 1.0
C      1  0.5041970000000  0.5225310000000  0.5507630000000 1.0
C      1  0.5227830000000  0.5369660000000  0.4878850000000 1.0
C      1  0.5003050000000  0.5234250000000  0.5189210000000 1.0
C      1  0.4937360000000  0.5181350000000  0.4875050000000 1.0
C      1  0.4443390000000  0.5125730000000  0.4596920000000 1.0
C      1  0.5558500000000  0.5043760000000  0.4645040000000 1.0
C      1  0.4874250000000  0.5156300000000  0.5778890000000 1.0
C      1  0.4621280000000  0.5052540000000  0.4011870000000 1.0
C      1  0.5910430000000  0.5191970000000  0.5054770000000 1.0
C      1  0.4327090000000  0.5116460000000  0.5783020000000 1.0
C      1  0.5668830000000  0.4442240000000  0.4413500000000 1.0
C      1  0.4990120000000  0.4626450000000  0.5811910000000 1.0
C      1  0.4315190000000  0.4529100000000  0.4661490000000 1.0
C      1  0.5554660000000  0.4663650000000  0.4205580000000 1.0
C      1  0.5292920000000  0.4732590000000  0.5717210000000 1.0
C      1  0.4090170000000  0.4673250000000  0.4872020000000 1.0
C      1  0.5619350000000  0.4936530000000  0.4193190000000 1.0
C      1  0.5348240000000  0.4988840000000  0.5920820000000 1.0
C      1  0.4128730000000  0.4999640000000  0.4807480000000 1.0
C      1  0.4606010000000  0.5089100000000  0.5078300000000 1.0
C      1  0.5046510000000  0.5024920000000  0.4523980000000 1.0
C      1  0.5226020000000  0.4960320000000  0.5473230000000 1.0
C      1  0.4416030000000  0.5909320000000  0.4551030000000 1.0
C      1  0.5715280000000  0.5564170000000  0.4769960000000 1.0
C      1  0.4931100000000  0.5877090000000  0.5795780000000 1.0
C      1  0.5142360000000  0.5815350000000  0.5586010000000 1.0
C      1  0.4508680000000  0.5892600000000  0.4838730000000 1.0
C      1  0.5468820000000  0.5687680000000  0.4634460000000 1.0
C      1  0.4969260000000  0.4452670000000  0.5008310000000 1.0
END
