TITL C-2782230-7391-902 -0.00196406844031887 125000 -972.087938262768 0 0 167 (C1) n - 1
REM
REM in /home/nfs/bkarasulu/CARBON/AIRSS/Generating-Clusters/REBO/Higher-Symm/SD-CG/HFTN-CG
REM
REM
REM
REM
REM
REM ./C.cell (12c818d87b63d06a65506943cc24bca4)
REM
REM compiler GCC version 9.2.1 20190827 (Red Hat 9.2.1-1)
REM options -cpp -mtune=generic -march=x86-64 -g -O0 -fpre-include=/usr/include/finclude/math-vector-fortran.h
REM seed 832263949 1521857669 -728906089 -2016522147 1492634557 968494539 1611585967 -511849349 -661162027 -712980270 -1907929544 -460996484 -1757692946 -1407075385 -435052412 1859638154 368425902 421611823 1809931915 755729005 -821298815 648181530 2056033749 -702835367 504741687 -308727640 -1586812094 -46297768 -1556214501 118651227 -1994967919 339550658 -1644697005
REM
CELL 1.54180   50.00000   50.00000   50.00000   90.00000   90.00000   90.00000
LATT -1
SFAC C  
C      1  0.4438810000000  0.5744850000000  0.4863510000000 1.0
C      1  0.5636550000000  0.4278930000000  0.5237600000000 1.0
C      1  0.5662590000000  0.4975650000000  0.5833740000000 1.0
C      1  0.4335520000000  0.5053220000000  0.4272560000000 1.0
C      1  0.5722670000000  0.4188240000000  0.4956430000000 1.0
C      1  0.4289010000000  0.5742910000000  0.5108670000000 1.0
C      1  0.5149300000000  0.5933670000000  0.4626740000000 1.0
C      1  0.4772530000000  0.4117250000000  0.5240670000000 1.0
C      1  0.4751480000000  0.5969360000000  0.5609640000000 1.0
C      1  0.5170320000000  0.4023740000000  0.4450190000000 1.0
C      1  0.5359610000000  0.4305210000000  0.5074530000000 1.0
C      1  0.4718530000000  0.5719560000000  0.4918560000000 1.0
C      1  0.5715500000000  0.4548280000000  0.4282670000000 1.0
C      1  0.4292990000000  0.5446320000000  0.5804200000000 1.0
C      1  0.6007100000000  0.5200000000000  0.4814060000000 1.0
C      1  0.3956710000000  0.4756990000000  0.5225160000000 1.0
C      1  0.5439940000000  0.6022770000000  0.4728900000000 1.0
C      1  0.4458520000000  0.4082430000000  0.5315460000000 1.0
C      1  0.3960650000000  0.4373610000000  0.4879050000000 1.0
C      1  0.5967770000000  0.6086550000000  0.3896590000000 1.0
C      1  0.4720460000000  0.4838050000000  0.4027650000000 1.0
C      1  0.5311240000000  0.5148390000000  0.5913290000000 1.0
C      1  0.4917840000000  0.4208660000000  0.5899220000000 1.0
C      1  0.5085380000000  0.5816170000000  0.4326800000000 1.0
C      1  0.6049950000000  0.4950580000000  0.4965650000000 1.0
C      1  0.3870190000000  0.5060430000000  0.5182740000000 1.0
C      1  0.5922290000000  0.4719350000000  0.4865630000000 1.0
C      1  0.3997920000000  0.5265930000000  0.5317640000000 1.0
C      1  0.5287430000000  0.5476340000000  0.4907330000000 1.0
C      1  0.4797950000000  0.4596970000000  0.4884850000000 1.0
C      1  0.5179130000000  0.5698860000000  0.5257730000000 1.0
C      1  0.4799970000000  0.4297930000000  0.4718870000000 1.0
C      1  0.5030270000000  0.4860480000000  0.3948680000000 1.0
C      1  0.5014860000000  0.5080750000000  0.6044500000000 1.0
C      1  0.5054680000000  0.3953240000000  0.5337490000000 1.0
C      1  0.4857460000000  0.6054700000000  0.4750750000000 1.0
C      1  0.4182380000000  0.5174600000000  0.4477870000000 1.0
C      1  0.5848240000000  0.4841980000000  0.5657340000000 1.0
C      1  0.4385230000000  0.4773600000000  0.4656430000000 1.0
C      1  0.5561460000000  0.5222300000000  0.5283500000000 1.0
C      1  0.5734290000000  0.4587480000000  0.4612320000000 1.0
C      1  0.4170790000000  0.5423050000000  0.5534270000000 1.0
C      1  0.4453600000000  0.4539390000000  0.4896740000000 1.0
C      1  0.5536780000000  0.5504270000000  0.5094060000000 1.0
C      1  0.5085460000000  0.4400140000000  0.4659420000000 1.0
C      1  0.4923110000000  0.5493490000000  0.5320450000000 1.0
C      1  0.5146810000000  0.4254920000000  0.5268460000000 1.0
C      1  0.4867080000000  0.5660040000000  0.4691320000000 1.0
C      1  0.4780600000000  0.4993040000000  0.6215330000000 1.0
C      1  0.5319420000000  0.4913390000000  0.3881170000000 1.0
C      1  0.4872880000000  0.5064210000000  0.4333180000000 1.0
C      1  0.5224660000000  0.4867790000000  0.5592470000000 1.0
C      1  0.5659720000000  0.4513980000000  0.4916870000000 1.0
C      1  0.4253120000000  0.5457200000000  0.5205770000000 1.0
C      1  0.5166220000000  0.4320780000000  0.4107150000000 1.0
C      1  0.4832430000000  0.5591280000000  0.5866790000000 1.0
C      1  0.4460750000000  0.3979130000000  0.4851340000000 1.0
C      1  0.5265700000000  0.6002380000000  0.5155040000000 1.0
C      1  0.4826250000000  0.4594990000000  0.5871900000000 1.0
C      1  0.5262920000000  0.5384290000000  0.4118800000000 1.0
C      1  0.5010390000000  0.3902610000000  0.5003490000000 1.0
C      1  0.4784090000000  0.6103180000000  0.5010890000000 1.0
C      1  0.4982260000000  0.4489470000000  0.5323620000000 1.0
C      1  0.5054920000000  0.5425300000000  0.4673780000000 1.0
C      1  0.5810190000000  0.5349930000000  0.5003350000000 1.0
C      1  0.4270950000000  0.4759460000000  0.5037940000000 1.0
C      1  0.5133700000000  0.5259370000000  0.4385610000000 1.0
C      1  0.4957690000000  0.4696520000000  0.5590120000000 1.0
C      1  0.4909930000000  0.5076780000000  0.5718050000000 1.0
C      1  0.5183930000000  0.4833290000000  0.4248330000000 1.0
C      1  0.5677140000000  0.5229790000000  0.4435320000000 1.0
C      1  0.4468690000000  0.4644100000000  0.5426130000000 1.0
C      1  0.5719540000000  0.4980780000000  0.4644180000000 1.0
C      1  0.4392500000000  0.4978150000000  0.5459700000000 1.0
C      1  0.5057750000000  0.5383800000000  0.5921070000000 1.0
C      1  0.4941290000000  0.4570210000000  0.4074960000000 1.0
C      1  0.5490720000000  0.4373720000000  0.4195110000000 1.0
C      1  0.4525330000000  0.5614470000000  0.5862160000000 1.0
C      1  0.3848340000000  0.4529350000000  0.5040240000000 1.0
C      1  0.5756570000000  0.5957870000000  0.3983290000000 1.0
C      1  0.5918660000000  0.5312950000000  0.5640900000000 1.0
C      1  0.4093960000000  0.4786320000000  0.4515180000000 1.0
C      1  0.5328240000000  0.5696900000000  0.4159100000000 1.0
C      1  0.4710650000000  0.4317700000000  0.5718780000000 1.0
C      1  0.5347830000000  0.4512610000000  0.5879210000000 1.0
C      1  0.4701010000000  0.5452510000000  0.4224490000000 1.0
C      1  0.4793320000000  0.5743400000000  0.5182750000000 1.0
C      1  0.5281840000000  0.4223280000000  0.4776990000000 1.0
C      1  0.6054400000000  0.5030550000000  0.5557060000000 1.0
C      1  0.3913070000000  0.5074600000000  0.4570330000000 1.0
C      1  0.5217690000000  0.3901600000000  0.4761720000000 1.0
C      1  0.4677810000000  0.5999840000000  0.5317540000000 1.0
C      1  0.4582200000000  0.5633420000000  0.4412160000000 1.0
C      1  0.5439810000000  0.4338650000000  0.5666140000000 1.0
C      1  0.5590540000000  0.5974900000000  0.4923910000000 1.0
C      1  0.4268140000000  0.4156940000000  0.5172440000000 1.0
C      1  0.5391770000000  0.4822320000000  0.5851110000000 1.0
C      1  0.4613540000000  0.5137590000000  0.4152670000000 1.0
C      1  0.4783520000000  0.4867650000000  0.5080840000000 1.0
C      1  0.5297630000000  0.5141270000000  0.4913140000000 1.0
C      1  0.4276050000000  0.5106510000000  0.5754030000000 1.0
C      1  0.5842930000000  0.4859350000000  0.4343610000000 1.0
C      1  0.5101830000000  0.4434940000000  0.5991210000000 1.0
C      1  0.4966330000000  0.5542600000000  0.4161770000000 1.0
C      1  0.5888880000000  0.5300910000000  0.5319010000000 1.0
C      1  0.4039210000000  0.4816950000000  0.4840070000000 1.0
C      1  0.5060930000000  0.4557630000000  0.4399910000000 1.0
C      1  0.5006680000000  0.5373730000000  0.5582040000000 1.0
C      1  0.5373830000000  0.5167950000000  0.4577690000000 1.0
C      1  0.4743080000000  0.4800330000000  0.5389920000000 1.0
C      1  0.4269170000000  0.4262910000000  0.4847630000000 1.0
C      1  0.5570990000000  0.5793150000000  0.5167070000000 1.0
C      1  0.4363420000000  0.5943610000000  0.5283450000000 1.0
C      1  0.5534700000000  0.4013450000000  0.4824030000000 1.0
C      1  0.4823330000000  0.4762740000000  0.4403100000000 1.0
C      1  0.5244660000000  0.5170770000000  0.5520480000000 1.0
C      1  0.5200390000000  0.4877820000000  0.4590400000000 1.0
C      1  0.4766100000000  0.5109760000000  0.5406960000000 1.0
C      1  0.5124430000000  0.4680010000000  0.4802810000000 1.0
C      1  0.4763940000000  0.5261980000000  0.5138140000000 1.0
C      1  0.5711700000000  0.4714670000000  0.5432100000000 1.0
C      1  0.4344850000000  0.5310870000000  0.4706650000000 1.0
C      1  0.5493710000000  0.4854080000000  0.4160660000000 1.0
C      1  0.4636880000000  0.5096070000000  0.5922750000000 1.0
C      1  0.5351070000000  0.4621290000000  0.5014090000000 1.0
C      1  0.4439870000000  0.5274780000000  0.5031950000000 1.0
C      1  0.3883410000000  0.5068230000000  0.4889230000000 1.0
C      1  0.6072040000000  0.5023550000000  0.5243680000000 1.0
C      1  0.4399710000000  0.5592420000000  0.4624320000000 1.0
C      1  0.5629900000000  0.4438280000000  0.5468430000000 1.0
C      1  0.5293010000000  0.5034920000000  0.5236720000000 1.0
C      1  0.4699310000000  0.4791520000000  0.4659680000000 1.0
C      1  0.4700260000000  0.4741280000000  0.6400590000000 1.0
C      1  0.5447780000000  0.5117370000000  0.3664690000000 1.0
C      1  0.4843360000000  0.5163420000000  0.4640070000000 1.0
C      1  0.5208990000000  0.4729570000000  0.5280840000000 1.0
C      1  0.4173800000000  0.4647280000000  0.5413610000000 1.0
C      1  0.5971770000000  0.5277340000000  0.4556300000000 1.0
C      1  0.4368540000000  0.4892900000000  0.5977920000000 1.0
C      1  0.5702290000000  0.5106190000000  0.4151460000000 1.0
C      1  0.4750600000000  0.4069000000000  0.4912150000000 1.0
C      1  0.5185160000000  0.5782780000000  0.4922040000000 1.0
C      1  0.4539590000000  0.5073780000000  0.4701440000000 1.0
C      1  0.5669330000000  0.4902310000000  0.5218020000000 1.0
C      1  0.5490330000000  0.5860590000000  0.5452250000000 1.0
C      1  0.4357650000000  0.4249330000000  0.4518570000000 1.0
C      1  0.5674340000000  0.5261770000000  0.5789750000000 1.0
C      1  0.4305110000000  0.4752940000000  0.4266890000000 1.0
C      1  0.5420110000000  0.4104970000000  0.4327940000000 1.0
C      1  0.4519000000000  0.5899990000000  0.5771880000000 1.0
C      1  0.4639630000000  0.4723640000000  0.6065310000000 1.0
C      1  0.5453560000000  0.5207280000000  0.3978190000000 1.0
C      1  0.5634970000000  0.5068380000000  0.4923000000000 1.0
C      1  0.4466610000000  0.4970720000000  0.5149640000000 1.0
C      1  0.4962570000000  0.5787590000000  0.5690620000000 1.0
C      1  0.4954850000000  0.4180990000000  0.4322640000000 1.0
C      1  0.5489640000000  0.4794010000000  0.4496470000000 1.0
C      1  0.4558530000000  0.5222450000000  0.5616050000000 1.0
C      1  0.4790690000000  0.5878600000000  0.4463960000000 1.0
C      1  0.5254710000000  0.4134820000000  0.5550330000000 1.0
C      1  0.4658950000000  0.4325100000000  0.4409980000000 1.0
C      1  0.5261700000000  0.5680120000000  0.5589090000000 1.0
C      1  0.5387850000000  0.5404560000000  0.5698560000000 1.0
C      1  0.4581200000000  0.4608920000000  0.4238710000000 1.0
C      1  0.4684010000000  0.4393560000000  0.5421420000000 1.0
C      1  0.5541950000000  0.5827110000000  0.4071380000000 1.0
C      1  0.4958980000000  0.5105100000000  0.4926060000000 1.0
END
