TITL C-2782226-7400-1185 0.00297684781912591 125000 -848.731962317523 0 0 148 (C1) n - 1
REM
REM in /home/nfs/bkarasulu/CARBON/AIRSS/Generating-Clusters/REBO/Higher-Symm/SD-CG/HFTN-CG
REM
REM
REM
REM
REM
REM ./C.cell (12c818d87b63d06a65506943cc24bca4)
REM
REM compiler GCC version 9.2.1 20190827 (Red Hat 9.2.1-1)
REM options -cpp -mtune=generic -march=x86-64 -g -O0 -fpre-include=/usr/include/finclude/math-vector-fortran.h
REM seed 2137568833 1591601399 1881801674 -378288315 1868802353 -715593354 27156997 -2014823278 -189733846 576070954 785631511 1353109635 1050842401 -156713421 1786926949 194614785 1842350384 1033014906 352106154 -1514439594 -1898657487 849940030 -512653432 -1850896433 422904576 -930363081 -667211741 1608702799 578653107 -2099400785 2081082092 1003269820 1929533450
REM
CELL 1.54180   50.00000   50.00000   50.00000   90.00000   90.00000   90.00000
LATT -1
SFAC C  
C      1  0.4711950000000  0.5454920000000  0.5664700000000 1.0
C      1  0.5273980000000  0.5456120000000  0.4341570000000 1.0
C      1  0.4731850000000  0.5431660000000  0.4422770000000 1.0
C      1  0.5342490000000  0.5435630000000  0.5679030000000 1.0
C      1  0.5896330000000  0.4666490000000  0.4779630000000 1.0
C      1  0.4081770000000  0.4654500000000  0.5220090000000 1.0
C      1  0.5935400000000  0.4634610000000  0.5280680000000 1.0
C      1  0.4066520000000  0.4622680000000  0.4718730000000 1.0
C      1  0.4897830000000  0.4305040000000  0.5530550000000 1.0
C      1  0.5117320000000  0.4288080000000  0.4445150000000 1.0
C      1  0.4871770000000  0.4291200000000  0.4426160000000 1.0
C      1  0.5141700000000  0.4321820000000  0.5557450000000 1.0
C      1  0.4219750000000  0.5177090000000  0.4537060000000 1.0
C      1  0.5777880000000  0.5186740000000  0.5460910000000 1.0
C      1  0.4213670000000  0.5180140000000  0.5476170000000 1.0
C      1  0.5778220000000  0.5183900000000  0.4519360000000 1.0
C      1  0.5159200000000  0.5136000000000  0.4370980000000 1.0
C      1  0.4849890000000  0.5145300000000  0.5636730000000 1.0
C      1  0.5166790000000  0.5143690000000  0.5657110000000 1.0
C      1  0.4853850000000  0.5113620000000  0.4381930000000 1.0
C      1  0.5666920000000  0.4703420000000  0.5712460000000 1.0
C      1  0.4337710000000  0.4673010000000  0.4298470000000 1.0
C      1  0.5657410000000  0.4677590000000  0.4330880000000 1.0
C      1  0.4349040000000  0.4673810000000  0.5660170000000 1.0
C      1  0.5494290000000  0.4681090000000  0.5192670000000 1.0
C      1  0.4487520000000  0.4674810000000  0.4810000000000 1.0
C      1  0.5509030000000  0.4732020000000  0.4876960000000 1.0
C      1  0.4465220000000  0.4732160000000  0.5141190000000 1.0
C      1  0.4250510000000  0.5761210000000  0.5482510000000 1.0
C      1  0.5753520000000  0.5756620000000  0.4514510000000 1.0
C      1  0.4264880000000  0.5780160000000  0.4688560000000 1.0
C      1  0.5778010000000  0.5733440000000  0.5354200000000 1.0
C      1  0.5657310000000  0.5210820000000  0.5779790000000 1.0
C      1  0.4341690000000  0.5183860000000  0.4216990000000 1.0
C      1  0.5648110000000  0.5169540000000  0.4203380000000 1.0
C      1  0.4335590000000  0.5164700000000  0.5795100000000 1.0
C      1  0.4851050000000  0.4688580000000  0.4466320000000 1.0
C      1  0.5157170000000  0.4727880000000  0.5557980000000 1.0
C      1  0.4851290000000  0.4733240000000  0.5472300000000 1.0
C      1  0.5156070000000  0.4721000000000  0.4536800000000 1.0
C      1  0.5442970000000  0.5122840000000  0.4542950000000 1.0
C      1  0.4555390000000  0.5129100000000  0.5464150000000 1.0
C      1  0.5442110000000  0.5121090000000  0.5457410000000 1.0
C      1  0.4552500000000  0.5095820000000  0.4542450000000 1.0
C      1  0.4816550000000  0.4694900000000  0.4803090000000 1.0
C      1  0.5182660000000  0.4683910000000  0.5237780000000 1.0
C      1  0.4799300000000  0.4743720000000  0.5143150000000 1.0
C      1  0.5197180000000  0.4803010000000  0.4849030000000 1.0
C      1  0.5154800000000  0.4480300000000  0.4854990000000 1.0
C      1  0.4761140000000  0.4402770000000  0.5167940000000 1.0
C      1  0.5079380000000  0.4403090000000  0.5163300000000 1.0
C      1  0.4841890000000  0.4362230000000  0.4844360000000 1.0
C      1  0.4866290000000  0.5897020000000  0.4661260000000 1.0
C      1  0.5174320000000  0.5675750000000  0.5253280000000 1.0
C      1  0.4842360000000  0.5644970000000  0.5199970000000 1.0
C      1  0.5144100000000  0.5752990000000  0.4734530000000 1.0
C      1  0.4434790000000  0.4893550000000  0.5857420000000 1.0
C      1  0.5564840000000  0.4896110000000  0.4133180000000 1.0
C      1  0.4431940000000  0.4916500000000  0.4129260000000 1.0
C      1  0.5561550000000  0.4939830000000  0.5885140000000 1.0
C      1  0.5382910000000  0.5289930000000  0.5959210000000 1.0
C      1  0.4601650000000  0.5318570000000  0.4153990000000 1.0
C      1  0.5402750000000  0.5305430000000  0.4104930000000 1.0
C      1  0.4586750000000  0.5295710000000  0.5895830000000 1.0
C      1  0.4299140000000  0.4992980000000  0.5134460000000 1.0
C      1  0.5683640000000  0.4996700000000  0.4858610000000 1.0
C      1  0.4304990000000  0.4923080000000  0.4830210000000 1.0
C      1  0.5688620000000  0.4929350000000  0.5171660000000 1.0
C      1  0.5143280000000  0.5021100000000  0.5212730000000 1.0
C      1  0.4869280000000  0.5013590000000  0.4766740000000 1.0
C      1  0.5142820000000  0.5121210000000  0.4826520000000 1.0
C      1  0.4855360000000  0.5078790000000  0.5159540000000 1.0
C      1  0.4571540000000  0.4430630000000  0.4347440000000 1.0
C      1  0.5436350000000  0.4459080000000  0.5656700000000 1.0
C      1  0.4596530000000  0.4450560000000  0.5591250000000 1.0
C      1  0.5412410000000  0.4450720000000  0.4397360000000 1.0
C      1  0.4832210000000  0.5340920000000  0.4709620000000 1.0
C      1  0.5141270000000  0.5357200000000  0.5146730000000 1.0
C      1  0.4818310000000  0.5367800000000  0.5040900000000 1.0
C      1  0.5134060000000  0.5458920000000  0.4819050000000 1.0
C      1  0.5193830000000  0.5697110000000  0.5573390000000 1.0
C      1  0.4806380000000  0.5728740000000  0.4384350000000 1.0
C      1  0.5132880000000  0.5741250000000  0.4408520000000 1.0
C      1  0.4885830000000  0.5682770000000  0.5526520000000 1.0
C      1  0.4552590000000  0.4789450000000  0.4519470000000 1.0
C      1  0.5457430000000  0.4819270000000  0.5489360000000 1.0
C      1  0.4545910000000  0.4817280000000  0.5441850000000 1.0
C      1  0.5467800000000  0.4810950000000  0.4559650000000 1.0
C      1  0.4488060000000  0.5193240000000  0.4844780000000 1.0
C      1  0.5505870000000  0.5198720000000  0.5153750000000 1.0
C      1  0.4467140000000  0.5257230000000  0.5179070000000 1.0
C      1  0.5512330000000  0.5270550000000  0.4824860000000 1.0
C      1  0.5553800000000  0.5579560000000  0.4809280000000 1.0
C      1  0.4439500000000  0.5567040000000  0.5192700000000 1.0
C      1  0.5525660000000  0.5511600000000  0.5142300000000 1.0
C      1  0.4488080000000  0.5507330000000  0.4868840000000 1.0
C      1  0.6014480000000  0.4962710000000  0.5233420000000 1.0
C      1  0.3982690000000  0.4951460000000  0.4762280000000 1.0
C      1  0.6006970000000  0.4989800000000  0.4779700000000 1.0
C      1  0.3982070000000  0.4982640000000  0.5220990000000 1.0
C      1  0.4694350000000  0.6013360000000  0.4894390000000 1.0
C      1  0.5363780000000  0.5876940000000  0.5126940000000 1.0
C      1  0.4673290000000  0.5878660000000  0.5102630000000 1.0
C      1  0.5346660000000  0.5918720000000  0.4880750000000 1.0
C      1  0.5141060000000  0.5173650000000  0.3974420000000 1.0
C      1  0.4836280000000  0.5159550000000  0.6035390000000 1.0
C      1  0.5116540000000  0.5165940000000  0.6053260000000 1.0
C      1  0.4855470000000  0.5186710000000  0.3990280000000 1.0
C      1  0.4149250000000  0.4843430000000  0.5483910000000 1.0
C      1  0.5861060000000  0.4851520000000  0.4504440000000 1.0
C      1  0.4136750000000  0.4848280000000  0.4476090000000 1.0
C      1  0.5865300000000  0.4859480000000  0.5522470000000 1.0
C      1  0.5785690000000  0.4411870000000  0.5182420000000 1.0
C      1  0.4209790000000  0.4393310000000  0.4819920000000 1.0
C      1  0.5768120000000  0.4430010000000  0.4870580000000 1.0
C      1  0.4221630000000  0.4417370000000  0.5132820000000 1.0
C      1  0.4071480000000  0.5311040000000  0.5190010000000 1.0
C      1  0.5912590000000  0.5316060000000  0.4806790000000 1.0
C      1  0.4094510000000  0.5261990000000  0.4846600000000 1.0
C      1  0.5899350000000  0.5267880000000  0.5149360000000 1.0
C      1  0.4420830000000  0.4284790000000  0.4617260000000 1.0
C      1  0.5586330000000  0.4307670000000  0.5389600000000 1.0
C      1  0.4418450000000  0.4304020000000  0.5338070000000 1.0
C      1  0.5574300000000  0.4317770000000  0.4667340000000 1.0
C      1  0.4555490000000  0.4073100000000  0.5256800000000 1.0
C      1  0.5439110000000  0.4089200000000  0.4747070000000 1.0
C      1  0.4555580000000  0.4050630000000  0.4681570000000 1.0
C      1  0.5452360000000  0.4074040000000  0.5327530000000 1.0
C      1  0.5888290000000  0.5647680000000  0.4766790000000 1.0
C      1  0.4107240000000  0.5643150000000  0.5233580000000 1.0
C      1  0.5853560000000  0.5592700000000  0.5088060000000 1.0
C      1  0.4156040000000  0.5585020000000  0.4911900000000 1.0
C      1  0.4735680000000  0.4905720000000  0.5853470000000 1.0
C      1  0.5261190000000  0.4906980000000  0.4138240000000 1.0
C      1  0.4735020000000  0.4910890000000  0.4133030000000 1.0
C      1  0.5259750000000  0.4916120000000  0.5894760000000 1.0
C      1  0.5458170000000  0.5681440000000  0.4500040000000 1.0
C      1  0.4548690000000  0.5678300000000  0.5479560000000 1.0
C      1  0.5510470000000  0.5630110000000  0.5461240000000 1.0
C      1  0.4569480000000  0.5730910000000  0.4632650000000 1.0
C      1  0.4823450000000  0.4589650000000  0.4166760000000 1.0
C      1  0.5178190000000  0.4596050000000  0.5844480000000 1.0
C      1  0.4844030000000  0.4612360000000  0.5777650000000 1.0
C      1  0.5159150000000  0.4615800000000  0.4223180000000 1.0
C      1  0.4849840000000  0.4038410000000  0.4793440000000 1.0
C      1  0.5177610000000  0.4090710000000  0.5208600000000 1.0
C      1  0.4853810000000  0.4076340000000  0.5122980000000 1.0
C      1  0.5165210000000  0.4135980000000  0.4879680000000 1.0
END
