TITL C-2782228-2999-1359 0.00107967681927015 125000 -773.29540119842 0 0 135 (C1) n - 1
REM
REM in /home/nfs/bkarasulu/CARBON/AIRSS/Generating-Clusters/REBO/Higher-Symm/SD-CG/HFTN-CG
REM
REM
REM
REM
REM
REM ./C.cell (12c818d87b63d06a65506943cc24bca4)
REM
REM compiler GCC version 9.2.1 20190827 (Red Hat 9.2.1-1)
REM options -cpp -mtune=generic -march=x86-64 -g -O0 -fpre-include=/usr/include/finclude/math-vector-fortran.h
REM seed -748641950 -1096100601 -883248865 1576402334 -777834897 1468777514 935098578 276676242 -220334982 140964793 224544305 -1508980857 -1433966910 1490566152 984080636 -1594445251 662715257 412198974 259884993 1033066012 217318289 -687971034 -454044664 1111727913 -1943233111 -402842744 -2000633390 1660178210 794327412 -1081786904 1282251394 -155819933 -865514704
REM
CELL 1.54180   50.00000   50.00000   50.00000   90.00000   90.00000   90.00000
LATT -1
SFAC C  
C      1  0.4926880000000  0.4212870000000  0.5429200000000 1.0
C      1  0.5429840000000  0.4229010000000  0.4651600000000 1.0
C      1  0.4601190000000  0.4181660000000  0.4714410000000 1.0
C      1  0.5281310000000  0.5220890000000  0.5240630000000 1.0
C      1  0.4983110000000  0.5136940000000  0.4701800000000 1.0
C      1  0.4661310000000  0.5253350000000  0.5244680000000 1.0
C      1  0.4587450000000  0.4294920000000  0.4450810000000 1.0
C      1  0.4824340000000  0.4399130000000  0.5681720000000 1.0
C      1  0.5678070000000  0.4312790000000  0.4753880000000 1.0
C      1  0.4776580000000  0.4609190000000  0.4609100000000 1.0
C      1  0.4575440000000  0.4634750000000  0.5221390000000 1.0
C      1  0.5379960000000  0.4632380000000  0.5095710000000 1.0
C      1  0.4177010000000  0.4609560000000  0.5507040000000 1.0
C      1  0.5948830000000  0.4787530000000  0.5487720000000 1.0
C      1  0.4896540000000  0.4743740000000  0.3976940000000 1.0
C      1  0.3996850000000  0.4750370000000  0.4795330000000 1.0
C      1  0.5333600000000  0.4834720000000  0.5897680000000 1.0
C      1  0.5465670000000  0.4847040000000  0.4161920000000 1.0
C      1  0.4868800000000  0.4441050000000  0.4097260000000 1.0
C      1  0.4308780000000  0.4396940000000  0.5400880000000 1.0
C      1  0.5805260000000  0.4558740000000  0.5459370000000 1.0
C      1  0.4271080000000  0.4739980000000  0.4610360000000 1.0
C      1  0.5172700000000  0.5020430000000  0.5651290000000 1.0
C      1  0.5533200000000  0.4819630000000  0.4633740000000 1.0
C      1  0.4456040000000  0.4254720000000  0.5206260000000 1.0
C      1  0.5535810000000  0.4357070000000  0.5485590000000 1.0
C      1  0.5011640000000  0.4317990000000  0.4321590000000 1.0
C      1  0.5105740000000  0.5005420000000  0.4418240000000 1.0
C      1  0.4367330000000  0.5076540000000  0.5240080000000 1.0
C      1  0.5480320000000  0.5035500000000  0.5424860000000 1.0
C      1  0.4407600000000  0.5518380000000  0.4578730000000 1.0
C      1  0.4906660000000  0.5708500000000  0.5837120000000 1.0
C      1  0.5744790000000  0.5638500000000  0.4733670000000 1.0
C      1  0.5108770000000  0.4709790000000  0.5592280000000 1.0
C      1  0.5328070000000  0.4601420000000  0.4755930000000 1.0
C      1  0.4478380000000  0.4556610000000  0.4739860000000 1.0
C      1  0.5068080000000  0.5521590000000  0.5097310000000 1.0
C      1  0.5235690000000  0.5443600000000  0.4810320000000 1.0
C      1  0.4900350000000  0.5503210000000  0.4837710000000 1.0
C      1  0.4120410000000  0.5036700000000  0.4687130000000 1.0
C      1  0.5232350000000  0.5154950000000  0.5956580000000 1.0
C      1  0.5504230000000  0.4980180000000  0.4406360000000 1.0
C      1  0.6222040000000  0.5045710000000  0.4721550000000 1.0
C      1  0.4406940000000  0.5116830000000  0.3975010000000 1.0
C      1  0.4670550000000  0.5102530000000  0.6229490000000 1.0
C      1  0.5090180000000  0.5890810000000  0.5288820000000 1.0
C      1  0.5284160000000  0.5858030000000  0.4828200000000 1.0
C      1  0.4796490000000  0.5888180000000  0.4859460000000 1.0
C      1  0.5801240000000  0.4792890000000  0.4710660000000 1.0
C      1  0.4379810000000  0.4763300000000  0.4327810000000 1.0
C      1  0.4939620000000  0.4884990000000  0.5864120000000 1.0
C      1  0.4927360000000  0.5547590000000  0.4123440000000 1.0
C      1  0.4157900000000  0.5330860000000  0.5698780000000 1.0
C      1  0.5835010000000  0.5576040000000  0.5400850000000 1.0
C      1  0.4973410000000  0.4712810000000  0.4367420000000 1.0
C      1  0.4341550000000  0.4785150000000  0.5187740000000 1.0
C      1  0.5452950000000  0.4734170000000  0.5391210000000 1.0
C      1  0.5089780000000  0.4506340000000  0.5088680000000 1.0
C      1  0.5014360000000  0.4468490000000  0.4767050000000 1.0
C      1  0.4758070000000  0.4507250000000  0.4994300000000 1.0
C      1  0.4538280000000  0.5522970000000  0.5153740000000 1.0
C      1  0.5560940000000  0.5402130000000  0.5293000000000 1.0
C      1  0.5021530000000  0.5390000000000  0.4476890000000 1.0
C      1  0.4431290000000  0.5151600000000  0.4734620000000 1.0
C      1  0.4958590000000  0.5400320000000  0.5595690000000 1.0
C      1  0.5743920000000  0.5270220000000  0.4886820000000 1.0
C      1  0.5331110000000  0.5516460000000  0.4502120000000 1.0
C      1  0.4342030000000  0.5540840000000  0.4910480000000 1.0
C      1  0.5233880000000  0.5564190000000  0.5670320000000 1.0
C      1  0.5482760000000  0.5724070000000  0.4669480000000 1.0
C      1  0.4566330000000  0.5752410000000  0.4771720000000 1.0
C      1  0.5077930000000  0.5820860000000  0.5575070000000 1.0
C      1  0.4699130000000  0.5302230000000  0.4760640000000 1.0
C      1  0.4966280000000  0.5307850000000  0.5311790000000 1.0
C      1  0.5448950000000  0.5247290000000  0.4942340000000 1.0
C      1  0.4082050000000  0.4861660000000  0.5541760000000 1.0
C      1  0.6026560000000  0.5049590000000  0.5532320000000 1.0
C      1  0.4862830000000  0.5025300000000  0.3917700000000 1.0
C      1  0.4845860000000  0.5111810000000  0.6033340000000 1.0
C      1  0.5943430000000  0.5068260000000  0.4704730000000 1.0
C      1  0.4352420000000  0.5029330000000  0.4230810000000 1.0
C      1  0.5485650000000  0.4619090000000  0.5689730000000 1.0
C      1  0.5180870000000  0.4686790000000  0.4121620000000 1.0
C      1  0.4093950000000  0.4691200000000  0.5102520000000 1.0
C      1  0.4085020000000  0.4439650000000  0.4906920000000 1.0
C      1  0.5206950000000  0.4518860000000  0.5858360000000 1.0
C      1  0.5461340000000  0.4527770000000  0.4203490000000 1.0
C      1  0.4517370000000  0.4510250000000  0.4287830000000 1.0
C      1  0.4811940000000  0.4595340000000  0.5832110000000 1.0
C      1  0.5855620000000  0.4523450000000  0.4780440000000 1.0
C      1  0.4095600000000  0.5233650000000  0.5212840000000 1.0
C      1  0.5610180000000  0.5223370000000  0.5649580000000 1.0
C      1  0.5222020000000  0.5165320000000  0.4193180000000 1.0
C      1  0.5282330000000  0.4440890000000  0.4455530000000 1.0
C      1  0.4362410000000  0.4297640000000  0.4912840000000 1.0
C      1  0.5197280000000  0.4390510000000  0.5538710000000 1.0
C      1  0.5015310000000  0.5258380000000  0.4015440000000 1.0
C      1  0.4055030000000  0.5143840000000  0.5500240000000 1.0
C      1  0.5881940000000  0.5292900000000  0.5584760000000 1.0
C      1  0.4444740000000  0.5365720000000  0.5693750000000 1.0
C      1  0.5930100000000  0.5372270000000  0.5144050000000 1.0
C      1  0.4623070000000  0.5425880000000  0.4122380000000 1.0
C      1  0.4669260000000  0.5510740000000  0.5745440000000 1.0
C      1  0.5805940000000  0.5645260000000  0.5010330000000 1.0
C      1  0.4634290000000  0.5614980000000  0.4379320000000 1.0
C      1  0.5415100000000  0.4070050000000  0.5439590000000 1.0
C      1  0.5015400000000  0.4059050000000  0.4461080000000 1.0
C      1  0.4727200000000  0.4168050000000  0.5202950000000 1.0
C      1  0.4519190000000  0.5138850000000  0.5515800000000 1.0
C      1  0.5748580000000  0.5117270000000  0.5253430000000 1.0
C      1  0.4776430000000  0.5245430000000  0.4334390000000 1.0
C      1  0.5322600000000  0.5861020000000  0.5119420000000 1.0
C      1  0.5024790000000  0.5863790000000  0.4692640000000 1.0
C      1  0.4836760000000  0.5894610000000  0.5147190000000 1.0
C      1  0.5450350000000  0.5423120000000  0.5755600000000 1.0
C      1  0.5416970000000  0.5343000000000  0.4263530000000 1.0
C      1  0.4082560000000  0.5413680000000  0.5011620000000 1.0
C      1  0.5234770000000  0.4012270000000  0.4631920000000 1.0
C      1  0.4797380000000  0.4103980000000  0.4925940000000 1.0
C      1  0.5173760000000  0.4007430000000  0.5427820000000 1.0
C      1  0.5578780000000  0.5735030000000  0.5228970000000 1.0
C      1  0.4957840000000  0.5709120000000  0.4425970000000 1.0
C      1  0.4625950000000  0.5751870000000  0.5273070000000 1.0
C      1  0.4744920000000  0.4718530000000  0.5451570000000 1.0
C      1  0.5355950000000  0.4937480000000  0.4969970000000 1.0
C      1  0.4621070000000  0.4917440000000  0.4686560000000 1.0
C      1  0.4755250000000  0.4956330000000  0.4416370000000 1.0
C      1  0.4619700000000  0.4880710000000  0.5628370000000 1.0
C      1  0.5652870000000  0.4920620000000  0.5057750000000 1.0
C      1  0.4945710000000  0.4781860000000  0.5214920000000 1.0
C      1  0.5061260000000  0.4974180000000  0.4956520000000 1.0
C      1  0.4765780000000  0.4838380000000  0.4935270000000 1.0
C      1  0.4271490000000  0.5236160000000  0.4456830000000 1.0
C      1  0.4994150000000  0.5390160000000  0.5937530000000 1.0
C      1  0.5845660000000  0.5377100000000  0.4591990000000 1.0
END
