TITL C-2782228-2999-1115 0.00237665777578031 125000 -1092.96075877321 0 0 189 (C1) n - 1
REM
REM in /home/nfs/bkarasulu/CARBON/AIRSS/Generating-Clusters/REBO/Higher-Symm/SD-CG/HFTN-CG
REM
REM
REM
REM
REM
REM ./C.cell (12c818d87b63d06a65506943cc24bca4)
REM
REM compiler GCC version 9.2.1 20190827 (Red Hat 9.2.1-1)
REM options -cpp -mtune=generic -march=x86-64 -g -O0 -fpre-include=/usr/include/finclude/math-vector-fortran.h
REM seed 114526880 -1599414356 -150424181 -660265433 -1055683483 18013283 -256129742 154884914 -476348331 1836138574 -718869950 -1922634191 982166453 -668238330 -183548180 925405560 -634480454 -2085185609 -1254772006 -1009294036 -1668483632 700320891 -788314927 -410664545 2022997115 -994190169 -426946054 1954202265 1712582890 -967151718 1402594888 -518909640 1197450677
REM
CELL 1.54180   50.00000   50.00000   50.00000   90.00000   90.00000   90.00000
LATT -1
SFAC C  
C      1  0.4481350000000  0.4499360000000  0.4860950000000 1.0
C      1  0.4482840000000  0.4436360000000  0.5168320000000 1.0
C      1  0.4572720000000  0.4960960000000  0.4909410000000 1.0
C      1  0.4607870000000  0.4936220000000  0.5233450000000 1.0
C      1  0.4638760000000  0.5860290000000  0.4622490000000 1.0
C      1  0.4684190000000  0.5892130000000  0.5343780000000 1.0
C      1  0.5478920000000  0.5640900000000  0.4846800000000 1.0
C      1  0.5438650000000  0.5633530000000  0.5146150000000 1.0
C      1  0.5973630000000  0.5213320000000  0.4512200000000 1.0
C      1  0.5922960000000  0.5178760000000  0.5507180000000 1.0
C      1  0.5292710000000  0.5141410000000  0.5561390000000 1.0
C      1  0.5368290000000  0.5089560000000  0.4432960000000 1.0
C      1  0.4005700000000  0.4353750000000  0.4878050000000 1.0
C      1  0.4002510000000  0.4328250000000  0.5129160000000 1.0
C      1  0.5297930000000  0.4053690000000  0.5091370000000 1.0
C      1  0.5345230000000  0.4071500000000  0.4846130000000 1.0
C      1  0.4791870000000  0.4652780000000  0.6128700000000 1.0
C      1  0.4789200000000  0.4741550000000  0.3946580000000 1.0
C      1  0.5808810000000  0.5499410000000  0.5571570000000 1.0
C      1  0.5782880000000  0.5494590000000  0.4416850000000 1.0
C      1  0.5160960000000  0.5216030000000  0.3835810000000 1.0
C      1  0.5079510000000  0.5190290000000  0.6092810000000 1.0
C      1  0.4349770000000  0.5364130000000  0.4208290000000 1.0
C      1  0.4313880000000  0.5374100000000  0.5768770000000 1.0
C      1  0.5260600000000  0.5302730000000  0.4677880000000 1.0
C      1  0.5273640000000  0.5302070000000  0.5295810000000 1.0
C      1  0.4762430000000  0.5024500000000  0.4241930000000 1.0
C      1  0.4769310000000  0.5085800000000  0.5688170000000 1.0
C      1  0.4961590000000  0.4186230000000  0.4442050000000 1.0
C      1  0.4946180000000  0.4103420000000  0.5544700000000 1.0
C      1  0.6119910000000  0.4781770000000  0.5177420000000 1.0
C      1  0.6038620000000  0.4817590000000  0.4940980000000 1.0
C      1  0.5872500000000  0.4538770000000  0.5368950000000 1.0
C      1  0.5935550000000  0.4624250000000  0.4455840000000 1.0
C      1  0.5053900000000  0.4722580000000  0.5711650000000 1.0
C      1  0.5007010000000  0.4725930000000  0.4346960000000 1.0
C      1  0.4105530000000  0.4839260000000  0.4757980000000 1.0
C      1  0.4122250000000  0.4795230000000  0.5272170000000 1.0
C      1  0.3800800000000  0.4826030000000  0.4886650000000 1.0
C      1  0.3811980000000  0.4832200000000  0.5165430000000 1.0
C      1  0.4027200000000  0.4694900000000  0.4323410000000 1.0
C      1  0.4098920000000  0.4728560000000  0.5701710000000 1.0
C      1  0.5839690000000  0.4499420000000  0.5073920000000 1.0
C      1  0.5828420000000  0.4546740000000  0.4752750000000 1.0
C      1  0.5474540000000  0.4186930000000  0.4551580000000 1.0
C      1  0.5431450000000  0.4177650000000  0.5381060000000 1.0
C      1  0.3853670000000  0.4800410000000  0.4551140000000 1.0
C      1  0.3887310000000  0.4832420000000  0.5497640000000 1.0
C      1  0.5683170000000  0.5904480000000  0.4828640000000 1.0
C      1  0.5670410000000  0.5889140000000  0.5164840000000 1.0
C      1  0.5320900000000  0.5582580000000  0.5452530000000 1.0
C      1  0.5329390000000  0.5601500000000  0.4566400000000 1.0
C      1  0.4317130000000  0.5075780000000  0.3935040000000 1.0
C      1  0.4175240000000  0.5045660000000  0.6110030000000 1.0
C      1  0.5044630000000  0.5749790000000  0.4500320000000 1.0
C      1  0.5038300000000  0.5725080000000  0.5521930000000 1.0
C      1  0.4928860000000  0.5586250000000  0.4116000000000 1.0
C      1  0.4922970000000  0.5649740000000  0.5896620000000 1.0
C      1  0.4297180000000  0.5025220000000  0.5190330000000 1.0
C      1  0.4270800000000  0.5064210000000  0.4862300000000 1.0
C      1  0.5621130000000  0.5412290000000  0.5843210000000 1.0
C      1  0.5587040000000  0.5325600000000  0.4195640000000 1.0
C      1  0.4959920000000  0.4519000000000  0.4696960000000 1.0
C      1  0.4940370000000  0.4508110000000  0.5295980000000 1.0
C      1  0.5541070000000  0.5719160000000  0.5849660000000 1.0
C      1  0.5549350000000  0.5655960000000  0.4165470000000 1.0
C      1  0.5523630000000  0.4476380000000  0.4280060000000 1.0
C      1  0.5497430000000  0.4442510000000  0.5686960000000 1.0
C      1  0.5222910000000  0.4716820000000  0.4770410000000 1.0
C      1  0.5170550000000  0.4689770000000  0.5238870000000 1.0
C      1  0.5446500000000  0.5167940000000  0.3969030000000 1.0
C      1  0.5396490000000  0.5182880000000  0.5960980000000 1.0
C      1  0.5363920000000  0.5907780000000  0.4320230000000 1.0
C      1  0.5360640000000  0.5927280000000  0.5642300000000 1.0
C      1  0.4937880000000  0.4433290000000  0.6000950000000 1.0
C      1  0.4935610000000  0.4510560000000  0.4090280000000 1.0
C      1  0.4912110000000  0.5461820000000  0.5249710000000 1.0
C      1  0.4896800000000  0.5460110000000  0.4731100000000 1.0
C      1  0.5289920000000  0.4804890000000  0.4453530000000 1.0
C      1  0.5241180000000  0.4851810000000  0.5521960000000 1.0
C      1  0.4876050000000  0.4959820000000  0.4556750000000 1.0
C      1  0.4923400000000  0.5098640000000  0.5414060000000 1.0
C      1  0.5545670000000  0.4899140000000  0.5907650000000 1.0
C      1  0.5588920000000  0.4912620000000  0.3979480000000 1.0
C      1  0.5217480000000  0.4240440000000  0.4382440000000 1.0
C      1  0.5197250000000  0.4204180000000  0.5600480000000 1.0
C      1  0.4213060000000  0.4540020000000  0.4733120000000 1.0
C      1  0.4206560000000  0.4491900000000  0.5291630000000 1.0
C      1  0.4968440000000  0.5253840000000  0.4514610000000 1.0
C      1  0.4983520000000  0.5393720000000  0.5553070000000 1.0
C      1  0.5227010000000  0.5637470000000  0.4164250000000 1.0
C      1  0.5221000000000  0.5719660000000  0.5875210000000 1.0
C      1  0.4219650000000  0.4893470000000  0.4189640000000 1.0
C      1  0.4284860000000  0.4895870000000  0.5905320000000 1.0
C      1  0.5515230000000  0.5231890000000  0.5104650000000 1.0
C      1  0.5556530000000  0.5252990000000  0.4809710000000 1.0
C      1  0.5198310000000  0.5345130000000  0.4285490000000 1.0
C      1  0.5206250000000  0.5393100000000  0.5780120000000 1.0
C      1  0.5390240000000  0.4915330000000  0.5157140000000 1.0
C      1  0.5480390000000  0.4926680000000  0.4850280000000 1.0
C      1  0.4671440000000  0.5645580000000  0.4857200000000 1.0
C      1  0.4697490000000  0.5658150000000  0.5130960000000 1.0
C      1  0.4839130000000  0.3966060000000  0.5057240000000 1.0
C      1  0.4885400000000  0.3967430000000  0.4755400000000 1.0
C      1  0.4509160000000  0.5574830000000  0.5598190000000 1.0
C      1  0.4492560000000  0.5552100000000  0.4414080000000 1.0
C      1  0.4234410000000  0.4460260000000  0.4424250000000 1.0
C      1  0.4275050000000  0.4474260000000  0.5595320000000 1.0
C      1  0.3953560000000  0.5295420000000  0.4789400000000 1.0
C      1  0.3870720000000  0.5240270000000  0.5066910000000 1.0
C      1  0.5668250000000  0.5114490000000  0.4455040000000 1.0
C      1  0.5599610000000  0.5168580000000  0.5617250000000 1.0
C      1  0.4380340000000  0.5019140000000  0.5601800000000 1.0
C      1  0.4412900000000  0.5028430000000  0.4436060000000 1.0
C      1  0.5787460000000  0.4851560000000  0.5763500000000 1.0
C      1  0.5855370000000  0.4931510000000  0.4093960000000 1.0
C      1  0.5504170000000  0.4669880000000  0.5452550000000 1.0
C      1  0.5551950000000  0.4624270000000  0.4567390000000 1.0
C      1  0.4663750000000  0.4099440000000  0.5486020000000 1.0
C      1  0.4651990000000  0.4095030000000  0.4561690000000 1.0
C      1  0.4542130000000  0.4809900000000  0.4128180000000 1.0
C      1  0.4557360000000  0.4716810000000  0.5970880000000 1.0
C      1  0.4395520000000  0.5622210000000  0.4710310000000 1.0
C      1  0.4430180000000  0.5649810000000  0.5297310000000 1.0
C      1  0.4102390000000  0.5281230000000  0.4291920000000 1.0
C      1  0.4118820000000  0.5232610000000  0.5560600000000 1.0
C      1  0.4425500000000  0.4220620000000  0.4354280000000 1.0
C      1  0.4485580000000  0.4252750000000  0.5672180000000 1.0
C      1  0.5137260000000  0.6062320000000  0.4525200000000 1.0
C      1  0.5141720000000  0.5999940000000  0.5389770000000 1.0
C      1  0.4603920000000  0.5280040000000  0.5850320000000 1.0
C      1  0.4593270000000  0.5221690000000  0.4033210000000 1.0
C      1  0.4509490000000  0.5244600000000  0.4554160000000 1.0
C      1  0.4492180000000  0.5278450000000  0.5427390000000 1.0
C      1  0.5456570000000  0.4673730000000  0.4029950000000 1.0
C      1  0.5395160000000  0.4680110000000  0.5980010000000 1.0
C      1  0.5984490000000  0.4903390000000  0.4357160000000 1.0
C      1  0.5990000000000  0.4838520000000  0.5488250000000 1.0
C      1  0.5613460000000  0.5765840000000  0.5478170000000 1.0
C      1  0.5621670000000  0.5791300000000  0.4511210000000 1.0
C      1  0.5715310000000  0.4335300000000  0.5501450000000 1.0
C      1  0.5769600000000  0.4325530000000  0.4429720000000 1.0
C      1  0.3954830000000  0.5235030000000  0.5330930000000 1.0
C      1  0.3931580000000  0.5254000000000  0.4508080000000 1.0
C      1  0.5746970000000  0.5484930000000  0.4730000000000 1.0
C      1  0.5689300000000  0.5435070000000  0.5269760000000 1.0
C      1  0.4742150000000  0.5767360000000  0.5657260000000 1.0
C      1  0.4757730000000  0.5708760000000  0.4342710000000 1.0
C      1  0.4863980000000  0.5385110000000  0.5986580000000 1.0
C      1  0.4877010000000  0.5358400000000  0.3961310000000 1.0
C      1  0.4959660000000  0.4260950000000  0.5138730000000 1.0
C      1  0.4990540000000  0.4256010000000  0.4834710000000 1.0
C      1  0.4963550000000  0.4890330000000  0.4878320000000 1.0
C      1  0.5005910000000  0.5041730000000  0.5152850000000 1.0
C      1  0.5997130000000  0.5428960000000  0.5176200000000 1.0
C      1  0.6023050000000  0.5527710000000  0.4885160000000 1.0
C      1  0.5643680000000  0.4246060000000  0.5121330000000 1.0
C      1  0.5698010000000  0.4247990000000  0.4797370000000 1.0
C      1  0.4916690000000  0.4499980000000  0.5607410000000 1.0
C      1  0.4742890000000  0.4549120000000  0.4436830000000 1.0
C      1  0.4675090000000  0.5261010000000  0.5147980000000 1.0
C      1  0.4678850000000  0.5248380000000  0.4817650000000 1.0
C      1  0.5791350000000  0.4941410000000  0.4732510000000 1.0
C      1  0.5637940000000  0.4953410000000  0.5356460000000 1.0
C      1  0.4956460000000  0.4957070000000  0.3894360000000 1.0
C      1  0.4964160000000  0.4913120000000  0.6170070000000 1.0
C      1  0.4915140000000  0.4914330000000  0.5855940000000 1.0
C      1  0.5067880000000  0.5077290000000  0.4171590000000 1.0
C      1  0.4742600000000  0.4341780000000  0.5792660000000 1.0
C      1  0.4726690000000  0.4295670000000  0.4227100000000 1.0
C      1  0.4576370000000  0.4195940000000  0.4863820000000 1.0
C      1  0.4588710000000  0.4127290000000  0.5196660000000 1.0
C      1  0.4652510000000  0.4650940000000  0.5341720000000 1.0
C      1  0.4691440000000  0.4698710000000  0.4801640000000 1.0
C      1  0.5226960000000  0.4403490000000  0.5876060000000 1.0
C      1  0.5236150000000  0.4431490000000  0.4121510000000 1.0
C      1  0.4292710000000  0.5367730000000  0.5163610000000 1.0
C      1  0.4243420000000  0.5405020000000  0.4848820000000 1.0
C      1  0.5062010000000  0.5717330000000  0.4836710000000 1.0
C      1  0.5107200000000  0.5684780000000  0.5130480000000 1.0
C      1  0.5984160000000  0.5194290000000  0.4855650000000 1.0
C      1  0.5886990000000  0.5104340000000  0.5174340000000 1.0
C      1  0.4908400000000  0.6004130000000  0.4776720000000 1.0
C      1  0.4932810000000  0.5978670000000  0.5119300000000 1.0
C      1  0.4460200000000  0.4691020000000  0.4436210000000 1.0
C      1  0.4508810000000  0.4711270000000  0.5633260000000 1.0
C      1  0.5450440000000  0.4477190000000  0.4858720000000 1.0
C      1  0.5445590000000  0.4518020000000  0.5172720000000 1.0
C      1  0.5137800000000  0.5270680000000  0.4985260000000 1.0
END
