TITL C-2782234-8014-37 0.00489094737320149 125000 -997.795109964383 0 0 174 (C1) n - 1
REM
REM in /home/nfs/bkarasulu/CARBON/AIRSS/Generating-Clusters/REBO/Higher-Symm/SD-CG/HFTN-CG
REM
REM
REM
REM
REM
REM ./C.cell (12c818d87b63d06a65506943cc24bca4)
REM
REM compiler GCC version 9.2.1 20190827 (Red Hat 9.2.1-1)
REM options -cpp -mtune=generic -march=x86-64 -g -O0 -fpre-include=/usr/include/finclude/math-vector-fortran.h
REM seed 961167773 72935825 908984800 1030342391 1356326357 496111508 -638530239 -1665335070 565726463 1495894685 -1852633757 -1510402147 387809358 -479793563 1753393011 1826125915 1733710388 -1052624793 1809313518 215843181 2095003885 140459620 -1981295639 236171459 -315426750 1171942614 -708627568 1001878752 117022271 -699687113 -1599231841 -1933068536 -1316889813
REM
CELL 1.54180   50.00000   50.00000   50.00000   90.00000   90.00000   90.00000
LATT -1
SFAC C  
C      1  0.4660660000000  0.5217090000000  0.4220210000000 1.0
C      1  0.5274540000000  0.5626870000000  0.4512230000000 1.0
C      1  0.4706230000000  0.5793140000000  0.4953810000000 1.0
C      1  0.5330660000000  0.5678060000000  0.5477770000000 1.0
C      1  0.4696470000000  0.5248250000000  0.5715710000000 1.0
C      1  0.5328700000000  0.4781600000000  0.5804750000000 1.0
C      1  0.4709750000000  0.4396340000000  0.5471890000000 1.0
C      1  0.5303340000000  0.4228070000000  0.5004880000000 1.0
C      1  0.4669900000000  0.4336410000000  0.4563720000000 1.0
C      1  0.5310510000000  0.4805630000000  0.4222000000000 1.0
C      1  0.5873080000000  0.5062310000000  0.5377270000000 1.0
C      1  0.4080660000000  0.4788210000000  0.5308350000000 1.0
C      1  0.5868590000000  0.4699820000000  0.5133070000000 1.0
C      1  0.4078130000000  0.4633530000000  0.4887440000000 1.0
C      1  0.5837450000000  0.4713110000000  0.4622660000000 1.0
C      1  0.4110670000000  0.4989680000000  0.4601550000000 1.0
C      1  0.5853160000000  0.5198010000000  0.4642990000000 1.0
C      1  0.4049980000000  0.5276700000000  0.4872920000000 1.0
C      1  0.5883200000000  0.5317410000000  0.5070920000000 1.0
C      1  0.4099770000000  0.5237620000000  0.5265930000000 1.0
C      1  0.5106870000000  0.4417730000000  0.4856950000000 1.0
C      1  0.4883320000000  0.4543420000000  0.4663830000000 1.0
C      1  0.5099490000000  0.4968750000000  0.4410210000000 1.0
C      1  0.4882160000000  0.5198190000000  0.4445560000000 1.0
C      1  0.5120590000000  0.5522550000000  0.4763730000000 1.0
C      1  0.4924530000000  0.5575850000000  0.5021780000000 1.0
C      1  0.5139370000000  0.5417930000000  0.5461690000000 1.0
C      1  0.4945890000000  0.5150090000000  0.5548880000000 1.0
C      1  0.5148760000000  0.4696850000000  0.5557570000000 1.0
C      1  0.4961490000000  0.4528630000000  0.5328330000000 1.0
C      1  0.5358000000000  0.4991940000000  0.3860700000000 1.0
C      1  0.4611340000000  0.5588840000000  0.4083880000000 1.0
C      1  0.5400530000000  0.5990420000000  0.4621250000000 1.0
C      1  0.4613760000000  0.6027730000000  0.5264010000000 1.0
C      1  0.5363410000000  0.5691460000000  0.5875330000000 1.0
C      1  0.4601120000000  0.5072960000000  0.6062380000000 1.0
C      1  0.5384610000000  0.4402690000000  0.5916190000000 1.0
C      1  0.4603450000000  0.4008240000000  0.5412230000000 1.0
C      1  0.5358740000000  0.3942750000000  0.4731160000000 1.0
C      1  0.4664070000000  0.4307500000000  0.4167410000000 1.0
C      1  0.5274250000000  0.5227890000000  0.4513480000000 1.0
C      1  0.4847520000000  0.5379700000000  0.4683370000000 1.0
C      1  0.5333730000000  0.5524050000000  0.5028530000000 1.0
C      1  0.4872280000000  0.5462000000000  0.5305180000000 1.0
C      1  0.5303830000000  0.5120210000000  0.5554860000000 1.0
C      1  0.4871820000000  0.4840540000000  0.5561700000000 1.0
C      1  0.5320330000000  0.4530950000000  0.5299600000000 1.0
C      1  0.4857560000000  0.4439960000000  0.5046020000000 1.0
C      1  0.5275740000000  0.4612740000000  0.4644610000000 1.0
C      1  0.4855860000000  0.4807040000000  0.4513990000000 1.0
C      1  0.4990020000000  0.4265430000000  0.5622130000000 1.0
C      1  0.5013480000000  0.4073560000000  0.5083920000000 1.0
C      1  0.4970100000000  0.4188120000000  0.4513850000000 1.0
C      1  0.5048080000000  0.4664240000000  0.4082080000000 1.0
C      1  0.4961920000000  0.5257260000000  0.4066110000000 1.0
C      1  0.4991690000000  0.5760390000000  0.4404210000000 1.0
C      1  0.5006010000000  0.5955480000000  0.4944280000000 1.0
C      1  0.5022080000000  0.5798010000000  0.5501590000000 1.0
C      1  0.4974550000000  0.5354390000000  0.5887340000000 1.0
C      1  0.5019430000000  0.4775970000000  0.5927510000000 1.0
C      1  0.4484740000000  0.5558690000000  0.4332300000000 1.0
C      1  0.5594780000000  0.5846660000000  0.4806400000000 1.0
C      1  0.4424590000000  0.5802080000000  0.5338010000000 1.0
C      1  0.5566890000000  0.5482280000000  0.5793300000000 1.0
C      1  0.4422010000000  0.4935310000000  0.5860240000000 1.0
C      1  0.5578540000000  0.4418990000000  0.5684780000000 1.0
C      1  0.4407610000000  0.4145990000000  0.5218600000000 1.0
C      1  0.5503420000000  0.4173550000000  0.4640330000000 1.0
C      1  0.4472180000000  0.4525910000000  0.4251530000000 1.0
C      1  0.5556480000000  0.5084590000000  0.4063510000000 1.0
C      1  0.5091310000000  0.4969520000000  0.3938640000000 1.0
C      1  0.4934580000000  0.5598050000000  0.4109920000000 1.0
C      1  0.5122580000000  0.5971640000000  0.4636430000000 1.0
C      1  0.4888840000000  0.5985550000000  0.5251000000000 1.0
C      1  0.5097930000000  0.5651240000000  0.5799050000000 1.0
C      1  0.4877740000000  0.5071160000000  0.6022480000000 1.0
C      1  0.5113770000000  0.4453010000000  0.5871150000000 1.0
C      1  0.4881350000000  0.4046490000000  0.5396460000000 1.0
C      1  0.5085780000000  0.3996440000000  0.4764610000000 1.0
C      1  0.4992750000000  0.4353200000000  0.4212420000000 1.0
C      1  0.4706480000000  0.4765480000000  0.5832060000000 1.0
C      1  0.5304830000000  0.4286740000000  0.5542430000000 1.0
C      1  0.4703330000000  0.4160820000000  0.5058400000000 1.0
C      1  0.5267360000000  0.4333880000000  0.4501000000000 1.0
C      1  0.4769950000000  0.4684090000000  0.4238640000000 1.0
C      1  0.5284740000000  0.5228930000000  0.4173770000000 1.0
C      1  0.4725280000000  0.5621760000000  0.4530260000000 1.0
C      1  0.5306310000000  0.5862540000000  0.4987200000000 1.0
C      1  0.4713930000000  0.5700700000000  0.5468860000000 1.0
C      1  0.5285630000000  0.5301310000000  0.5846040000000 1.0
C      1  0.4479360000000  0.4389880000000  0.5690470000000 1.0
C      1  0.5535810000000  0.4123460000000  0.5184500000000 1.0
C      1  0.4454940000000  0.4130820000000  0.4659160000000 1.0
C      1  0.5598690000000  0.4426020000000  0.4158350000000 1.0
C      1  0.4491730000000  0.5023130000000  0.4022350000000 1.0
C      1  0.5461790000000  0.5576220000000  0.4260720000000 1.0
C      1  0.4510780000000  0.5895590000000  0.4727030000000 1.0
C      1  0.5578770000000  0.5874440000000  0.5386220000000 1.0
C      1  0.4469610000000  0.5457210000000  0.5783150000000 1.0
C      1  0.5556280000000  0.4944030000000  0.5968680000000 1.0
C      1  0.4085710000000  0.5298150000000  0.4547010000000 1.0
C      1  0.5928320000000  0.5456140000000  0.4774200000000 1.0
C      1  0.4020610000000  0.5521890000000  0.5107930000000 1.0
C      1  0.5905990000000  0.5403530000000  0.5398910000000 1.0
C      1  0.4033420000000  0.5049260000000  0.5494810000000 1.0
C      1  0.5934210000000  0.4740110000000  0.5468800000000 1.0
C      1  0.4009410000000  0.4520850000000  0.5188330000000 1.0
C      1  0.5893690000000  0.4501760000000  0.4866640000000 1.0
C      1  0.4040370000000  0.4668910000000  0.4585390000000 1.0
C      1  0.5914440000000  0.4939240000000  0.4450770000000 1.0
C      1  0.4271310000000  0.5704820000000  0.4724460000000 1.0
C      1  0.5792900000000  0.5670190000000  0.5233920000000 1.0
C      1  0.4251100000000  0.5420110000000  0.5582170000000 1.0
C      1  0.5760640000000  0.5049340000000  0.5758870000000 1.0
C      1  0.4262510000000  0.4571990000000  0.5585750000000 1.0
C      1  0.5733330000000  0.4341700000000  0.5238430000000 1.0
C      1  0.4234790000000  0.4284540000000  0.4787320000000 1.0
C      1  0.5794170000000  0.4416190000000  0.4358260000000 1.0
C      1  0.4340480000000  0.4988240000000  0.4279180000000 1.0
C      1  0.5703550000000  0.5412740000000  0.4344940000000 1.0
C      1  0.5564410000000  0.5204780000000  0.5352910000000 1.0
C      1  0.4376670000000  0.4955470000000  0.5320060000000 1.0
C      1  0.5576060000000  0.4758980000000  0.5301910000000 1.0
C      1  0.4366370000000  0.4645710000000  0.5068070000000 1.0
C      1  0.5584980000000  0.4748380000000  0.4856970000000 1.0
C      1  0.4384500000000  0.4818840000000  0.4710470000000 1.0
C      1  0.5583030000000  0.5017720000000  0.4653370000000 1.0
C      1  0.4380760000000  0.5206850000000  0.4797980000000 1.0
C      1  0.5581260000000  0.5318540000000  0.4910140000000 1.0
C      1  0.4370160000000  0.5340080000000  0.5102140000000 1.0
C      1  0.4409440000000  0.4527770000000  0.4672470000000 1.0
C      1  0.5453990000000  0.4802450000000  0.4484630000000 1.0
C      1  0.4462500000000  0.5176810000000  0.4499040000000 1.0
C      1  0.5514780000000  0.5408670000000  0.4618430000000 1.0
C      1  0.4420950000000  0.5611260000000  0.4988350000000 1.0
C      1  0.5524020000000  0.5492270000000  0.5296430000000 1.0
C      1  0.4429060000000  0.5156700000000  0.5524100000000 1.0
C      1  0.5549140000000  0.4874870000000  0.5577750000000 1.0
C      1  0.4434810000000  0.4530820000000  0.5320890000000 1.0
C      1  0.5522650000000  0.4487220000000  0.5013310000000 1.0
C      1  0.4773040000000  0.4918930000000  0.5272210000000 1.0
C      1  0.5182660000000  0.4787950000000  0.5122980000000 1.0
C      1  0.4777560000000  0.4743080000000  0.5045380000000 1.0
C      1  0.5169090000000  0.4817870000000  0.4847210000000 1.0
C      1  0.4781070000000  0.4902780000000  0.4806080000000 1.0
C      1  0.5156320000000  0.5095840000000  0.4784800000000 1.0
C      1  0.4768360000000  0.5178260000000  0.4891730000000 1.0
C      1  0.5164550000000  0.5233300000000  0.5040350000000 1.0
C      1  0.4770660000000  0.5190260000000  0.5177940000000 1.0
C      1  0.5179830000000  0.5039440000000  0.5245290000000 1.0
C      1  0.4243240000000  0.5531070000000  0.4488830000000 1.0
C      1  0.5801720000000  0.5694110000000  0.4919040000000 1.0
C      1  0.4213580000000  0.5610500000000  0.5353190000000 1.0
C      1  0.5774990000000  0.5327510000000  0.5685620000000 1.0
C      1  0.4219710000000  0.4852590000000  0.5677350000000 1.0
C      1  0.5781240000000  0.4474800000000  0.5493280000000 1.0
C      1  0.4195740000000  0.4284330000000  0.5081900000000 1.0
C      1  0.5752360000000  0.4323690000000  0.4632880000000 1.0
C      1  0.4264790000000  0.4706630000000  0.4346240000000 1.0
C      1  0.5766770000000  0.5142860000000  0.4249470000000 1.0
C      1  0.5332660000000  0.4383330000000  0.4194630000000 1.0
C      1  0.4630410000000  0.4793220000000  0.3963130000000 1.0
C      1  0.5247540000000  0.5531120000000  0.4041990000000 1.0
C      1  0.4649700000000  0.5954180000000  0.4476900000000 1.0
C      1  0.5461750000000  0.6046330000000  0.5194800000000 1.0
C      1  0.4584700000000  0.5707930000000  0.5757630000000 1.0
C      1  0.5424420000000  0.5157580000000  0.6093700000000 1.0
C      1  0.4590400000000  0.4488480000000  0.5925000000000 1.0
C      1  0.5424820000000  0.4020400000000  0.5422170000000 1.0
C      1  0.4574880000000  0.3965370000000  0.4844620000000 1.0
C      1  0.5623410000000  0.5014370000000  0.5068930000000 1.0
C      1  0.4444410000000  0.4959560000000  0.5009260000000 1.0
C      1  0.3889730000000  0.5055030000000  0.4946620000000 1.0
C      1  0.5972610000000  0.5002780000000  0.5058660000000 1.0
END
