TITL C-2782237-5345-1453 0.000468943664552608 125000 -392.040674317428 0 0 70 (C7) n - 1
REM
REM in /home/nfs/bkarasulu/CARBON/AIRSS/Generating-Clusters/REBO/Higher-Symm/SD-CG/HFTN-CG
REM
REM
REM
REM
REM
REM ./C.cell (12c818d87b63d06a65506943cc24bca4)
REM
REM compiler GCC version 9.2.1 20190827 (Red Hat 9.2.1-1)
REM options -cpp -mtune=generic -march=x86-64 -g -O0 -fpre-include=/usr/include/finclude/math-vector-fortran.h
REM seed 46829088 380035547 -2075869109 1021610472 -2033687359 895638956 1630697734 -1454769533 -1462445767 -413006464 619968698 -2068178707 2017464109 1301045328 1130715500 1038101399 -1350457569 -897745396 1627125665 -1307193716 -1044584123 1478933438 -1575502954 -1359291780 -866072842 590744052 -683175578 -1618611999 402000027 2058700074 -342828909 928911806 -588139030
REM
CELL 1.54180   50.00000   50.00000   50.00000   90.00000   90.00000   90.00000
LATT -1
SFAC C  
C      1  0.5138500000000  0.4965620000000  0.4611980000000 1.0
C      1  0.5138520000000  0.5281930000000  0.4731200000000 1.0
C      1  0.5138530000000  0.5385930000000  0.5052830000000 1.0
C      1  0.5138520000000  0.5199310000000  0.5334680000000 1.0
C      1  0.5138500000000  0.4862600000000  0.5364500000000 1.0
C      1  0.5138490000000  0.4629350000000  0.5119850000000 1.0
C      1  0.5138480000000  0.4675200000000  0.4784950000000 1.0
C      1  0.5383180000000  0.4553570000000  0.5424810000000 1.0
C      1  0.5383160000000  0.4389520000000  0.4915850000000 1.0
C      1  0.5383170000000  0.4685150000000  0.4470250000000 1.0
C      1  0.5383200000000  0.5217850000000  0.4423560000000 1.0
C      1  0.5383230000000  0.5586490000000  0.4810940000000 1.0
C      1  0.5383230000000  0.5513480000000  0.5340680000000 1.0
C      1  0.5383210000000  0.5053780000000  0.5613870000000 1.0
C      1  0.5100080000000  0.5777090000000  0.4848630000000 1.0
C      1  0.5100080000000  0.5602850000000  0.5513180000000 1.0
C      1  0.5100050000000  0.4974640000000  0.5791290000000 1.0
C      1  0.5100010000000  0.4365530000000  0.5473540000000 1.0
C      1  0.5099990000000  0.4234180000000  0.4799200000000 1.0
C      1  0.5100010000000  0.4679500000000  0.4276070000000 1.0
C      1  0.5100050000000  0.5366160000000  0.4298070000000 1.0
C      1  0.4489380000000  0.4755400000000  0.4693820000000 1.0
C      1  0.4489400000000  0.5086900000000  0.4617840000000 1.0
C      1  0.4489420000000  0.5352980000000  0.4829650000000 1.0
C      1  0.4489420000000  0.5353280000000  0.5169740000000 1.0
C      1  0.4489410000000  0.5087580000000  0.5382010000000 1.0
C      1  0.4489390000000  0.4755950000000  0.5306630000000 1.0
C      1  0.4489370000000  0.4608120000000  0.5000360000000 1.0
C      1  0.4760050000000  0.5566420000000  0.5489440000000 1.0
C      1  0.4760020000000  0.4970500000000  0.5748000000000 1.0
C      1  0.4759990000000  0.4396810000000  0.5443300000000 1.0
C      1  0.4759970000000  0.4277340000000  0.4804790000000 1.0
C      1  0.4759990000000  0.4702060000000  0.4313280000000 1.0
C      1  0.4760030000000  0.5351140000000  0.4338890000000 1.0
C      1  0.4760060000000  0.5735820000000  0.4862330000000 1.0
C      1  0.4668340000000  0.4679670000000  0.5585590000000 1.0
C      1  0.4668310000000  0.4342450000000  0.5114650000000 1.0
C      1  0.4668310000000  0.4500400000000  0.4557380000000 1.0
C      1  0.4668340000000  0.5034570000000  0.4333410000000 1.0
C      1  0.4668370000000  0.5542720000000  0.4611400000000 1.0
C      1  0.4668390000000  0.5642210000000  0.5182020000000 1.0
C      1  0.4668370000000  0.5258110000000  0.5615570000000 1.0
C      1  0.4925090000000  0.5637590000000  0.4414800000000 1.0
C      1  0.4925120000000  0.5855060000000  0.5133620000000 1.0
C      1  0.4925100000000  0.5428650000000  0.5751820000000 1.0
C      1  0.4925060000000  0.4679470000000  0.5803880000000 1.0
C      1  0.4925020000000  0.4171650000000  0.5250610000000 1.0
C      1  0.4925020000000  0.4287600000000  0.4508620000000 1.0
C      1  0.4925050000000  0.4940010000000  0.4136650000000 1.0
C      1  0.5217790000000  0.4988350000000  0.4281620000000 1.0
C      1  0.5217830000000  0.5554390000000  0.4543000000000 1.0
C      1  0.5217850000000  0.5702950000000  0.5148510000000 1.0
C      1  0.5217830000000  0.5322160000000  0.5642190000000 1.0
C      1  0.5217790000000  0.4698770000000  0.5652280000000 1.0
C      1  0.5217760000000  0.4302210000000  0.5171190000000 1.0
C      1  0.5217760000000  0.4431080000000  0.4561190000000 1.0
C      1  0.4815380000000  0.5356100000000  0.4945590000000 1.0
C      1  0.4815380000000  0.5264570000000  0.5244480000000 1.0
C      1  0.4815360000000  0.4973820000000  0.5359270000000 1.0
C      1  0.4815340000000  0.4702800000000  0.5203530000000 1.0
C      1  0.4815340000000  0.4655580000000  0.4894520000000 1.0
C      1  0.4815350000000  0.4867730000000  0.4664950000000 1.0
C      1  0.4815360000000  0.5179490000000  0.4687680000000 1.0
C      1  0.5502270000000  0.4747700000000  0.5233950000000 1.0
C      1  0.5502260000000  0.4659770000000  0.4948630000000 1.0
C      1  0.5502260000000  0.4828010000000  0.4701990000000 1.0
C      1  0.5502280000000  0.5125750000000  0.4679750000000 1.0
C      1  0.5502290000000  0.5328770000000  0.4898660000000 1.0
C      1  0.5502300000000  0.5284200000000  0.5193880000000 1.0
C      1  0.5502280000000  0.5025600000000  0.5343100000000 1.0
END
