TITL C-2782230-7391-58 -0.0156565862654046 125000 -707.757040173372 0 0 132 (C1) n - 1
REM
REM in /home/nfs/bkarasulu/CARBON/AIRSS/Generating-Clusters/REBO/Higher-Symm/SD-CG/HFTN-CG
REM
REM
REM
REM
REM
REM ./C.cell (12c818d87b63d06a65506943cc24bca4)
REM
REM compiler GCC version 9.2.1 20190827 (Red Hat 9.2.1-1)
REM options -cpp -mtune=generic -march=x86-64 -g -O0 -fpre-include=/usr/include/finclude/math-vector-fortran.h
REM seed -1740239510 735032149 -2098572385 2094195270 1301258114 1658956801 13648312 644000919 -1292271024 985187150 -1703991981 2026914657 -86919570 477475585 -277427578 2130555638 -715051030 -1762050201 -277825982 795561577 -220805333 1903994587 -972370348 1201657979 -1893290146 1078269686 -1069511833 -301569387 456988476 402176996 -1477501011 396020135 -1921380077
REM
CELL 1.54180   50.00000   50.00000   50.00000   90.00000   90.00000   90.00000
LATT -1
SFAC C  
C      1  0.4280720000000  0.4232040000000  0.4848000000000 1.0
C      1  0.4857490000000  0.4248430000000  0.4243900000000 1.0
C      1  0.4255120000000  0.4850620000000  0.4255830000000 1.0
C      1  0.5733300000000  0.5749180000000  0.4863050000000 1.0
C      1  0.5733430000000  0.4259350000000  0.5137060000000 1.0
C      1  0.4294650000000  0.5768960000000  0.5134750000000 1.0
C      1  0.5145180000000  0.5722430000000  0.4216290000000 1.0
C      1  0.5144240000000  0.4252640000000  0.5760600000000 1.0
C      1  0.4864850000000  0.5697440000000  0.5788450000000 1.0
C      1  0.5738260000000  0.5153150000000  0.4249210000000 1.0
C      1  0.5746420000000  0.4861270000000  0.5744680000000 1.0
C      1  0.4241180000000  0.5163110000000  0.5718440000000 1.0
C      1  0.4256400000000  0.4229560000000  0.5131560000000 1.0
C      1  0.4860460000000  0.4240870000000  0.5775560000000 1.0
C      1  0.4234490000000  0.4879760000000  0.5739270000000 1.0
C      1  0.5721060000000  0.5755660000000  0.5139700000000 1.0
C      1  0.5752690000000  0.4258880000000  0.4860680000000 1.0
C      1  0.4311780000000  0.5773150000000  0.4850640000000 1.0
C      1  0.5161090000000  0.5727860000000  0.5795640000000 1.0
C      1  0.5142030000000  0.4233280000000  0.4227950000000 1.0
C      1  0.4849990000000  0.5742630000000  0.4210800000000 1.0
C      1  0.5745400000000  0.5139160000000  0.5759890000000 1.0
C      1  0.5743140000000  0.4876240000000  0.4229890000000 1.0
C      1  0.4256120000000  0.5127280000000  0.4233380000000 1.0
C      1  0.4846410000000  0.4683320000000  0.4151140000000 1.0
C      1  0.4159680000000  0.4847090000000  0.4710130000000 1.0
C      1  0.4679110000000  0.4149840000000  0.4873880000000 1.0
C      1  0.5145190000000  0.5304560000000  0.4154170000000 1.0
C      1  0.5160020000000  0.4679900000000  0.5858580000000 1.0
C      1  0.4846790000000  0.5305470000000  0.5862550000000 1.0
C      1  0.5837650000000  0.5158100000000  0.4687700000000 1.0
C      1  0.5837490000000  0.4852890000000  0.5313750000000 1.0
C      1  0.4147620000000  0.5149810000000  0.5330750000000 1.0
C      1  0.5296310000000  0.5843220000000  0.4853900000000 1.0
C      1  0.5326960000000  0.4149350000000  0.5131400000000 1.0
C      1  0.4711970000000  0.5838700000000  0.5155130000000 1.0
C      1  0.4858290000000  0.4682750000000  0.5852500000000 1.0
C      1  0.4131940000000  0.4849300000000  0.5339910000000 1.0
C      1  0.4706560000000  0.4159450000000  0.5172820000000 1.0
C      1  0.5157720000000  0.5320420000000  0.5862790000000 1.0
C      1  0.5152770000000  0.4688810000000  0.4146050000000 1.0
C      1  0.4840050000000  0.5308790000000  0.4138480000000 1.0
C      1  0.5841470000000  0.5162050000000  0.5314460000000 1.0
C      1  0.5840710000000  0.4852240000000  0.4687210000000 1.0
C      1  0.4162720000000  0.5164600000000  0.4702390000000 1.0
C      1  0.5294130000000  0.5843210000000  0.5148630000000 1.0
C      1  0.5296690000000  0.4169390000000  0.4832360000000 1.0
C      1  0.4715350000000  0.5838210000000  0.4860470000000 1.0
C      1  0.4736630000000  0.4499230000000  0.5593380000000 1.0
C      1  0.5575360000000  0.4748420000000  0.4494940000000 1.0
C      1  0.4558340000000  0.5555620000000  0.4752850000000 1.0
C      1  0.5245760000000  0.5485420000000  0.5568500000000 1.0
C      1  0.5259410000000  0.4496640000000  0.4408140000000 1.0
C      1  0.4750100000000  0.5491130000000  0.4418130000000 1.0
C      1  0.4425840000000  0.5251410000000  0.4498440000000 1.0
C      1  0.4418550000000  0.4735480000000  0.5490540000000 1.0
C      1  0.5563920000000  0.5254420000000  0.5496840000000 1.0
C      1  0.5490750000000  0.4427940000000  0.4725250000000 1.0
C      1  0.5460740000000  0.5567160000000  0.5260360000000 1.0
C      1  0.4506440000000  0.4415710000000  0.5268800000000 1.0
C      1  0.4770600000000  0.4514160000000  0.4441650000000 1.0
C      1  0.5548220000000  0.4765660000000  0.5480950000000 1.0
C      1  0.4536110000000  0.5563720000000  0.5261190000000 1.0
C      1  0.5221850000000  0.5474560000000  0.4443340000000 1.0
C      1  0.5243670000000  0.4516740000000  0.5566960000000 1.0
C      1  0.4792020000000  0.5451020000000  0.5556970000000 1.0
C      1  0.4451600000000  0.5246480000000  0.5459470000000 1.0
C      1  0.4439700000000  0.4759190000000  0.4530210000000 1.0
C      1  0.5549740000000  0.5246250000000  0.4520560000000 1.0
C      1  0.5464450000000  0.4444700000000  0.5239960000000 1.0
C      1  0.5473070000000  0.5571980000000  0.4738730000000 1.0
C      1  0.4537480000000  0.4442240000000  0.4762960000000 1.0
C      1  0.5473730000000  0.5315400000000  0.4195490000000 1.0
C      1  0.4209620000000  0.5472720000000  0.5241300000000 1.0
C      1  0.5248310000000  0.4196590000000  0.5459450000000 1.0
C      1  0.4513300000000  0.4677410000000  0.4206560000000 1.0
C      1  0.4516560000000  0.5307670000000  0.5788760000000 1.0
C      1  0.5487870000000  0.4692100000000  0.5808360000000 1.0
C      1  0.5790430000000  0.4518490000000  0.5309530000000 1.0
C      1  0.5799950000000  0.5491160000000  0.4688040000000 1.0
C      1  0.4207510000000  0.4509380000000  0.4706070000000 1.0
C      1  0.4771310000000  0.5783250000000  0.5486850000000 1.0
C      1  0.4755020000000  0.4193080000000  0.4545180000000 1.0
C      1  0.5242080000000  0.5802320000000  0.4519540000000 1.0
C      1  0.5484630000000  0.5309190000000  0.5823240000000 1.0
C      1  0.4223140000000  0.5500710000000  0.4708070000000 1.0
C      1  0.5294740000000  0.4176580000000  0.4504300000000 1.0
C      1  0.4530610000000  0.4762750000000  0.5804510000000 1.0
C      1  0.4509730000000  0.5307900000000  0.4173290000000 1.0
C      1  0.5491370000000  0.4691330000000  0.4169510000000 1.0
C      1  0.5817500000000  0.4517580000000  0.4688540000000 1.0
C      1  0.5792620000000  0.5498480000000  0.5307950000000 1.0
C      1  0.4188190000000  0.4525910000000  0.5247000000000 1.0
C      1  0.4749280000000  0.5813680000000  0.4521080000000 1.0
C      1  0.4705840000000  0.4177530000000  0.5501120000000 1.0
C      1  0.5254090000000  0.5815110000000  0.5487330000000 1.0
C      1  0.4547430000000  0.5174270000000  0.4805190000000 1.0
C      1  0.4807690000000  0.4555180000000  0.5201240000000 1.0
C      1  0.5180970000000  0.4805900000000  0.4526470000000 1.0
C      1  0.5462820000000  0.4817470000000  0.4809790000000 1.0
C      1  0.5467870000000  0.5177870000000  0.5179460000000 1.0
C      1  0.4484450000000  0.4800490000000  0.5163200000000 1.0
C      1  0.5158300000000  0.5467990000000  0.5139380000000 1.0
C      1  0.5189540000000  0.4559140000000  0.4814710000000 1.0
C      1  0.4867510000000  0.5469000000000  0.4865810000000 1.0
C      1  0.4818190000000  0.5178700000000  0.4513650000000 1.0
C      1  0.4834630000000  0.4783150000000  0.5433100000000 1.0
C      1  0.5174140000000  0.5177110000000  0.5492510000000 1.0
C      1  0.4497080000000  0.5133270000000  0.5140950000000 1.0
C      1  0.4855310000000  0.4506710000000  0.4868000000000 1.0
C      1  0.5147830000000  0.4835350000000  0.5492960000000 1.0
C      1  0.5470850000000  0.4850770000000  0.5160370000000 1.0
C      1  0.5468690000000  0.5146880000000  0.4836230000000 1.0
C      1  0.4536570000000  0.4875260000000  0.4835120000000 1.0
C      1  0.5181220000000  0.5462130000000  0.4832030000000 1.0
C      1  0.5141800000000  0.4500670000000  0.5143840000000 1.0
C      1  0.4841500000000  0.5461930000000  0.5173060000000 1.0
C      1  0.4845890000000  0.5115760000000  0.5512060000000 1.0
C      1  0.4850840000000  0.4836260000000  0.4518230000000 1.0
C      1  0.5144670000000  0.5151970000000  0.4522380000000 1.0
C      1  0.5756520000000  0.4760310000000  0.4996990000000 1.0
C      1  0.5001420000000  0.5913980000000  0.4712760000000 1.0
C      1  0.4759370000000  0.4992640000000  0.5815370000000 1.0
C      1  0.4199700000000  0.5236190000000  0.5004400000000 1.0
C      1  0.4176730000000  0.4762820000000  0.5011460000000 1.0
C      1  0.5750950000000  0.5249820000000  0.5000420000000 1.0
C      1  0.4999550000000  0.4210190000000  0.4772070000000 1.0
C      1  0.5243940000000  0.4993400000000  0.4239420000000 1.0
C      1  0.4749580000000  0.4996140000000  0.4232570000000 1.0
C      1  0.5004440000000  0.5915180000000  0.5295300000000 1.0
C      1  0.5003620000000  0.4199850000000  0.5233430000000 1.0
C      1  0.5237540000000  0.5000200000000  0.5779500000000 1.0
END
