TITL C-2782228-2999-181 -0.00468033199219371 125000 -1033.34219760057 0 0 183 (C1) n - 1
REM
REM in /home/nfs/bkarasulu/CARBON/AIRSS/Generating-Clusters/REBO/Higher-Symm/SD-CG/HFTN-CG
REM
REM
REM
REM
REM
REM ./C.cell (12c818d87b63d06a65506943cc24bca4)
REM
REM compiler GCC version 9.2.1 20190827 (Red Hat 9.2.1-1)
REM options -cpp -mtune=generic -march=x86-64 -g -O0 -fpre-include=/usr/include/finclude/math-vector-fortran.h
REM seed 353177712 -1267269143 227497890 1577559361 -30930083 -365412161 1822387250 977995383 1158817400 -563923594 -2101452262 -1064059162 -1895851834 -1418887937 1438082431 -1513495710 -159416246 -1375276951 742383694 -1729061735 1765679557 357877054 1561498137 -176847303 -561048527 -1228778706 -1164908151 -1250547086 1671870161 -1034541506 -832835255 -1625117153 -670123711
REM
CELL 1.54180   50.00000   50.00000   50.00000   90.00000   90.00000   90.00000
LATT -1
SFAC C  
C      1  0.5879790000000  0.5206200000000  0.4455820000000 1.0
C      1  0.5125930000000  0.4099660000000  0.5570490000000 1.0
C      1  0.4102990000000  0.4803170000000  0.4466740000000 1.0
C      1  0.4827680000000  0.5887410000000  0.5484930000000 1.0
C      1  0.5270010000000  0.4928190000000  0.5336340000000 1.0
C      1  0.4869010000000  0.4645710000000  0.4718090000000 1.0
C      1  0.4701060000000  0.5058860000000  0.5313360000000 1.0
C      1  0.4984870000000  0.5434230000000  0.4715910000000 1.0
C      1  0.4979580000000  0.5181580000000  0.5444840000000 1.0
C      1  0.5306160000000  0.4887180000000  0.4500190000000 1.0
C      1  0.5007800000000  0.4784740000000  0.5480530000000 1.0
C      1  0.4794140000000  0.4934650000000  0.4550120000000 1.0
C      1  0.6070190000000  0.5400260000000  0.5525730000000 1.0
C      1  0.5387130000000  0.3833580000000  0.4560310000000 1.0
C      1  0.3887790000000  0.4600920000000  0.5490060000000 1.0
C      1  0.4644990000000  0.6055360000000  0.4486820000000 1.0
C      1  0.4573050000000  0.4896750000000  0.4320260000000 1.0
C      1  0.4863030000000  0.5310380000000  0.5681500000000 1.0
C      1  0.5446550000000  0.5087900000000  0.4293900000000 1.0
C      1  0.5081740000000  0.4547040000000  0.5682900000000 1.0
C      1  0.5428470000000  0.4343480000000  0.4251400000000 1.0
C      1  0.4305400000000  0.4569870000000  0.5784280000000 1.0
C      1  0.4540520000000  0.5675950000000  0.4279630000000 1.0
C      1  0.5682190000000  0.5450920000000  0.5694310000000 1.0
C      1  0.5010540000000  0.5243340000000  0.5137550000000 1.0
C      1  0.5240940000000  0.4942720000000  0.4799280000000 1.0
C      1  0.4961710000000  0.4739780000000  0.5165120000000 1.0
C      1  0.4735990000000  0.5019910000000  0.4839910000000 1.0
C      1  0.4984100000000  0.4398470000000  0.4017690000000 1.0
C      1  0.4537940000000  0.4931370000000  0.6053130000000 1.0
C      1  0.5013160000000  0.5654460000000  0.4054840000000 1.0
C      1  0.5488440000000  0.5100950000000  0.5986230000000 1.0
C      1  0.4472820000000  0.4263720000000  0.4293380000000 1.0
C      1  0.4277510000000  0.5578960000000  0.5697470000000 1.0
C      1  0.5538030000000  0.5744960000000  0.4335350000000 1.0
C      1  0.5706250000000  0.4424810000000  0.5652750000000 1.0
C      1  0.5299230000000  0.5950310000000  0.4910940000000 1.0
C      1  0.5936220000000  0.4652360000000  0.5132360000000 1.0
C      1  0.4688220000000  0.4125920000000  0.4892480000000 1.0
C      1  0.4114500000000  0.5278960000000  0.5094770000000 1.0
C      1  0.4224470000000  0.5419190000000  0.5340580000000 1.0
C      1  0.5412430000000  0.5836030000000  0.4647290000000 1.0
C      1  0.5640580000000  0.4579360000000  0.5277570000000 1.0
C      1  0.4589820000000  0.4204250000000  0.4612720000000 1.0
C      1  0.5338570000000  0.5542720000000  0.5204930000000 1.0
C      1  0.5640660000000  0.4790530000000  0.4890890000000 1.0
C      1  0.4636500000000  0.4473430000000  0.5302280000000 1.0
C      1  0.4483090000000  0.5314300000000  0.4745990000000 1.0
C      1  0.4710700000000  0.3851130000000  0.5063450000000 1.0
C      1  0.3864420000000  0.5247160000000  0.4885650000000 1.0
C      1  0.5280500000000  0.6156740000000  0.5139800000000 1.0
C      1  0.6067220000000  0.4932520000000  0.5163930000000 1.0
C      1  0.4133940000000  0.5137870000000  0.4413180000000 1.0
C      1  0.5157170000000  0.5846420000000  0.5562920000000 1.0
C      1  0.5816130000000  0.4883590000000  0.4397480000000 1.0
C      1  0.4785760000000  0.4119170000000  0.5595350000000 1.0
C      1  0.4392740000000  0.4609320000000  0.5469570000000 1.0
C      1  0.4628400000000  0.5548820000000  0.4578690000000 1.0
C      1  0.5568070000000  0.5393170000000  0.5386860000000 1.0
C      1  0.5268710000000  0.4316210000000  0.4521010000000 1.0
C      1  0.5254060000000  0.4349510000000  0.4034500000000 1.0
C      1  0.4321570000000  0.4793910000000  0.5945680000000 1.0
C      1  0.4749600000000  0.5706910000000  0.4102340000000 1.0
C      1  0.5701760000000  0.5235570000000  0.5865470000000 1.0
C      1  0.4440720000000  0.4445060000000  0.4888850000000 1.0
C      1  0.4495790000000  0.5540380000000  0.5083070000000 1.0
C      1  0.5721240000000  0.5732970000000  0.4869570000000 1.0
C      1  0.5462330000000  0.4302670000000  0.5068400000000 1.0
C      1  0.5196550000000  0.4076320000000  0.5253380000000 1.0
C      1  0.4119410000000  0.4731170000000  0.4788820000000 1.0
C      1  0.4764650000000  0.5955970000000  0.5223580000000 1.0
C      1  0.5922210000000  0.5265740000000  0.4788790000000 1.0
C      1  0.4071990000000  0.5662430000000  0.5489180000000 1.0
C      1  0.5611590000000  0.6027280000000  0.4471360000000 1.0
C      1  0.5912800000000  0.4464060000000  0.5409740000000 1.0
C      1  0.4392650000000  0.3994290000000  0.4452620000000 1.0
C      1  0.4234590000000  0.4378380000000  0.4654550000000 1.0
C      1  0.4436240000000  0.5758940000000  0.5336850000000 1.0
C      1  0.5892740000000  0.5558980000000  0.4641080000000 1.0
C      1  0.5553430000000  0.4201500000000  0.5374410000000 1.0
C      1  0.5251950000000  0.5388570000000  0.4934900000000 1.0
C      1  0.5343010000000  0.4756540000000  0.5051940000000 1.0
C      1  0.4685690000000  0.4626690000000  0.5006580000000 1.0
C      1  0.4621570000000  0.5253960000000  0.5046120000000 1.0
C      1  0.4808440000000  0.4691580000000  0.4014620000000 1.0
C      1  0.4681480000000  0.5239340000000  0.6030100000000 1.0
C      1  0.5239060000000  0.5419410000000  0.4015350000000 1.0
C      1  0.5363450000000  0.4785020000000  0.5982300000000 1.0
C      1  0.4961860000000  0.4475660000000  0.5983630000000 1.0
C      1  0.4409130000000  0.4934790000000  0.4016320000000 1.0
C      1  0.5028010000000  0.5525740000000  0.5877190000000 1.0
C      1  0.5639490000000  0.5103520000000  0.4013210000000 1.0
C      1  0.5934620000000  0.5192610000000  0.5081890000000 1.0
C      1  0.5182530000000  0.4057160000000  0.4958000000000 1.0
C      1  0.4107380000000  0.4750670000000  0.5073970000000 1.0
C      1  0.4761690000000  0.5912470000000  0.4955220000000 1.0
C      1  0.4436880000000  0.4777120000000  0.4673680000000 1.0
C      1  0.4787270000000  0.5515570000000  0.5346960000000 1.0
C      1  0.5591520000000  0.5289660000000  0.4711800000000 1.0
C      1  0.5175370000000  0.4404540000000  0.5323970000000 1.0
C      1  0.5474120000000  0.5711130000000  0.5610170000000 1.0
C      1  0.5652930000000  0.4589120000000  0.4327140000000 1.0
C      1  0.4524870000000  0.4316780000000  0.5706560000000 1.0
C      1  0.4313280000000  0.5429280000000  0.4363980000000 1.0
C      1  0.5036340000000  0.5803660000000  0.4853690000000 1.0
C      1  0.5678020000000  0.5014570000000  0.5126650000000 1.0
C      1  0.4960410000000  0.4263900000000  0.4874610000000 1.0
C      1  0.4250700000000  0.5013630000000  0.5164720000000 1.0
C      1  0.5411960000000  0.4914710000000  0.3938830000000 1.0
C      1  0.4768290000000  0.4723310000000  0.6086960000000 1.0
C      1  0.4621330000000  0.5154740000000  0.4021840000000 1.0
C      1  0.5262990000000  0.5305310000000  0.5983990000000 1.0
C      1  0.4962180000000  0.4344630000000  0.4578910000000 1.0
C      1  0.4383300000000  0.5033570000000  0.5438610000000 1.0
C      1  0.5046180000000  0.5708940000000  0.4552570000000 1.0
C      1  0.5601520000000  0.4953140000000  0.5410500000000 1.0
C      1  0.4112200000000  0.4566300000000  0.5323220000000 1.0
C      1  0.4591460000000  0.5862850000000  0.4685850000000 1.0
C      1  0.5874600000000  0.5417130000000  0.5289600000000 1.0
C      1  0.5374440000000  0.4079700000000  0.4700430000000 1.0
C      1  0.5405660000000  0.4567700000000  0.5432460000000 1.0
C      1  0.4615020000000  0.4538700000000  0.4542700000000 1.0
C      1  0.4545540000000  0.5396560000000  0.5451180000000 1.0
C      1  0.5380360000000  0.5506270000000  0.4630090000000 1.0
C      1  0.5369510000000  0.6036240000000  0.5404150000000 1.0
C      1  0.5990720000000  0.4649800000000  0.4527510000000 1.0
C      1  0.4638570000000  0.3918730000000  0.5364800000000 1.0
C      1  0.3966100000000  0.5338210000000  0.4600540000000 1.0
C      1  0.4212450000000  0.4248390000000  0.4968940000000 1.0
C      1  0.4293720000000  0.5778170000000  0.5039500000000 1.0
C      1  0.6048380000000  0.5718300000000  0.4901410000000 1.0
C      1  0.5739160000000  0.4131250000000  0.5101730000000 1.0
C      1  0.5080500000000  0.5597870000000  0.5374780000000 1.0
C      1  0.5602760000000  0.4958920000000  0.4630750000000 1.0
C      1  0.4886800000000  0.4403960000000  0.5470180000000 1.0
C      1  0.4421400000000  0.5076930000000  0.4552680000000 1.0
C      1  0.5448590000000  0.5133570000000  0.4953490000000 1.0
C      1  0.5132550000000  0.4489180000000  0.5025300000000 1.0
C      1  0.4471030000000  0.4890080000000  0.4985800000000 1.0
C      1  0.4896150000000  0.5543590000000  0.5026090000000 1.0
C      1  0.5296550000000  0.5230410000000  0.5450440000000 1.0
C      1  0.5175900000000  0.4621150000000  0.4387340000000 1.0
C      1  0.4670320000000  0.4798580000000  0.5530350000000 1.0
C      1  0.4810440000000  0.5258900000000  0.4526460000000 1.0
C      1  0.5285780000000  0.5455130000000  0.5684120000000 1.0
C      1  0.5393200000000  0.4720330000000  0.4147530000000 1.0
C      1  0.4700520000000  0.4577190000000  0.5787200000000 1.0
C      1  0.4607930000000  0.5292010000000  0.4273300000000 1.0
C      1  0.4264460000000  0.4526340000000  0.4351690000000 1.0
C      1  0.4572850000000  0.5740950000000  0.5649330000000 1.0
C      1  0.5748400000000  0.5506630000000  0.4359810000000 1.0
C      1  0.5409820000000  0.4255770000000  0.5679540000000 1.0
C      1  0.5878880000000  0.4594220000000  0.4835460000000 1.0
C      1  0.4556380000000  0.4196850000000  0.5175880000000 1.0
C      1  0.4213540000000  0.5423000000000  0.4825670000000 1.0
C      1  0.5466870000000  0.5804830000000  0.5140150000000 1.0
C      1  0.5292370000000  0.4451630000000  0.5932590000000 1.0
C      1  0.4493590000000  0.4630360000000  0.4135200000000 1.0
C      1  0.4697180000000  0.5546810000000  0.5874000000000 1.0
C      1  0.5531660000000  0.5385070000000  0.4161190000000 1.0
C      1  0.4290740000000  0.5834780000000  0.4760950000000 1.0
C      1  0.5853230000000  0.5710940000000  0.5181800000000 1.0
C      1  0.5656860000000  0.4186920000000  0.4778170000000 1.0
C      1  0.4172010000000  0.4267930000000  0.5252360000000 1.0
C      1  0.5170560000000  0.5106620000000  0.3915920000000 1.0
C      1  0.5051730000000  0.4853480000000  0.6076710000000 1.0
C      1  0.4878230000000  0.4987780000000  0.3989550000000 1.0
C      1  0.4978340000000  0.5170290000000  0.6051960000000 1.0
C      1  0.4564200000000  0.5201070000000  0.5731020000000 1.0
C      1  0.5193540000000  0.5380100000000  0.4379460000000 1.0
C      1  0.5438730000000  0.4718230000000  0.5681710000000 1.0
C      1  0.4863560000000  0.4623620000000  0.4320090000000 1.0
C      1  0.4400210000000  0.4140780000000  0.5467300000000 1.0
C      1  0.4134500000000  0.5633080000000  0.4572210000000 1.0
C      1  0.5672300000000  0.5880860000000  0.5391820000000 1.0
C      1  0.5769810000000  0.4397980000000  0.4587110000000 1.0
C      1  0.4253020000000  0.5245310000000  0.5672180000000 1.0
C      1  0.5229250000000  0.5698300000000  0.4298590000000 1.0
C      1  0.5744760000000  0.4762500000000  0.5616310000000 1.0
C      1  0.4796600000000  0.4297320000000  0.4284170000000 1.0
C      1  0.5098350000000  0.5003230000000  0.5780030000000 1.0
C      1  0.5056690000000  0.5146270000000  0.4235000000000 1.0
C      1  0.4993400000000  0.4982810000000  0.4987370000000 1.0
END
