TITL C-2782229-3092-193 -7.47029742356633e-05 125000 -642.792182609345 0 0 113 (C1) n - 1
REM
REM in /home/nfs/bkarasulu/CARBON/AIRSS/Generating-Clusters/REBO/Higher-Symm/SD-CG/HFTN-CG
REM
REM
REM
REM
REM
REM ./C.cell (12c818d87b63d06a65506943cc24bca4)
REM
REM compiler GCC version 9.2.1 20190827 (Red Hat 9.2.1-1)
REM options -cpp -mtune=generic -march=x86-64 -g -O0 -fpre-include=/usr/include/finclude/math-vector-fortran.h
REM seed -1184512434 -799018938 -900265762 -62321710 -281154197 1710687163 47551646 918161517 562391625 -1250271816 1994664516 -1017727674 -1301856728 1695767444 2055118143 -1487242864 -1104030187 -1673190479 -214123811 -2025178360 -1971217583 1234606958 703639378 -804256189 1135528409 2018781825 149207153 926657613 880769723 1886363589 -1226224454 -691935603 1446567479
REM
CELL 1.54180   50.00000   50.00000   50.00000   90.00000   90.00000   90.00000
LATT -1
SFAC C  
C      1  0.4859000000000  0.5560790000000  0.5801800000000 1.0
C      1  0.5460150000000  0.5163830000000  0.4212780000000 1.0
C      1  0.5116790000000  0.4562460000000  0.5708910000000 1.0
C      1  0.4475940000000  0.4814820000000  0.4229640000000 1.0
C      1  0.5126200000000  0.5053050000000  0.5892860000000 1.0
C      1  0.5002110000000  0.4805410000000  0.4114840000000 1.0
C      1  0.4826580000000  0.5038520000000  0.5881690000000 1.0
C      1  0.4940900000000  0.5094870000000  0.4133770000000 1.0
C      1  0.5093030000000  0.5882140000000  0.5509050000000 1.0
C      1  0.5704480000000  0.5093540000000  0.4440070000000 1.0
C      1  0.5013180000000  0.4299270000000  0.5516500000000 1.0
C      1  0.4146660000000  0.5028200000000  0.4532150000000 1.0
C      1  0.4412330000000  0.5111290000000  0.5328970000000 1.0
C      1  0.5173360000000  0.5491630000000  0.4798830000000 1.0
C      1  0.5434770000000  0.4840660000000  0.5178580000000 1.0
C      1  0.4875230000000  0.4482070000000  0.4741970000000 1.0
C      1  0.5246330000000  0.4568510000000  0.4862350000000 1.0
C      1  0.4508620000000  0.4708640000000  0.5053030000000 1.0
C      1  0.4706150000000  0.5395260000000  0.5031610000000 1.0
C      1  0.5411050000000  0.5284040000000  0.5043340000000 1.0
C      1  0.4363670000000  0.5739070000000  0.5290580000000 1.0
C      1  0.5854340000000  0.5589610000000  0.4848160000000 1.0
C      1  0.5598850000000  0.4299450000000  0.5022050000000 1.0
C      1  0.4314510000000  0.4293360000000  0.4751040000000 1.0
C      1  0.4866010000000  0.4790380000000  0.5677680000000 1.0
C      1  0.4686310000000  0.5067810000000  0.4302610000000 1.0
C      1  0.5098650000000  0.5329830000000  0.5748160000000 1.0
C      1  0.5287750000000  0.4872410000000  0.4259820000000 1.0
C      1  0.4447440000000  0.4908330000000  0.5671580000000 1.0
C      1  0.4837470000000  0.5472770000000  0.4574760000000 1.0
C      1  0.5528620000000  0.5191360000000  0.5495330000000 1.0
C      1  0.5162100000000  0.4465700000000  0.4328500000000 1.0
C      1  0.5431050000000  0.4463040000000  0.4698070000000 1.0
C      1  0.4389380000000  0.4494010000000  0.5169270000000 1.0
C      1  0.4532150000000  0.5559470000000  0.4896350000000 1.0
C      1  0.5590680000000  0.5426120000000  0.5202060000000 1.0
C      1  0.4693930000000  0.4412430000000  0.5470130000000 1.0
C      1  0.4377000000000  0.5263430000000  0.4596650000000 1.0
C      1  0.5324590000000  0.5644190000000  0.5480360000000 1.0
C      1  0.5639310000000  0.4764080000000  0.4501190000000 1.0
C      1  0.5905340000000  0.4907640000000  0.4646580000000 1.0
C      1  0.4766420000000  0.4106730000000  0.5371860000000 1.0
C      1  0.4077280000000  0.5298710000000  0.4727530000000 1.0
C      1  0.5355940000000  0.5919040000000  0.5296060000000 1.0
C      1  0.5417560000000  0.4401800000000  0.5186090000000 1.0
C      1  0.4302410000000  0.4542200000000  0.4612420000000 1.0
C      1  0.4626170000000  0.5734560000000  0.5399150000000 1.0
C      1  0.5754320000000  0.5397980000000  0.4684000000000 1.0
C      1  0.5572490000000  0.4666580000000  0.5442650000000 1.0
C      1  0.5033780000000  0.4209220000000  0.4606620000000 1.0
C      1  0.4116980000000  0.5012460000000  0.5472010000000 1.0
C      1  0.5333720000000  0.5611860000000  0.4510210000000 1.0
C      1  0.4104710000000  0.5177130000000  0.5198280000000 1.0
C      1  0.5331800000000  0.5793460000000  0.4793320000000 1.0
C      1  0.5752530000000  0.4724420000000  0.5158710000000 1.0
C      1  0.4879000000000  0.4174750000000  0.4884480000000 1.0
C      1  0.5766950000000  0.5015990000000  0.5005310000000 1.0
C      1  0.5076070000000  0.4190190000000  0.5137020000000 1.0
C      1  0.4125940000000  0.4976080000000  0.4957200000000 1.0
C      1  0.5096670000000  0.5831850000000  0.5006630000000 1.0
C      1  0.4593150000000  0.5324600000000  0.4422800000000 1.0
C      1  0.5374570000000  0.5422390000000  0.5660860000000 1.0
C      1  0.5486930000000  0.4630300000000  0.4288920000000 1.0
C      1  0.4609900000000  0.4623450000000  0.5638200000000 1.0
C      1  0.5149980000000  0.5247480000000  0.4246280000000 1.0
C      1  0.5256010000000  0.4853740000000  0.5734990000000 1.0
C      1  0.4731790000000  0.4662120000000  0.4168490000000 1.0
C      1  0.4694790000000  0.5312480000000  0.5859820000000 1.0
C      1  0.5898990000000  0.5236970000000  0.5031370000000 1.0
C      1  0.5253430000000  0.4043780000000  0.5254140000000 1.0
C      1  0.3945170000000  0.4803620000000  0.4878460000000 1.0
C      1  0.4919120000000  0.6025480000000  0.4996660000000 1.0
C      1  0.5871800000000  0.4667360000000  0.4849800000000 1.0
C      1  0.4657180000000  0.4101760000000  0.5088200000000 1.0
C      1  0.4089240000000  0.5407300000000  0.4992760000000 1.0
C      1  0.5500540000000  0.5866800000000  0.5055210000000 1.0
C      1  0.5051070000000  0.5640510000000  0.4365230000000 1.0
C      1  0.5636630000000  0.4911530000000  0.5669720000000 1.0
C      1  0.5232670000000  0.4149120000000  0.4406090000000 1.0
C      1  0.4114860000000  0.4858250000000  0.5720060000000 1.0
C      1  0.5536900000000  0.4878150000000  0.4794830000000 1.0
C      1  0.4849710000000  0.4442760000000  0.5178620000000 1.0
C      1  0.4403760000000  0.5028130000000  0.4838150000000 1.0
C      1  0.5112150000000  0.5612660000000  0.5215250000000 1.0
C      1  0.5097730000000  0.5294010000000  0.4556570000000 1.0
C      1  0.5319820000000  0.4974980000000  0.5439320000000 1.0
C      1  0.4917140000000  0.4573080000000  0.4428840000000 1.0
C      1  0.4588140000000  0.5159730000000  0.5585410000000 1.0
C      1  0.5327970000000  0.4434320000000  0.5496100000000 1.0
C      1  0.4253710000000  0.4782040000000  0.4415210000000 1.0
C      1  0.4842500000000  0.5776660000000  0.5608690000000 1.0
C      1  0.5553350000000  0.5404790000000  0.4428220000000 1.0
C      1  0.4317830000000  0.4621690000000  0.5807870000000 1.0
C      1  0.4739950000000  0.5597270000000  0.4277490000000 1.0
C      1  0.5606310000000  0.5218500000000  0.5813960000000 1.0
C      1  0.5451270000000  0.4312320000000  0.4235280000000 1.0
C      1  0.5227520000000  0.4885330000000  0.4941230000000 1.0
C      1  0.4821240000000  0.4708540000000  0.4965340000000 1.0
C      1  0.4602980000000  0.5103760000000  0.5067350000000 1.0
C      1  0.5098040000000  0.5307510000000  0.5065530000000 1.0
C      1  0.4736460000000  0.4826510000000  0.4529640000000 1.0
C      1  0.4867140000000  0.5296570000000  0.5503810000000 1.0
C      1  0.5294450000000  0.5046040000000  0.4552220000000 1.0
C      1  0.5058760000000  0.4801010000000  0.5397060000000 1.0
C      1  0.4513020000000  0.4764990000000  0.4718200000000 1.0
C      1  0.4830820000000  0.5505740000000  0.5287170000000 1.0
C      1  0.5505760000000  0.5202830000000  0.4769080000000 1.0
C      1  0.5130820000000  0.4582470000000  0.5182310000000 1.0
C      1  0.5704830000000  0.5660860000000  0.5082260000000 1.0
C      1  0.5718470000000  0.4428530000000  0.4779670000000 1.0
C      1  0.4411760000000  0.4247140000000  0.5022960000000 1.0
C      1  0.4288090000000  0.5614500000000  0.5039940000000 1.0
C      1  0.4932340000000  0.5025800000000  0.5017990000000 1.0
END
