TITL C-2782234-8014-25 -4.73703964639949e-07 125000 -291.100937210402 0 0 47 (C3h) n - 1
REM
REM in /home/nfs/bkarasulu/CARBON/AIRSS/Generating-Clusters/REBO/Higher-Symm/SD-CG/HFTN-CG
REM
REM
REM
REM
REM
REM ./C.cell (12c818d87b63d06a65506943cc24bca4)
REM
REM compiler GCC version 9.2.1 20190827 (Red Hat 9.2.1-1)
REM options -cpp -mtune=generic -march=x86-64 -g -O0 -fpre-include=/usr/include/finclude/math-vector-fortran.h
REM seed -1172037095 -1505610237 -10273083 138746103 -137008575 201473231 -1189049821 -1634346204 -1222165110 -1882089050 912188473 -1904988187 176654347 1059745125 536588004 427365449 2010429046 1594839272 855345540 -1826622737 2137160490 1760501071 -1789964436 48176068 365000249 299063558 1339796890 693609303 -1005771192 -1771117206 1279852631 -281616348 1552365876
REM
CELL 1.54180   50.00000   50.00000   50.00000   90.00000   90.00000   90.00000
LATT -1
SFAC C  
C      1  0.5391300000000  0.5211710000000  0.5464490000000 1.0
C      1  0.4986850000000  0.4549650000000  0.5463080000000 1.0
C      1  0.4615720000000  0.5230930000000  0.5466920000000 1.0
C      1  0.5388340000000  0.5215580000000  0.4490370000000 1.0
C      1  0.4983900000000  0.4553520000000  0.4488960000000 1.0
C      1  0.4612760000000  0.5234800000000  0.4492800000000 1.0
C      1  0.4449690000000  0.4850740000000  0.4743500000000 1.0
C      1  0.5139280000000  0.5547990000000  0.4744180000000 1.0
C      1  0.5398320000000  0.4602170000000  0.4739640000000 1.0
C      1  0.4451120000000  0.4848870000000  0.5214160000000 1.0
C      1  0.5140710000000  0.5546120000000  0.5214840000000 1.0
C      1  0.5399740000000  0.4600300000000  0.5210290000000 1.0
C      1  0.4615290000000  0.4627130000000  0.4829180000000 1.0
C      1  0.4863530000000  0.5516090000000  0.4831960000000 1.0
C      1  0.5509270000000  0.4856640000000  0.4827380000000 1.0
C      1  0.4616190000000  0.4625950000000  0.5125700000000 1.0
C      1  0.4864420000000  0.5514910000000  0.5128480000000 1.0
C      1  0.5510170000000  0.4855460000000  0.5123900000000 1.0
C      1  0.5508900000000  0.5122260000000  0.5221810000000 1.0
C      1  0.4848660000000  0.4493330000000  0.5221320000000 1.0
C      1  0.4634110000000  0.5379580000000  0.5225490000000 1.0
C      1  0.5507410000000  0.5124210000000  0.4731610000000 1.0
C      1  0.4847170000000  0.4495280000000  0.4731110000000 1.0
C      1  0.4632620000000  0.5381520000000  0.4735280000000 1.0
C      1  0.5275740000000  0.5042340000000  0.5659970000000 1.0
C      1  0.4899520000000  0.4733760000000  0.5659880000000 1.0
C      1  0.4820390000000  0.5213860000000  0.5662030000000 1.0
C      1  0.5271590000000  0.5047770000000  0.4294250000000 1.0
C      1  0.4895380000000  0.4739180000000  0.4294170000000 1.0
C      1  0.4816250000000  0.5219280000000  0.4296320000000 1.0
C      1  0.5267780000000  0.4527560000000  0.4501930000000 1.0
C      1  0.4448450000000  0.5001890000000  0.4506300000000 1.0
C      1  0.5268910000000  0.5474290000000  0.4505690000000 1.0
C      1  0.5270650000000  0.4523800000000  0.5448190000000 1.0
C      1  0.4451320000000  0.4998130000000  0.5452560000000 1.0
C      1  0.5271780000000  0.5470530000000  0.5451950000000 1.0
C      1  0.4197750000000  0.5457730000000  0.4982010000000 1.0
C      1  0.4998880000000  0.4078460000000  0.4974100000000 1.0
C      1  0.5792800000000  0.5461900000000  0.4977190000000 1.0
C      1  0.5304570000000  0.5528260000000  0.4978940000000 1.0
C      1  0.4384400000000  0.5001730000000  0.4979640000000 1.0
C      1  0.5300460000000  0.4468110000000  0.4974740000000 1.0
C      1  0.4435970000000  0.5305900000000  0.4980690000000 1.0
C      1  0.5011260000000  0.4360680000000  0.4975190000000 1.0
C      1  0.5542210000000  0.5331520000000  0.4977430000000 1.0
C      1  0.4994270000000  0.5002260000000  0.4248320000000 1.0
C      1  0.4998690000000  0.4996470000000  0.5707220000000 1.0
END
