TITL C-2782225-7408-209 -0.0012803664773222 125000 -231.542468822327 0 0 42 (D2) n - 1
REM
REM in /home/nfs/bkarasulu/CARBON/AIRSS/Generating-Clusters/REBO/Higher-Symm/SD-CG/HFTN-CG
REM
REM
REM
REM
REM
REM ./C.cell (12c818d87b63d06a65506943cc24bca4)
REM
REM compiler GCC version 9.2.1 20190827 (Red Hat 9.2.1-1)
REM options -cpp -mtune=generic -march=x86-64 -g -O0 -fpre-include=/usr/include/finclude/math-vector-fortran.h
REM seed -1489569124 995093396 1102667750 -674619348 -150446448 276626049 -2060904419 -470642195 1935971710 -390687287 -1155127030 1928328480 532803841 -1702583568 724019439 1384090977 48363985 -1907048055 -814636786 -1541615985 -1753021242 -6703554 510070809 1919459051 -267167291 1976532015 851981257 -646571657 -904217611 1096608507 1532306992 1609207138 -1813530530
REM
CELL 1.54180   50.00000   50.00000   50.00000   90.00000   90.00000   90.00000
LATT -1
SFAC C  
C      1  0.4678310000000  0.4230480000000  0.4295490000000 1.0
C      1  0.4673820000000  0.5768530000000  0.5703640000000 1.0
C      1  0.5285680000000  0.4230940000000  0.5703940000000 1.0
C      1  0.5285210000000  0.5770040000000  0.4296930000000 1.0
C      1  0.5572210000000  0.4930190000000  0.4676890000000 1.0
C      1  0.5571060000000  0.5071710000000  0.5324800000000 1.0
C      1  0.4389530000000  0.4928050000000  0.5323060000000 1.0
C      1  0.4390220000000  0.5070050000000  0.4675250000000 1.0
C      1  0.4900660000000  0.4726740000000  0.5128260000000 1.0
C      1  0.4900140000000  0.5273000000000  0.4871510000000 1.0
C      1  0.5061730000000  0.4727090000000  0.4871540000000 1.0
C      1  0.5060490000000  0.5273170000000  0.5128690000000 1.0
C      1  0.4761320000000  0.4456740000000  0.4431000000000 1.0
C      1  0.4757950000000  0.5542550000000  0.5568370000000 1.0
C      1  0.5201940000000  0.4457030000000  0.5568590000000 1.0
C      1  0.5201810000000  0.5543680000000  0.4432040000000 1.0
C      1  0.5324830000000  0.5250570000000  0.4419930000000 1.0
C      1  0.5323970000000  0.4750540000000  0.5581050000000 1.0
C      1  0.4635870000000  0.5249030000000  0.5580260000000 1.0
C      1  0.4638340000000  0.4749870000000  0.4418760000000 1.0
C      1  0.4650160000000  0.4872000000000  0.5111940000000 1.0
C      1  0.4650070000000  0.5126940000000  0.4887110000000 1.0
C      1  0.5311760000000  0.4873150000000  0.4887960000000 1.0
C      1  0.5311030000000  0.5127920000000  0.5112980000000 1.0
C      1  0.4594070000000  0.5982740000000  0.5831860000000 1.0
C      1  0.4599620000000  0.4016030000000  0.4167040000000 1.0
C      1  0.5364260000000  0.5984600000000  0.4168870000000 1.0
C      1  0.5365060000000  0.4016640000000  0.5832220000000 1.0
C      1  0.4969580000000  0.5513570000000  0.4641260000000 1.0
C      1  0.4970210000000  0.4486390000000  0.5358710000000 1.0
C      1  0.4990270000000  0.5513340000000  0.5359120000000 1.0
C      1  0.4992950000000  0.4486700000000  0.4640910000000 1.0
C      1  0.5537250000000  0.5069700000000  0.4448580000000 1.0
C      1  0.5535890000000  0.4932090000000  0.5553010000000 1.0
C      1  0.4424040000000  0.5067490000000  0.5551470000000 1.0
C      1  0.4425840000000  0.4930720000000  0.4446940000000 1.0
C      1  0.4877330000000  0.5205000000000  0.5396440000000 1.0
C      1  0.4879130000000  0.4794670000000  0.4603260000000 1.0
C      1  0.5083510000000  0.5205630000000  0.4603710000000 1.0
C      1  0.5083040000000  0.4794700000000  0.5396580000000 1.0
C      1  0.4353010000000  0.4998990000000  0.4999100000000 1.0
C      1  0.5608500000000  0.5001010000000  0.5000900000000 1.0
END
