TITL C-2782240-8521-1104 0.00139730797957418 125000 -779.681470562415 0 0 135 (C1) n - 1
REM
REM in /home/nfs/bkarasulu/CARBON/AIRSS/Generating-Clusters/REBO/Higher-Symm/SD-CG/HFTN-CG
REM
REM
REM
REM
REM
REM ./C.cell (12c818d87b63d06a65506943cc24bca4)
REM
REM compiler GCC version 9.2.1 20190827 (Red Hat 9.2.1-1)
REM options -cpp -mtune=generic -march=x86-64 -g -O0 -fpre-include=/usr/include/finclude/math-vector-fortran.h
REM seed 395089313 -1385062845 235374337 1819988191 -1200904069 -895596778 -885202040 -1854843064 -755990326 1339459947 -592984273 -326840659 1287596390 -1641874925 -432275386 -1885141522 -217732303 791189982 165009131 363957900 -1707098702 -1536519153 -294311557 349952180 -792925077 -1111964575 1109928448 -360448795 1744223488 -496828766 1513441267 295874650 1337928474
REM
CELL 1.54180   50.00000   50.00000   50.00000   90.00000   90.00000   90.00000
LATT -1
SFAC C  
C      1  0.5388770000000  0.4213290000000  0.5310130000000 1.0
C      1  0.5567550000000  0.5772140000000  0.5224700000000 1.0
C      1  0.4119090000000  0.5133980000000  0.5255270000000 1.0
C      1  0.5361720000000  0.4212660000000  0.4776620000000 1.0
C      1  0.5478810000000  0.5710690000000  0.4694210000000 1.0
C      1  0.4091930000000  0.5078680000000  0.4735250000000 1.0
C      1  0.4589490000000  0.4579080000000  0.5908600000000 1.0
C      1  0.5567790000000  0.4833770000000  0.5923090000000 1.0
C      1  0.4837950000000  0.5553050000000  0.5910610000000 1.0
C      1  0.4620670000000  0.4559730000000  0.4082770000000 1.0
C      1  0.5560850000000  0.4855660000000  0.4084090000000 1.0
C      1  0.4820020000000  0.5564720000000  0.4112940000000 1.0
C      1  0.5303560000000  0.4737090000000  0.3999940000000 1.0
C      1  0.5062190000000  0.5425440000000  0.4026980000000 1.0
C      1  0.4671220000000  0.4842940000000  0.4017820000000 1.0
C      1  0.5318040000000  0.4702150000000  0.6000410000000 1.0
C      1  0.5056170000000  0.5382950000000  0.6016480000000 1.0
C      1  0.4619470000000  0.4857360000000  0.6002360000000 1.0
C      1  0.4399280000000  0.4469860000000  0.4284000000000 1.0
C      1  0.5753760000000  0.4723720000000  0.4298560000000 1.0
C      1  0.4829330000000  0.5784330000000  0.4335780000000 1.0
C      1  0.4432940000000  0.4499450000000  0.5663450000000 1.0
C      1  0.5723220000000  0.4767430000000  0.5677600000000 1.0
C      1  0.4877740000000  0.5767970000000  0.5689350000000 1.0
C      1  0.4596060000000  0.5381630000000  0.4140300000000 1.0
C      1  0.4877080000000  0.4406000000000  0.4125990000000 1.0
C      1  0.5542240000000  0.5145070000000  0.4111000000000 1.0
C      1  0.4590020000000  0.5399680000000  0.5867020000000 1.0
C      1  0.4849630000000  0.4435630000000  0.5900260000000 1.0
C      1  0.5542230000000  0.5124530000000  0.5932270000000 1.0
C      1  0.4517190000000  0.4387170000000  0.4837890000000 1.0
C      1  0.5779450000000  0.4921850000000  0.4845300000000 1.0
C      1  0.4639180000000  0.5709090000000  0.4853220000000 1.0
C      1  0.4637850000000  0.4474980000000  0.5126970000000 1.0
C      1  0.5697610000000  0.4981200000000  0.5152500000000 1.0
C      1  0.4727240000000  0.5733470000000  0.5163730000000 1.0
C      1  0.5123860000000  0.5417750000000  0.4418800000000 1.0
C      1  0.4580640000000  0.4874380000000  0.4402890000000 1.0
C      1  0.5301280000000  0.4687930000000  0.4393250000000 1.0
C      1  0.5121990000000  0.5402460000000  0.5626510000000 1.0
C      1  0.4586250000000  0.4884050000000  0.5608220000000 1.0
C      1  0.5332740000000  0.4666790000000  0.5607760000000 1.0
C      1  0.5745590000000  0.5035680000000  0.5543860000000 1.0
C      1  0.4652060000000  0.5618530000000  0.5538270000000 1.0
C      1  0.4644390000000  0.4346630000000  0.5505270000000 1.0
C      1  0.5696680000000  0.4986260000000  0.4442480000000 1.0
C      1  0.4616510000000  0.5607800000000  0.4467840000000 1.0
C      1  0.4637080000000  0.4346820000000  0.4438410000000 1.0
C      1  0.4117970000000  0.5339870000000  0.4822080000000 1.0
C      1  0.5131650000000  0.4115250000000  0.4898750000000 1.0
C      1  0.5715500000000  0.5594720000000  0.4802810000000 1.0
C      1  0.4172950000000  0.5370870000000  0.5120260000000 1.0
C      1  0.5165410000000  0.4080120000000  0.5199210000000 1.0
C      1  0.5736320000000  0.5590310000000  0.5097470000000 1.0
C      1  0.4702820000000  0.5105890000000  0.5783990000000 1.0
C      1  0.5062250000000  0.4660510000000  0.5778940000000 1.0
C      1  0.5248360000000  0.5188350000000  0.5812020000000 1.0
C      1  0.4719500000000  0.5097500000000  0.4239810000000 1.0
C      1  0.5048440000000  0.4670960000000  0.4217020000000 1.0
C      1  0.5244840000000  0.5212770000000  0.4220120000000 1.0
C      1  0.4978310000000  0.5207420000000  0.5285590000000 1.0
C      1  0.4756640000000  0.4743220000000  0.5267010000000 1.0
C      1  0.5220490000000  0.4968760000000  0.5314610000000 1.0
C      1  0.4977010000000  0.5205420000000  0.4738470000000 1.0
C      1  0.4795800000000  0.4770430000000  0.4729210000000 1.0
C      1  0.5228860000000  0.4976550000000  0.4718660000000 1.0
C      1  0.4309640000000  0.4909250000000  0.5167220000000 1.0
C      1  0.5403710000000  0.4508020000000  0.5174950000000 1.0
C      1  0.5277350000000  0.5670920000000  0.5193300000000 1.0
C      1  0.4301530000000  0.4874140000000  0.4853760000000 1.0
C      1  0.5437750000000  0.4505500000000  0.4865590000000 1.0
C      1  0.5209890000000  0.5667850000000  0.4891550000000 1.0
C      1  0.4814990000000  0.5331080000000  0.4469840000000 1.0
C      1  0.4788550000000  0.4639610000000  0.4436530000000 1.0
C      1  0.5378120000000  0.4987720000000  0.4439060000000 1.0
C      1  0.4826420000000  0.5326910000000  0.5554950000000 1.0
C      1  0.4791240000000  0.4650650000000  0.5571070000000 1.0
C      1  0.5407600000000  0.4991860000000  0.5580660000000 1.0
C      1  0.5694450000000  0.5253000000000  0.4860800000000 1.0
C      1  0.4423220000000  0.5466350000000  0.4826420000000 1.0
C      1  0.4841360000000  0.4283420000000  0.4842400000000 1.0
C      1  0.5666650000000  0.5300360000000  0.5199730000000 1.0
C      1  0.4490980000000  0.5489110000000  0.5152000000000 1.0
C      1  0.4889850000000  0.4273890000000  0.5172180000000 1.0
C      1  0.5466590000000  0.4474080000000  0.4421650000000 1.0
C      1  0.5248310000000  0.5666700000000  0.4494830000000 1.0
C      1  0.4310760000000  0.4844350000000  0.4393020000000 1.0
C      1  0.5468000000000  0.4386340000000  0.5547920000000 1.0
C      1  0.5243880000000  0.5641800000000  0.5590130000000 1.0
C      1  0.4319290000000  0.4868630000000  0.5563740000000 1.0
C      1  0.4382250000000  0.5751390000000  0.4551190000000 1.0
C      1  0.4607190000000  0.4101640000000  0.4574450000000 1.0
C      1  0.5916910000000  0.5135550000000  0.4538400000000 1.0
C      1  0.4433780000000  0.5770300000000  0.5429240000000 1.0
C      1  0.4577640000000  0.4115720000000  0.5363560000000 1.0
C      1  0.5968030000000  0.5133840000000  0.5402130000000 1.0
C      1  0.5734420000000  0.4613690000000  0.4810010000000 1.0
C      1  0.4937380000000  0.5837140000000  0.4841210000000 1.0
C      1  0.4265050000000  0.4562310000000  0.4782130000000 1.0
C      1  0.5692300000000  0.4661010000000  0.5150250000000 1.0
C      1  0.5007250000000  0.5854440000000  0.5180290000000 1.0
C      1  0.4313700000000  0.4578560000000  0.5122180000000 1.0
C      1  0.5746080000000  0.4511900000000  0.4516110000000 1.0
C      1  0.5030280000000  0.5852450000000  0.4531060000000 1.0
C      1  0.4200400000000  0.4584120000000  0.4481860000000 1.0
C      1  0.5696210000000  0.4565970000000  0.5477170000000 1.0
C      1  0.5085330000000  0.5871760000000  0.5491400000000 1.0
C      1  0.4230880000000  0.4610540000000  0.5443350000000 1.0
C      1  0.6063810000000  0.5116120000000  0.4803800000000 1.0
C      1  0.4337280000000  0.5864290000000  0.4834560000000 1.0
C      1  0.4514160000000  0.4056460000000  0.4860060000000 1.0
C      1  0.6010370000000  0.5122720000000  0.5100370000000 1.0
C      1  0.4414350000000  0.5878130000000  0.5135830000000 1.0
C      1  0.4530170000000  0.3979280000000  0.5130320000000 1.0
C      1  0.4478340000000  0.5262480000000  0.5372350000000 1.0
C      1  0.5051840000000  0.4390360000000  0.5423980000000 1.0
C      1  0.5522740000000  0.5359980000000  0.5478130000000 1.0
C      1  0.4456230000000  0.5236780000000  0.4617960000000 1.0
C      1  0.5043530000000  0.4405850000000  0.4633160000000 1.0
C      1  0.5516380000000  0.5329370000000  0.4588090000000 1.0
C      1  0.5602900000000  0.5354030000000  0.5736280000000 1.0
C      1  0.4404250000000  0.5320590000000  0.5630270000000 1.0
C      1  0.5000250000000  0.4282300000000  0.5672730000000 1.0
C      1  0.5600090000000  0.5356160000000  0.4329980000000 1.0
C      1  0.4394360000000  0.5295600000000  0.4357340000000 1.0
C      1  0.5029300000000  0.4306830000000  0.4377610000000 1.0
C      1  0.4604540000000  0.5005010000000  0.5228870000000 1.0
C      1  0.5148770000000  0.4670150000000  0.5255380000000 1.0
C      1  0.5277860000000  0.5368350000000  0.5262690000000 1.0
C      1  0.4590390000000  0.4999410000000  0.4781480000000 1.0
C      1  0.5180150000000  0.4671360000000  0.4772300000000 1.0
C      1  0.5265700000000  0.5368850000000  0.4786170000000 1.0
C      1  0.5266390000000  0.5133410000000  0.5019620000000 1.0
C      1  0.4950250000000  0.4688700000000  0.5000680000000 1.0
C      1  0.4800860000000  0.5151100000000  0.5003520000000 1.0
END
