TITL C-2782231-7322-1045 -0.00302629557440154 125000 -668.276550362579 0 0 113 (C1) n - 1
REM
REM in /home/nfs/bkarasulu/CARBON/AIRSS/Generating-Clusters/REBO/Higher-Symm/SD-CG/HFTN-CG
REM
REM
REM
REM
REM
REM ./C.cell (12c818d87b63d06a65506943cc24bca4)
REM
REM compiler GCC version 9.2.1 20190827 (Red Hat 9.2.1-1)
REM options -cpp -mtune=generic -march=x86-64 -g -O0 -fpre-include=/usr/include/finclude/math-vector-fortran.h
REM seed 99098263 -3858598 1260134027 -300128892 738869894 649039579 -953400140 1350445853 299192727 1273784605 -598657177 -1434129997 -420900544 -1609002828 -286823338 196195532 -333075024 -1893822759 -693694523 -3988252 2081527171 820406472 -1215376237 1009606980 1853229939 -1589610778 613297973 -571817236 1029338091 -1700178991 12949739 -702035530 1495768740
REM
CELL 1.54180   50.00000   50.00000   50.00000   90.00000   90.00000   90.00000
LATT -1
SFAC C  
C      1  0.4649520000000  0.4841430000000  0.5487650000000 1.0
C      1  0.4404720000000  0.4884900000000  0.4696150000000 1.0
C      1  0.5287810000000  0.5424040000000  0.4401300000000 1.0
C      1  0.4643370000000  0.5658140000000  0.4964510000000 1.0
C      1  0.5511230000000  0.4438190000000  0.5154470000000 1.0
C      1  0.4263820000000  0.4538040000000  0.5327510000000 1.0
C      1  0.5398550000000  0.4964460000000  0.4678280000000 1.0
C      1  0.5423540000000  0.4658890000000  0.4266990000000 1.0
C      1  0.5835480000000  0.4747910000000  0.5388120000000 1.0
C      1  0.4847520000000  0.5575450000000  0.5609440000000 1.0
C      1  0.5538270000000  0.5076890000000  0.5722760000000 1.0
C      1  0.5031760000000  0.5083180000000  0.5936360000000 1.0
C      1  0.5168050000000  0.4518010000000  0.4938970000000 1.0
C      1  0.4408790000000  0.4851360000000  0.4291120000000 1.0
C      1  0.4478630000000  0.5183010000000  0.4951530000000 1.0
C      1  0.4898380000000  0.5040360000000  0.4498080000000 1.0
C      1  0.5354260000000  0.5087450000000  0.5922200000000 1.0
C      1  0.4699400000000  0.4645580000000  0.4813540000000 1.0
C      1  0.4531630000000  0.4709590000000  0.5764930000000 1.0
C      1  0.5953670000000  0.4710380000000  0.4802760000000 1.0
C      1  0.4372130000000  0.4140650000000  0.5047580000000 1.0
C      1  0.4878840000000  0.5165180000000  0.5238690000000 1.0
C      1  0.4910720000000  0.4811190000000  0.5832830000000 1.0
C      1  0.5737970000000  0.5022660000000  0.4411150000000 1.0
C      1  0.5466370000000  0.5740000000000  0.5137250000000 1.0
C      1  0.5851130000000  0.4763060000000  0.4539870000000 1.0
C      1  0.5102180000000  0.5603430000000  0.5221470000000 1.0
C      1  0.4611790000000  0.5409580000000  0.5422610000000 1.0
C      1  0.4743030000000  0.5221250000000  0.4281980000000 1.0
C      1  0.4658090000000  0.5359990000000  0.5111830000000 1.0
C      1  0.5118280000000  0.4742180000000  0.4159960000000 1.0
C      1  0.4900100000000  0.4831140000000  0.5270000000000 1.0
C      1  0.4716080000000  0.4924840000000  0.4161740000000 1.0
C      1  0.5478230000000  0.4633920000000  0.4879610000000 1.0
C      1  0.5411140000000  0.5375110000000  0.4925230000000 1.0
C      1  0.4298930000000  0.5352070000000  0.4480650000000 1.0
C      1  0.5420900000000  0.5281790000000  0.5227480000000 1.0
C      1  0.4172770000000  0.4980710000000  0.5556730000000 1.0
C      1  0.5614570000000  0.5306590000000  0.5572090000000 1.0
C      1  0.4458040000000  0.4782660000000  0.5260350000000 1.0
C      1  0.5162880000000  0.5561440000000  0.4938680000000 1.0
C      1  0.5286510000000  0.5157920000000  0.4203650000000 1.0
C      1  0.5236320000000  0.5882090000000  0.5330130000000 1.0
C      1  0.5844510000000  0.4469990000000  0.4936070000000 1.0
C      1  0.5124860000000  0.5319890000000  0.5367500000000 1.0
C      1  0.4192440000000  0.4561730000000  0.4796210000000 1.0
C      1  0.4430530000000  0.4291270000000  0.5275850000000 1.0
C      1  0.4262020000000  0.4715020000000  0.5600830000000 1.0
C      1  0.4837200000000  0.5215310000000  0.4778060000000 1.0
C      1  0.4686280000000  0.5683020000000  0.4626430000000 1.0
C      1  0.4793550000000  0.4505610000000  0.5738630000000 1.0
C      1  0.5111800000000  0.5282880000000  0.5672030000000 1.0
C      1  0.5090620000000  0.5067120000000  0.4905160000000 1.0
C      1  0.5439550000000  0.5558260000000  0.5429280000000 1.0
C      1  0.4837540000000  0.4196990000000  0.4985710000000 1.0
C      1  0.4932400000000  0.4461350000000  0.4367790000000 1.0
C      1  0.4231480000000  0.5335600000000  0.4806430000000 1.0
C      1  0.5457400000000  0.4751380000000  0.5260500000000 1.0
C      1  0.4981720000000  0.5786150000000  0.4542660000000 1.0
C      1  0.5505220000000  0.4977510000000  0.4254740000000 1.0
C      1  0.5071940000000  0.5626140000000  0.4326450000000 1.0
C      1  0.5649950000000  0.4280240000000  0.4815240000000 1.0
C      1  0.4208100000000  0.5032550000000  0.4461450000000 1.0
C      1  0.5154730000000  0.5814060000000  0.4752000000000 1.0
C      1  0.4544490000000  0.5170920000000  0.4625170000000 1.0
C      1  0.5543120000000  0.4703780000000  0.4552860000000 1.0
C      1  0.4889320000000  0.5499460000000  0.4815430000000 1.0
C      1  0.5757990000000  0.5250120000000  0.4577330000000 1.0
C      1  0.5307210000000  0.4625770000000  0.5532830000000 1.0
C      1  0.4886810000000  0.4723660000000  0.4566410000000 1.0
C      1  0.4054800000000  0.4957400000000  0.5065140000000 1.0
C      1  0.4896880000000  0.4349370000000  0.5524230000000 1.0
C      1  0.5125450000000  0.4772350000000  0.4755980000000 1.0
C      1  0.5175390000000  0.4351150000000  0.5471870000000 1.0
C      1  0.5884140000000  0.5193520000000  0.4824190000000 1.0
C      1  0.5910870000000  0.4972420000000  0.5239110000000 1.0
C      1  0.5187880000000  0.4429850000000  0.4209110000000 1.0
C      1  0.4570820000000  0.5494500000000  0.4393370000000 1.0
C      1  0.4529070000000  0.4867110000000  0.4992900000000 1.0
C      1  0.4842000000000  0.5105530000000  0.5570950000000 1.0
C      1  0.4162230000000  0.5104140000000  0.5266820000000 1.0
C      1  0.5595580000000  0.5718920000000  0.4864060000000 1.0
C      1  0.5884090000000  0.5680900000000  0.4947810000000 1.0
C      1  0.5753520000000  0.5225960000000  0.5294280000000 1.0
C      1  0.4465070000000  0.4466540000000  0.4686320000000 1.0
C      1  0.5035810000000  0.4759050000000  0.5549620000000 1.0
C      1  0.5972180000000  0.4954820000000  0.4958360000000 1.0
C      1  0.5045730000000  0.5013260000000  0.4127170000000 1.0
C      1  0.4075800000000  0.4877130000000  0.4735290000000 1.0
C      1  0.5527390000000  0.5477080000000  0.4628090000000 1.0
C      1  0.4844420000000  0.5514910000000  0.4191010000000 1.0
C      1  0.4620260000000  0.5845540000000  0.5205000000000 1.0
C      1  0.4119100000000  0.4663060000000  0.5069990000000 1.0
C      1  0.5578900000000  0.4815200000000  0.5574150000000 1.0
C      1  0.4648280000000  0.5020160000000  0.5842260000000 1.0
C      1  0.5185030000000  0.5181070000000  0.4588240000000 1.0
C      1  0.5380830000000  0.4930910000000  0.5018730000000 1.0
C      1  0.5285510000000  0.4252440000000  0.5229320000000 1.0
C      1  0.5815600000000  0.4507220000000  0.5240780000000 1.0
C      1  0.5361550000000  0.4255210000000  0.4833900000000 1.0
C      1  0.4568670000000  0.4200880000000  0.4838520000000 1.0
C      1  0.4016030000000  0.5430000000000  0.4923050000000 1.0
C      1  0.4312000000000  0.5281480000000  0.5516220000000 1.0
C      1  0.4880220000000  0.4584750000000  0.5072470000000 1.0
C      1  0.5743410000000  0.5382720000000  0.5017820000000 1.0
C      1  0.4550660000000  0.5315860000000  0.5743860000000 1.0
C      1  0.5155380000000  0.5668060000000  0.5581910000000 1.0
C      1  0.4445300000000  0.4551410000000  0.4388850000000 1.0
C      1  0.4739290000000  0.4346000000000  0.5265190000000 1.0
C      1  0.4680360000000  0.5802340000000  0.5442910000000 1.0
C      1  0.5115940000000  0.4128800000000  0.5001170000000 1.0
C      1  0.4848750000000  0.5363890000000  0.5875740000000 1.0
C      1  0.4701630000000  0.4594620000000  0.4237000000000 1.0
END
