TITL C-2782236-320-542 0.00446597530453025 125000 -841.132954447079 0 0 147 (C1) n - 1
REM
REM in /home/nfs/bkarasulu/CARBON/AIRSS/Generating-Clusters/REBO/Higher-Symm/SD-CG/HFTN-CG
REM
REM
REM
REM
REM
REM ./C.cell (12c818d87b63d06a65506943cc24bca4)
REM
REM compiler GCC version 9.2.1 20190827 (Red Hat 9.2.1-1)
REM options -cpp -mtune=generic -march=x86-64 -g -O0 -fpre-include=/usr/include/finclude/math-vector-fortran.h
REM seed 1857403883 2089905162 1735546445 -219769357 -1997872913 -1960933517 1384216256 1274293336 1090628555 71522633 -53593744 -1715673601 -2057812525 757411725 -742641173 -535776739 -355039711 -342427280 -812805493 2023267499 -1222106096 930268029 -675689903 -2072927382 -715663678 1980751458 672283575 1560184556 781795102 1270433908 -1421653327 1733091269 1368729923
REM
CELL 1.54180   50.00000   50.00000   50.00000   90.00000   90.00000   90.00000
LATT -1
SFAC C  
C      1  0.6102840000000  0.5019960000000  0.4936650000000 1.0
C      1  0.6072820000000  0.5093400000000  0.5172720000000 1.0
C      1  0.3894980000000  0.4996070000000  0.4928170000000 1.0
C      1  0.3908790000000  0.4908480000000  0.5160620000000 1.0
C      1  0.5823270000000  0.5158420000000  0.5340730000000 1.0
C      1  0.5904830000000  0.4918420000000  0.4728570000000 1.0
C      1  0.4153080000000  0.4843780000000  0.5334700000000 1.0
C      1  0.4097330000000  0.5095380000000  0.4723690000000 1.0
C      1  0.4645600000000  0.5015520000000  0.4834980000000 1.0
C      1  0.4629690000000  0.4964180000000  0.5161200000000 1.0
C      1  0.5361900000000  0.4936280000000  0.4864920000000 1.0
C      1  0.5349840000000  0.5020100000000  0.5194990000000 1.0
C      1  0.4256510000000  0.5290660000000  0.5147020000000 1.0
C      1  0.4234640000000  0.4709050000000  0.4866500000000 1.0
C      1  0.5745760000000  0.4719110000000  0.5161240000000 1.0
C      1  0.5757470000000  0.5302680000000  0.4872180000000 1.0
C      1  0.5090750000000  0.4935420000000  0.5393820000000 1.0
C      1  0.5134960000000  0.5052870000000  0.4646870000000 1.0
C      1  0.4834520000000  0.5122400000000  0.5347270000000 1.0
C      1  0.4892470000000  0.4852940000000  0.4660760000000 1.0
C      1  0.5254480000000  0.4194110000000  0.5419840000000 1.0
C      1  0.5256100000000  0.5800630000000  0.4542920000000 1.0
C      1  0.4754480000000  0.5900760000000  0.5444350000000 1.0
C      1  0.4786110000000  0.4155760000000  0.4690180000000 1.0
C      1  0.5328210000000  0.4870410000000  0.4264290000000 1.0
C      1  0.5193050000000  0.5003600000000  0.5769550000000 1.0
C      1  0.4630610000000  0.5121260000000  0.4227710000000 1.0
C      1  0.4797110000000  0.4997400000000  0.5719310000000 1.0
C      1  0.5834280000000  0.4987210000000  0.4416220000000 1.0
C      1  0.5768740000000  0.5053850000000  0.5660610000000 1.0
C      1  0.4139530000000  0.5010450000000  0.4410090000000 1.0
C      1  0.4217470000000  0.4961350000000  0.5647280000000 1.0
C      1  0.4304330000000  0.4178920000000  0.4856650000000 1.0
C      1  0.4378260000000  0.5811060000000  0.5111850000000 1.0
C      1  0.5648250000000  0.5841760000000  0.4848960000000 1.0
C      1  0.5659740000000  0.4193710000000  0.5118660000000 1.0
C      1  0.5040320000000  0.4092180000000  0.5235450000000 1.0
C      1  0.5014020000000  0.5938260000000  0.4615540000000 1.0
C      1  0.5013100000000  0.5995200000000  0.5367340000000 1.0
C      1  0.5065490000000  0.4313820000000  0.4622200000000 1.0
C      1  0.4308400000000  0.4651540000000  0.5648000000000 1.0
C      1  0.4349510000000  0.5271100000000  0.4348870000000 1.0
C      1  0.5659470000000  0.5360690000000  0.5641920000000 1.0
C      1  0.5632110000000  0.4737820000000  0.4342740000000 1.0
C      1  0.4112230000000  0.4698470000000  0.4354750000000 1.0
C      1  0.4156570000000  0.5296570000000  0.5655720000000 1.0
C      1  0.5858030000000  0.5286100000000  0.4333320000000 1.0
C      1  0.5841040000000  0.4720320000000  0.5667290000000 1.0
C      1  0.5175440000000  0.4006230000000  0.4179360000000 1.0
C      1  0.5224280000000  0.6014530000000  0.5824030000000 1.0
C      1  0.4766460000000  0.6000310000000  0.4179270000000 1.0
C      1  0.4751630000000  0.3784350000000  0.5521270000000 1.0
C      1  0.4758800000000  0.5423510000000  0.5265590000000 1.0
C      1  0.4670180000000  0.4638470000000  0.4709590000000 1.0
C      1  0.5247350000000  0.4659000000000  0.5346170000000 1.0
C      1  0.5269690000000  0.5328950000000  0.4717450000000 1.0
C      1  0.4537850000000  0.5358310000000  0.4623430000000 1.0
C      1  0.4568880000000  0.4577150000000  0.5440720000000 1.0
C      1  0.5486980000000  0.4635730000000  0.4634400000000 1.0
C      1  0.5408450000000  0.5444010000000  0.5423880000000 1.0
C      1  0.5537080000000  0.5837650000000  0.4547360000000 1.0
C      1  0.5539350000000  0.4172400000000  0.5417560000000 1.0
C      1  0.4468720000000  0.4191090000000  0.4567790000000 1.0
C      1  0.4459590000000  0.5854260000000  0.5422350000000 1.0
C      1  0.4458570000000  0.4892340000000  0.4387050000000 1.0
C      1  0.4511950000000  0.5119640000000  0.5619500000000 1.0
C      1  0.5511220000000  0.5107770000000  0.4416380000000 1.0
C      1  0.5477570000000  0.4880580000000  0.5650290000000 1.0
C      1  0.4850120000000  0.5337210000000  0.4304820000000 1.0
C      1  0.4985000000000  0.4736070000000  0.5724020000000 1.0
C      1  0.5111510000000  0.4620230000000  0.4278380000000 1.0
C      1  0.5027450000000  0.5248060000000  0.5672910000000 1.0
C      1  0.4524730000000  0.4118970000000  0.5108900000000 1.0
C      1  0.4622680000000  0.5818930000000  0.4873530000000 1.0
C      1  0.5420310000000  0.5881150000000  0.5099990000000 1.0
C      1  0.5427070000000  0.4185800000000  0.4869440000000 1.0
C      1  0.4545240000000  0.4238240000000  0.5420690000000 1.0
C      1  0.4590830000000  0.5690800000000  0.4556950000000 1.0
C      1  0.5437570000000  0.5783460000000  0.5422610000000 1.0
C      1  0.5459490000000  0.4302160000000  0.4563150000000 1.0
C      1  0.5195230000000  0.4450270000000  0.5518030000000 1.0
C      1  0.5215120000000  0.5519670000000  0.4522790000000 1.0
C      1  0.4765610000000  0.5604620000000  0.5476340000000 1.0
C      1  0.4699000000000  0.4422470000000  0.4505410000000 1.0
C      1  0.5594350000000  0.4919690000000  0.5331990000000 1.0
C      1  0.5599140000000  0.5068020000000  0.4726920000000 1.0
C      1  0.4386570000000  0.5072420000000  0.5306000000000 1.0
C      1  0.4394330000000  0.4929070000000  0.4704390000000 1.0
C      1  0.4772210000000  0.5312350000000  0.4943410000000 1.0
C      1  0.4636090000000  0.4655770000000  0.5006420000000 1.0
C      1  0.5248400000000  0.4673570000000  0.5029210000000 1.0
C      1  0.5379180000000  0.5307780000000  0.5008730000000 1.0
C      1  0.5118320000000  0.4159890000000  0.4916670000000 1.0
C      1  0.5106180000000  0.5952480000000  0.5096600000000 1.0
C      1  0.4920320000000  0.5920200000000  0.4888930000000 1.0
C      1  0.4795190000000  0.4080290000000  0.4997720000000 1.0
C      1  0.5135270000000  0.5401500000000  0.4240100000000 1.0
C      1  0.5162320000000  0.4485200000000  0.5832960000000 1.0
C      1  0.4821970000000  0.4566260000000  0.4237450000000 1.0
C      1  0.4849080000000  0.5500730000000  0.5761490000000 1.0
C      1  0.4212010000000  0.5582780000000  0.5281720000000 1.0
C      1  0.4176720000000  0.4427940000000  0.4696660000000 1.0
C      1  0.5811970000000  0.4429100000000  0.5295240000000 1.0
C      1  0.5798390000000  0.5585050000000  0.4700730000000 1.0
C      1  0.4297000000000  0.4431430000000  0.4394830000000 1.0
C      1  0.4316890000000  0.5591730000000  0.5587580000000 1.0
C      1  0.5687820000000  0.5575170000000  0.4391650000000 1.0
C      1  0.5692800000000  0.4419160000000  0.5597220000000 1.0
C      1  0.3931920000000  0.4617910000000  0.4789970000000 1.0
C      1  0.3957330000000  0.5392090000000  0.5231700000000 1.0
C      1  0.6053840000000  0.5406920000000  0.4788720000000 1.0
C      1  0.6050760000000  0.4640500000000  0.5250980000000 1.0
C      1  0.4342410000000  0.5626230000000  0.4838750000000 1.0
C      1  0.4257240000000  0.4320840000000  0.5157390000000 1.0
C      1  0.5707200000000  0.4379460000000  0.4843450000000 1.0
C      1  0.5707130000000  0.5700980000000  0.5144700000000 1.0
C      1  0.5708880000000  0.4700860000000  0.4856790000000 1.0
C      1  0.5652010000000  0.5387180000000  0.5185610000000 1.0
C      1  0.4302150000000  0.5307250000000  0.4843910000000 1.0
C      1  0.4345820000000  0.4628590000000  0.5179440000000 1.0
C      1  0.5475780000000  0.5375370000000  0.4257900000000 1.0
C      1  0.5483120000000  0.4578880000000  0.5763950000000 1.0
C      1  0.4486270000000  0.4622850000000  0.4235410000000 1.0
C      1  0.4525650000000  0.5417000000000  0.5735570000000 1.0
C      1  0.5222490000000  0.5949280000000  0.5557000000000 1.0
C      1  0.5217630000000  0.4159110000000  0.4382520000000 1.0
C      1  0.4776450000000  0.4019390000000  0.5402300000000 1.0
C      1  0.4794600000000  0.5901180000000  0.4434400000000 1.0
C      1  0.4866430000000  0.5262910000000  0.4619230000000 1.0
C      1  0.4846650000000  0.4688540000000  0.5431190000000 1.0
C      1  0.5147780000000  0.4630270000000  0.4610410000000 1.0
C      1  0.5127640000000  0.5329380000000  0.5386170000000 1.0
C      1  0.5290000000000  0.4758490000000  0.5981440000000 1.0
C      1  0.5282220000000  0.5143320000000  0.4091630000000 1.0
C      1  0.4733650000000  0.5240430000000  0.5943240000000 1.0
C      1  0.4698210000000  0.4837680000000  0.4072970000000 1.0
C      1  0.4307340000000  0.4347550000000  0.5630220000000 1.0
C      1  0.4572380000000  0.5514800000000  0.4265400000000 1.0
C      1  0.5679860000000  0.5660830000000  0.5615770000000 1.0
C      1  0.5416630000000  0.4482930000000  0.4277430000000 1.0
C      1  0.4894560000000  0.4921620000000  0.3848970000000 1.0
C      1  0.4923520000000  0.5115330000000  0.6155830000000 1.0
C      1  0.5108970000000  0.5049310000000  0.3853140000000 1.0
C      1  0.5109680000000  0.4953220000000  0.6157480000000 1.0
C      1  0.4922310000000  0.4697080000000  0.5121210000000 1.0
C      1  0.5072810000000  0.5277770000000  0.5070570000000 1.0
C      1  0.4998250000000  0.4989750000000  0.5011730000000 1.0
END
