TITL C-2782229-3092-568 -0.000406698706972888 125000 -928.070023344403 0 0 160 (C1) n - 1
REM
REM in /home/nfs/bkarasulu/CARBON/AIRSS/Generating-Clusters/REBO/Higher-Symm/SD-CG/HFTN-CG
REM
REM
REM
REM
REM
REM ./C.cell (12c818d87b63d06a65506943cc24bca4)
REM
REM compiler GCC version 9.2.1 20190827 (Red Hat 9.2.1-1)
REM options -cpp -mtune=generic -march=x86-64 -g -O0 -fpre-include=/usr/include/finclude/math-vector-fortran.h
REM seed 1304712003 -337192686 1045987663 411550496 1383422948 551134451 2099643793 905460941 1002790891 -1818957612 -557605173 -986243808 -1703221064 216557558 -819678818 -675910168 571415922 1855514898 -1009343155 -434739932 -1339075190 865587282 -153739584 921629037 884460393 2106549019 -685436688 617679752 -1119627282 712429664 -680961229 -2132450768 -2032452208
REM
CELL 1.54180   50.00000   50.00000   50.00000   90.00000   90.00000   90.00000
LATT -1
SFAC C  
C      1  0.6108480000000  0.5063370000000  0.4728440000000 1.0
C      1  0.5124310000000  0.4699780000000  0.6082990000000 1.0
C      1  0.4715030000000  0.6161200000000  0.5136710000000 1.0
C      1  0.3906710000000  0.5120830000000  0.5307400000000 1.0
C      1  0.3893010000000  0.4869990000000  0.4730550000000 1.0
C      1  0.6116340000000  0.4902220000000  0.5253390000000 1.0
C      1  0.4871490000000  0.4728260000000  0.3896500000000 1.0
C      1  0.4860670000000  0.5353800000000  0.6055380000000 1.0
C      1  0.5094200000000  0.5284830000000  0.3881920000000 1.0
C      1  0.5317620000000  0.6117830000000  0.4867100000000 1.0
C      1  0.5314160000000  0.3891850000000  0.5052610000000 1.0
C      1  0.4765550000000  0.3847910000000  0.4859190000000 1.0
C      1  0.4681750000000  0.5180490000000  0.6078650000000 1.0
C      1  0.6088960000000  0.4756560000000  0.5020180000000 1.0
C      1  0.5154270000000  0.6128620000000  0.4672920000000 1.0
C      1  0.5296730000000  0.5134520000000  0.3875200000000 1.0
C      1  0.4693580000000  0.4907180000000  0.3926060000000 1.0
C      1  0.5296190000000  0.4887670000000  0.6084430000000 1.0
C      1  0.3899440000000  0.4657250000000  0.4906850000000 1.0
C      1  0.6112410000000  0.5249550000000  0.4899320000000 1.0
C      1  0.3904130000000  0.5321180000000  0.5156000000000 1.0
C      1  0.4910170000000  0.6164040000000  0.5298520000000 1.0
C      1  0.5131110000000  0.3876400000000  0.5226570000000 1.0
C      1  0.4965940000000  0.3848170000000  0.4706170000000 1.0
C      1  0.4637050000000  0.5654480000000  0.5856610000000 1.0
C      1  0.5622370000000  0.5792160000000  0.4610670000000 1.0
C      1  0.5829450000000  0.4626880000000  0.5612800000000 1.0
C      1  0.5429070000000  0.5567540000000  0.4226350000000 1.0
C      1  0.5390730000000  0.4352310000000  0.5804430000000 1.0
C      1  0.4610670000000  0.4383090000000  0.4160060000000 1.0
C      1  0.4369910000000  0.5887600000000  0.5386650000000 1.0
C      1  0.4396040000000  0.4121890000000  0.4612290000000 1.0
C      1  0.5606280000000  0.4174230000000  0.5360260000000 1.0
C      1  0.4224580000000  0.4530020000000  0.4427860000000 1.0
C      1  0.4254150000000  0.5456080000000  0.5596590000000 1.0
C      1  0.5827250000000  0.5357080000000  0.4404900000000 1.0
C      1  0.5822380000000  0.5578400000000  0.4605410000000 1.0
C      1  0.4557530000000  0.5875660000000  0.5629880000000 1.0
C      1  0.5586260000000  0.4627700000000  0.5808350000000 1.0
C      1  0.4198970000000  0.5659550000000  0.5385020000000 1.0
C      1  0.5775150000000  0.4417980000000  0.5400070000000 1.0
C      1  0.4185510000000  0.4316900000000  0.4629220000000 1.0
C      1  0.5423430000000  0.5814460000000  0.4387430000000 1.0
C      1  0.4598530000000  0.4192740000000  0.4397820000000 1.0
C      1  0.5395080000000  0.4153400000000  0.5577520000000 1.0
C      1  0.4403210000000  0.4598170000000  0.4191820000000 1.0
C      1  0.5637110000000  0.5361330000000  0.4192120000000 1.0
C      1  0.4422020000000  0.5409810000000  0.5852190000000 1.0
C      1  0.5308800000000  0.5701660000000  0.5429530000000 1.0
C      1  0.5720470000000  0.5472660000000  0.5218500000000 1.0
C      1  0.5510410000000  0.5275960000000  0.5708110000000 1.0
C      1  0.4781800000000  0.5724230000000  0.4557850000000 1.0
C      1  0.4801890000000  0.4284760000000  0.5476800000000 1.0
C      1  0.5342300000000  0.4265240000000  0.4454360000000 1.0
C      1  0.4327390000000  0.5533840000000  0.4799080000000 1.0
C      1  0.4336690000000  0.4445830000000  0.5218020000000 1.0
C      1  0.5714880000000  0.4543970000000  0.4691970000000 1.0
C      1  0.4480130000000  0.5227960000000  0.4343890000000 1.0
C      1  0.4560380000000  0.4753320000000  0.5704160000000 1.0
C      1  0.5503210000000  0.4762850000000  0.4268480000000 1.0
C      1  0.5509820000000  0.5698420000000  0.5213830000000 1.0
C      1  0.5268420000000  0.5513440000000  0.5659410000000 1.0
C      1  0.5717480000000  0.5230410000000  0.5465670000000 1.0
C      1  0.4531130000000  0.5726060000000  0.4797590000000 1.0
C      1  0.5533410000000  0.4310290000000  0.4732350000000 1.0
C      1  0.4583900000000  0.4253800000000  0.5215540000000 1.0
C      1  0.4694980000000  0.5492150000000  0.4323600000000 1.0
C      1  0.5248750000000  0.4534250000000  0.4266910000000 1.0
C      1  0.4791810000000  0.4493520000000  0.5677940000000 1.0
C      1  0.4269730000000  0.5270430000000  0.4589470000000 1.0
C      1  0.5701240000000  0.4752480000000  0.4484700000000 1.0
C      1  0.4321380000000  0.4668100000000  0.5476750000000 1.0
C      1  0.4551900000000  0.4811760000000  0.4980620000000 1.0
C      1  0.4802530000000  0.5034930000000  0.4572600000000 1.0
C      1  0.4986610000000  0.4557390000000  0.4764470000000 1.0
C      1  0.5389980000000  0.4785080000000  0.5040000000000 1.0
C      1  0.5395130000000  0.5280560000000  0.5087480000000 1.0
C      1  0.4587490000000  0.5208420000000  0.4988040000000 1.0
C      1  0.5179370000000  0.5020560000000  0.5478540000000 1.0
C      1  0.5198690000000  0.5028380000000  0.4619550000000 1.0
C      1  0.4781940000000  0.5015650000000  0.5444010000000 1.0
C      1  0.4938310000000  0.4578700000000  0.5243670000000 1.0
C      1  0.4989900000000  0.5467310000000  0.4826610000000 1.0
C      1  0.4984980000000  0.5487580000000  0.5313510000000 1.0
C      1  0.5020140000000  0.4788750000000  0.4576250000000 1.0
C      1  0.4551200000000  0.5030880000000  0.4740730000000 1.0
C      1  0.4764900000000  0.4589490000000  0.5001200000000 1.0
C      1  0.4959590000000  0.4782930000000  0.5459490000000 1.0
C      1  0.5010250000000  0.5255890000000  0.5499970000000 1.0
C      1  0.4982550000000  0.5261650000000  0.4611070000000 1.0
C      1  0.5388450000000  0.5034290000000  0.5262210000000 1.0
C      1  0.4582980000000  0.4991990000000  0.5220530000000 1.0
C      1  0.5382010000000  0.5027490000000  0.4864510000000 1.0
C      1  0.5162930000000  0.4586660000000  0.5003510000000 1.0
C      1  0.4784950000000  0.5429950000000  0.5042310000000 1.0
C      1  0.5176290000000  0.5492400000000  0.5088930000000 1.0
C      1  0.4300710000000  0.5200490000000  0.5411420000000 1.0
C      1  0.5191550000000  0.5390170000000  0.4358090000000 1.0
C      1  0.5391290000000  0.4393300000000  0.5109200000000 1.0
C      1  0.5583570000000  0.5130560000000  0.4623610000000 1.0
C      1  0.5623650000000  0.4850540000000  0.5356800000000 1.0
C      1  0.4354930000000  0.4785530000000  0.4589780000000 1.0
C      1  0.4731010000000  0.5377930000000  0.5600340000000 1.0
C      1  0.4870320000000  0.4582670000000  0.4384330000000 1.0
C      1  0.5166770000000  0.4579430000000  0.5569990000000 1.0
C      1  0.4633640000000  0.4353640000000  0.4831500000000 1.0
C      1  0.4621540000000  0.5642970000000  0.5200680000000 1.0
C      1  0.5367530000000  0.5595790000000  0.4846450000000 1.0
C      1  0.5378160000000  0.5124650000000  0.4381320000000 1.0
C      1  0.4408780000000  0.5393980000000  0.5173390000000 1.0
C      1  0.5166480000000  0.4371060000000  0.5336800000000 1.0
C      1  0.4538040000000  0.5141330000000  0.5586290000000 1.0
C      1  0.5399750000000  0.4798010000000  0.5584130000000 1.0
C      1  0.4651950000000  0.4803300000000  0.4424330000000 1.0
C      1  0.5591990000000  0.5363150000000  0.4846410000000 1.0
C      1  0.4400830000000  0.4572550000000  0.4844830000000 1.0
C      1  0.5656080000000  0.4595330000000  0.5156480000000 1.0
C      1  0.4842810000000  0.4317580000000  0.4577660000000 1.0
C      1  0.5162630000000  0.5614010000000  0.4608080000000 1.0
C      1  0.4785300000000  0.5700110000000  0.5481580000000 1.0
C      1  0.5101310000000  0.4124070000000  0.4584780000000 1.0
C      1  0.4132740000000  0.4445300000000  0.4943130000000 1.0
C      1  0.4494200000000  0.4930270000000  0.4175210000000 1.0
C      1  0.5083090000000  0.4090820000000  0.5450840000000 1.0
C      1  0.5100250000000  0.5888920000000  0.4484960000000 1.0
C      1  0.5058290000000  0.5876270000000  0.5373040000000 1.0
C      1  0.5863150000000  0.4607790000000  0.4931330000000 1.0
C      1  0.5889080000000  0.5463720000000  0.4919680000000 1.0
C      1  0.4130820000000  0.5527400000000  0.5077960000000 1.0
C      1  0.5469600000000  0.4975350000000  0.5857800000000 1.0
C      1  0.5503760000000  0.5059860000000  0.4100360000000 1.0
C      1  0.4475020000000  0.5065530000000  0.5873950000000 1.0
C      1  0.4549620000000  0.4058820000000  0.4911320000000 1.0
C      1  0.4926780000000  0.4498660000000  0.4094080000000 1.0
C      1  0.4094490000000  0.4977220000000  0.4576690000000 1.0
C      1  0.5522670000000  0.4128180000000  0.5024890000000 1.0
C      1  0.4521320000000  0.5920460000000  0.5079350000000 1.0
C      1  0.5505010000000  0.5873250000000  0.4920660000000 1.0
C      1  0.5079260000000  0.4482070000000  0.5862640000000 1.0
C      1  0.4959540000000  0.5535310000000  0.5801420000000 1.0
C      1  0.4933880000000  0.5379630000000  0.4159490000000 1.0
C      1  0.5897150000000  0.4935830000000  0.5479160000000 1.0
C      1  0.4161550000000  0.4908320000000  0.5383440000000 1.0
C      1  0.5875970000000  0.5041880000000  0.4525480000000 1.0
C      1  0.5035870000000  0.4185970000000  0.4907100000000 1.0
C      1  0.4905520000000  0.5857360000000  0.4828860000000 1.0
C      1  0.4198680000000  0.5173200000000  0.4905320000000 1.0
C      1  0.5120400000000  0.4830750000000  0.4192280000000 1.0
C      1  0.4883060000000  0.4191340000000  0.5097580000000 1.0
C      1  0.5770260000000  0.5153550000000  0.5141860000000 1.0
C      1  0.5778230000000  0.4996210000000  0.4943170000000 1.0
C      1  0.4210010000000  0.5002540000000  0.5076580000000 1.0
C      1  0.4824850000000  0.4887870000000  0.5820510000000 1.0
C      1  0.5018230000000  0.5052390000000  0.4197110000000 1.0
C      1  0.5019730000000  0.5051800000000  0.5846980000000 1.0
C      1  0.5008420000000  0.5869870000000  0.5048260000000 1.0
C      1  0.4161540000000  0.4431980000000  0.5570120000000 1.0
C      1  0.4458200000000  0.5580780000000  0.4163750000000 1.0
C      1  0.5483720000000  0.4087740000000  0.4276910000000 1.0
C      1  0.5586590000000  0.5491060000000  0.5899910000000 1.0
END
