TITL C-2782226-7400-999 0.0584403176716599 125000 -898.84525298046 0 0 151 (C1) n - 1
REM
REM in /home/nfs/bkarasulu/CARBON/AIRSS/Generating-Clusters/REBO/Higher-Symm/SD-CG/HFTN-CG
REM
REM
REM
REM
REM
REM ./C.cell (12c818d87b63d06a65506943cc24bca4)
REM
REM compiler GCC version 9.2.1 20190827 (Red Hat 9.2.1-1)
REM options -cpp -mtune=generic -march=x86-64 -g -O0 -fpre-include=/usr/include/finclude/math-vector-fortran.h
REM seed -172195966 -1855639308 -343720577 -859906533 1967140965 2027672119 -1894824795 821655255 225633033 1657265367 655647418 -1446651934 1167603304 -291531299 -1713312196 944402901 1237044713 -2046029273 1043412829 2132258826 -2147044096 175386186 -789468415 324437161 -2122150982 1084394051 1181617085 -507689048 2023045342 1233301570 1595943111 -1492403369 359920386
REM
CELL 1.54180   50.00000   50.00000   50.00000   90.00000   90.00000   90.00000
LATT -1
SFAC C  
C      1  0.5511430000000  0.4506270000000  0.4254910000000 1.0
C      1  0.5498690000000  0.4525150000000  0.5797950000000 1.0
C      1  0.4614640000000  0.4178010000000  0.5574210000000 1.0
C      1  0.4534700000000  0.4389660000000  0.4426320000000 1.0
C      1  0.5727810000000  0.5040960000000  0.4787780000000 1.0
C      1  0.5815810000000  0.5078630000000  0.5109750000000 1.0
C      1  0.5023270000000  0.4174420000000  0.4442600000000 1.0
C      1  0.5090840000000  0.4011340000000  0.5434340000000 1.0
C      1  0.4850950000000  0.4337090000000  0.4842240000000 1.0
C      1  0.4839370000000  0.4382490000000  0.5165670000000 1.0
C      1  0.4951070000000  0.5657300000000  0.4291980000000 1.0
C      1  0.4918840000000  0.5695310000000  0.5644820000000 1.0
C      1  0.6044970000000  0.4841850000000  0.4478770000000 1.0
C      1  0.5833340000000  0.4881780000000  0.5583340000000 1.0
C      1  0.4692420000000  0.5096600000000  0.3954220000000 1.0
C      1  0.4732200000000  0.5224460000000  0.6091390000000 1.0
C      1  0.4135150000000  0.4512140000000  0.5459290000000 1.0
C      1  0.4179670000000  0.4562510000000  0.4662450000000 1.0
C      1  0.5490360000000  0.5031790000000  0.5134240000000 1.0
C      1  0.5408640000000  0.5083170000000  0.4817340000000 1.0
C      1  0.6188740000000  0.5071620000000  0.4860130000000 1.0
C      1  0.6149710000000  0.5085780000000  0.5168970000000 1.0
C      1  0.4504300000000  0.5238480000000  0.5918850000000 1.0
C      1  0.4460390000000  0.5219950000000  0.4051520000000 1.0
C      1  0.6220130000000  0.5333830000000  0.5337610000000 1.0
C      1  0.6099540000000  0.5293060000000  0.4697360000000 1.0
C      1  0.4485190000000  0.5739850000000  0.5070590000000 1.0
C      1  0.4511720000000  0.5759190000000  0.4784560000000 1.0
C      1  0.4679130000000  0.5605630000000  0.4344580000000 1.0
C      1  0.4702720000000  0.5505500000000  0.5558060000000 1.0
C      1  0.4413490000000  0.4242470000000  0.4677500000000 1.0
C      1  0.4473860000000  0.4116390000000  0.5325030000000 1.0
C      1  0.5402790000000  0.5845220000000  0.4681140000000 1.0
C      1  0.5338300000000  0.5754340000000  0.5407350000000 1.0
C      1  0.4760340000000  0.4643470000000  0.4385040000000 1.0
C      1  0.4912000000000  0.4753360000000  0.5526350000000 1.0
C      1  0.5350050000000  0.5281450000000  0.5284350000000 1.0
C      1  0.5312640000000  0.5356210000000  0.4766470000000 1.0
C      1  0.5716470000000  0.5126370000000  0.5760540000000 1.0
C      1  0.5665870000000  0.5146920000000  0.4316940000000 1.0
C      1  0.3871320000000  0.5045860000000  0.5176980000000 1.0
C      1  0.3959550000000  0.5185950000000  0.4879850000000 1.0
C      1  0.4621620000000  0.5558530000000  0.4623070000000 1.0
C      1  0.4671190000000  0.5529650000000  0.5232970000000 1.0
C      1  0.4283550000000  0.5552930000000  0.4369440000000 1.0
C      1  0.4230340000000  0.5473980000000  0.5607150000000 1.0
C      1  0.4020930000000  0.5048100000000  0.5445950000000 1.0
C      1  0.4110340000000  0.5134010000000  0.4589250000000 1.0
C      1  0.4052090000000  0.4767210000000  0.5164510000000 1.0
C      1  0.3978530000000  0.4854140000000  0.4844490000000 1.0
C      1  0.5065090000000  0.4567230000000  0.4384310000000 1.0
C      1  0.5029330000000  0.4455720000000  0.5642650000000 1.0
C      1  0.5241030000000  0.4467710000000  0.4198290000000 1.0
C      1  0.5264590000000  0.4452960000000  0.5851370000000 1.0
C      1  0.4431660000000  0.6003160000000  0.5217380000000 1.0
C      1  0.4569280000000  0.6037790000000  0.4674740000000 1.0
C      1  0.5259310000000  0.4970680000000  0.5988690000000 1.0
C      1  0.5295860000000  0.4869070000000  0.4038970000000 1.0
C      1  0.4631550000000  0.4102920000000  0.4811690000000 1.0
C      1  0.4656990000000  0.4118860000000  0.5111890000000 1.0
C      1  0.4473730000000  0.5471650000000  0.5752890000000 1.0
C      1  0.4469270000000  0.5505400000000  0.4134500000000 1.0
C      1  0.4936170000000  0.4979920000000  0.6000580000000 1.0
C      1  0.5036620000000  0.4910470000000  0.3980460000000 1.0
C      1  0.5238300000000  0.4569400000000  0.5392030000000 1.0
C      1  0.5203050000000  0.4616620000000  0.4671920000000 1.0
C      1  0.4740440000000  0.5320740000000  0.4760230000000 1.0
C      1  0.4732230000000  0.5257020000000  0.5082340000000 1.0
C      1  0.4444170000000  0.4612510000000  0.5472920000000 1.0
C      1  0.4441650000000  0.4753300000000  0.4701680000000 1.0
C      1  0.5070330000000  0.5587710000000  0.5855890000000 1.0
C      1  0.5061130000000  0.5504590000000  0.4087590000000 1.0
C      1  0.5546710000000  0.5509020000000  0.5170230000000 1.0
C      1  0.5537590000000  0.5540150000000  0.4900940000000 1.0
C      1  0.4834520000000  0.5207640000000  0.5461940000000 1.0
C      1  0.4857340000000  0.5039990000000  0.4487630000000 1.0
C      1  0.5136350000000  0.5086350000000  0.5559950000000 1.0
C      1  0.5128730000000  0.5061990000000  0.4392130000000 1.0
C      1  0.4187270000000  0.4321140000000  0.4905130000000 1.0
C      1  0.4218520000000  0.4260670000000  0.5239640000000 1.0
C      1  0.4762230000000  0.4822140000000  0.5806060000000 1.0
C      1  0.4739090000000  0.4794910000000  0.4081230000000 1.0
C      1  0.5433610000000  0.5480600000000  0.5550770000000 1.0
C      1  0.5419490000000  0.5545580000000  0.4519420000000 1.0
C      1  0.4990970000000  0.5744310000000  0.4841300000000 1.0
C      1  0.4890550000000  0.5775960000000  0.5165890000000 1.0
C      1  0.4622400000000  0.4952350000000  0.5099780000000 1.0
C      1  0.4551780000000  0.5050630000000  0.4794770000000 1.0
C      1  0.5120190000000  0.4315530000000  0.4704310000000 1.0
C      1  0.5104550000000  0.4316640000000  0.5276990000000 1.0
C      1  0.4603990000000  0.5164120000000  0.4418940000000 1.0
C      1  0.4522760000000  0.5095150000000  0.5457470000000 1.0
C      1  0.5059800000000  0.5788380000000  0.5420700000000 1.0
C      1  0.5125870000000  0.5717950000000  0.4530250000000 1.0
C      1  0.5232820000000  0.5328600000000  0.5734030000000 1.0
C      1  0.5182270000000  0.5227970000000  0.4174110000000 1.0
C      1  0.5673540000000  0.5418430000000  0.4405270000000 1.0
C      1  0.5707340000000  0.5425710000000  0.5663310000000 1.0
C      1  0.4721290000000  0.6052960000000  0.5149060000000 1.0
C      1  0.4806280000000  0.6018090000000  0.4861900000000 1.0
C      1  0.4654200000000  0.4544360000000  0.5899610000000 1.0
C      1  0.4480830000000  0.4625550000000  0.4007200000000 1.0
C      1  0.4320080000000  0.5315680000000  0.4530730000000 1.0
C      1  0.4231180000000  0.5245930000000  0.5440560000000 1.0
C      1  0.5582200000000  0.4696320000000  0.5549700000000 1.0
C      1  0.5552660000000  0.4684810000000  0.4475480000000 1.0
C      1  0.5733560000000  0.5632380000000  0.5322350000000 1.0
C      1  0.5769010000000  0.5643650000000  0.4778800000000 1.0
C      1  0.5461960000000  0.5898500000000  0.5196110000000 1.0
C      1  0.5464450000000  0.5932450000000  0.4925320000000 1.0
C      1  0.5972020000000  0.5482250000000  0.5474600000000 1.0
C      1  0.5900050000000  0.5470760000000  0.4588880000000 1.0
C      1  0.5853480000000  0.5167800000000  0.5422810000000 1.0
C      1  0.5805220000000  0.4992080000000  0.4514170000000 1.0
C      1  0.5427780000000  0.4720530000000  0.5181650000000 1.0
C      1  0.5425330000000  0.4753330000000  0.4854980000000 1.0
C      1  0.5932970000000  0.4625310000000  0.5168820000000 1.0
C      1  0.5953910000000  0.4647210000000  0.4892520000000 1.0
C      1  0.3949670000000  0.4461550000000  0.5192450000000 1.0
C      1  0.3920620000000  0.4531580000000  0.4870870000000 1.0
C      1  0.4336410000000  0.5024450000000  0.4260800000000 1.0
C      1  0.4472660000000  0.4965070000000  0.5748510000000 1.0
C      1  0.4528140000000  0.4417200000000  0.5693410000000 1.0
C      1  0.4370870000000  0.4468930000000  0.4171720000000 1.0
C      1  0.5292670000000  0.4876150000000  0.5523250000000 1.0
C      1  0.5314440000000  0.4875740000000  0.4490760000000 1.0
C      1  0.5343750000000  0.4170500000000  0.4843840000000 1.0
C      1  0.5317010000000  0.4129530000000  0.5145470000000 1.0
C      1  0.4259310000000  0.5024840000000  0.4941710000000 1.0
C      1  0.4334530000000  0.4916510000000  0.5238400000000 1.0
C      1  0.4964920000000  0.4831220000000  0.5266110000000 1.0
C      1  0.4837870000000  0.4795140000000  0.4682310000000 1.0
C      1  0.4801930000000  0.4228540000000  0.4341550000000 1.0
C      1  0.4901490000000  0.4176640000000  0.5590360000000 1.0
C      1  0.4201700000000  0.4817400000000  0.5598730000000 1.0
C      1  0.4197520000000  0.4842150000000  0.4486740000000 1.0
C      1  0.6138890000000  0.4810260000000  0.4748040000000 1.0
C      1  0.6039650000000  0.4828810000000  0.5333140000000 1.0
C      1  0.4663300000000  0.4607540000000  0.4889320000000 1.0
C      1  0.4619330000000  0.4636020000000  0.5225390000000 1.0
C      1  0.5690970000000  0.4578800000000  0.4747340000000 1.0
C      1  0.5665910000000  0.4519370000000  0.5273890000000 1.0
C      1  0.5040410000000  0.5415880000000  0.4889060000000 1.0
C      1  0.5047710000000  0.5293680000000  0.5207440000000 1.0
C      1  0.5042650000000  0.5304840000000  0.6013310000000 1.0
C      1  0.4971030000000  0.5235360000000  0.3905420000000 1.0
C      1  0.5485280000000  0.5038810000000  0.5924040000000 1.0
C      1  0.5509680000000  0.5001420000000  0.4136950000000 1.0
C      1  0.5626240000000  0.4288270000000  0.4822060000000 1.0
C      1  0.5601850000000  0.4254790000000  0.5133920000000 1.0
C      1  0.4982840000000  0.4823840000000  0.4989650000000 1.0
END
