TITL C-2782229-3092-1106 0.00204442741494787 125000 -606.971372103354 0 0 107 (C1) n - 1
REM
REM in /home/nfs/bkarasulu/CARBON/AIRSS/Generating-Clusters/REBO/Higher-Symm/SD-CG/HFTN-CG
REM
REM
REM
REM
REM
REM ./C.cell (12c818d87b63d06a65506943cc24bca4)
REM
REM compiler GCC version 9.2.1 20190827 (Red Hat 9.2.1-1)
REM options -cpp -mtune=generic -march=x86-64 -g -O0 -fpre-include=/usr/include/finclude/math-vector-fortran.h
REM seed -1375209913 177178174 -240122595 -131283044 449118285 -1686888424 -1123385778 346848089 918106377 -259822478 -342185174 -678466024 1831666991 131906010 -1236054503 -1085376516 15910326 -422300215 -114795733 1051069870 -603422916 -1108974602 -641449748 539465175 1604739006 453146415 -1788000279 -2105408166 -1582554824 1149175813 1110233484 220341375 -656916886
REM
CELL 1.54180   50.00000   50.00000   50.00000   90.00000   90.00000   90.00000
LATT -1
SFAC C  
C      1  0.4212040000000  0.5339840000000  0.4991790000000 1.0
C      1  0.5753770000000  0.5351650000000  0.4984060000000 1.0
C      1  0.4344610000000  0.4721950000000  0.5030250000000 1.0
C      1  0.5780260000000  0.4672850000000  0.5021760000000 1.0
C      1  0.5340850000000  0.4392210000000  0.4526450000000 1.0
C      1  0.4552390000000  0.4430760000000  0.5432990000000 1.0
C      1  0.5485440000000  0.5777280000000  0.4462000000000 1.0
C      1  0.4596690000000  0.5611600000000  0.5425530000000 1.0
C      1  0.5620590000000  0.5529940000000  0.5241910000000 1.0
C      1  0.4332220000000  0.5477100000000  0.4700770000000 1.0
C      1  0.5620310000000  0.4498150000000  0.5179810000000 1.0
C      1  0.4310370000000  0.4501550000000  0.4765290000000 1.0
C      1  0.5783150000000  0.4959770000000  0.5162770000000 1.0
C      1  0.4291980000000  0.4844430000000  0.4720430000000 1.0
C      1  0.5833960000000  0.5265510000000  0.5300230000000 1.0
C      1  0.4245980000000  0.5144800000000  0.4710650000000 1.0
C      1  0.5091850000000  0.4527900000000  0.5406270000000 1.0
C      1  0.4900860000000  0.4590360000000  0.4587070000000 1.0
C      1  0.5118270000000  0.5408790000000  0.5390390000000 1.0
C      1  0.4991970000000  0.5374290000000  0.4645440000000 1.0
C      1  0.4993860000000  0.4329540000000  0.5168150000000 1.0
C      1  0.4949300000000  0.4343220000000  0.4766660000000 1.0
C      1  0.5032740000000  0.5654740000000  0.5347840000000 1.0
C      1  0.5121440000000  0.5647600000000  0.4770170000000 1.0
C      1  0.5182950000000  0.4891350000000  0.4444740000000 1.0
C      1  0.4835190000000  0.4863760000000  0.5548180000000 1.0
C      1  0.5241180000000  0.5194880000000  0.4396170000000 1.0
C      1  0.4833380000000  0.5173080000000  0.5534150000000 1.0
C      1  0.5373160000000  0.5650580000000  0.5109380000000 1.0
C      1  0.4588570000000  0.5512700000000  0.4923090000000 1.0
C      1  0.5372390000000  0.4405970000000  0.5065600000000 1.0
C      1  0.4599840000000  0.4434410000000  0.4934770000000 1.0
C      1  0.5189480000000  0.4523130000000  0.5792690000000 1.0
C      1  0.4801380000000  0.4551380000000  0.4203600000000 1.0
C      1  0.5194580000000  0.5451490000000  0.5853570000000 1.0
C      1  0.4791930000000  0.5440200000000  0.4238300000000 1.0
C      1  0.5017670000000  0.5098290000000  0.5814390000000 1.0
C      1  0.4973080000000  0.5169540000000  0.4250750000000 1.0
C      1  0.4993530000000  0.4783970000000  0.5820780000000 1.0
C      1  0.4899560000000  0.4858270000000  0.4290400000000 1.0
C      1  0.4867080000000  0.5340810000000  0.5031450000000 1.0
C      1  0.5177740000000  0.5414110000000  0.4995720000000 1.0
C      1  0.4867450000000  0.4601550000000  0.5069240000000 1.0
C      1  0.5188660000000  0.4601440000000  0.4953600000000 1.0
C      1  0.5417580000000  0.4668230000000  0.4333910000000 1.0
C      1  0.4613830000000  0.4640680000000  0.5687780000000 1.0
C      1  0.5406170000000  0.5486080000000  0.4351800000000 1.0
C      1  0.4578920000000  0.5440590000000  0.5680500000000 1.0
C      1  0.4899870000000  0.4852380000000  0.4760620000000 1.0
C      1  0.5165030000000  0.4794980000000  0.5300750000000 1.0
C      1  0.4827610000000  0.5147490000000  0.4752200000000 1.0
C      1  0.5206290000000  0.5135200000000  0.5280520000000 1.0
C      1  0.4404110000000  0.5345610000000  0.4230250000000 1.0
C      1  0.5541530000000  0.5135320000000  0.5649860000000 1.0
C      1  0.4349010000000  0.4629540000000  0.4277320000000 1.0
C      1  0.5558210000000  0.4828990000000  0.5576160000000 1.0
C      1  0.5582880000000  0.4571670000000  0.5456860000000 1.0
C      1  0.4407990000000  0.4433310000000  0.4472780000000 1.0
C      1  0.5555950000000  0.5414700000000  0.5543730000000 1.0
C      1  0.4431070000000  0.5543860000000  0.4424430000000 1.0
C      1  0.5118380000000  0.6123400000000  0.5199920000000 1.0
C      1  0.4719410000000  0.5917050000000  0.4677410000000 1.0
C      1  0.5219180000000  0.4154390000000  0.5346770000000 1.0
C      1  0.4655570000000  0.3939100000000  0.4758090000000 1.0
C      1  0.5108690000000  0.4520890000000  0.4322490000000 1.0
C      1  0.4885610000000  0.4436510000000  0.5662740000000 1.0
C      1  0.5074360000000  0.5564570000000  0.4382210000000 1.0
C      1  0.4878750000000  0.5401470000000  0.5790280000000 1.0
C      1  0.4701520000000  0.5707570000000  0.4412540000000 1.0
C      1  0.5376930000000  0.5587020000000  0.5693820000000 1.0
C      1  0.4709870000000  0.4341090000000  0.4448250000000 1.0
C      1  0.5360310000000  0.4380120000000  0.5555970000000 1.0
C      1  0.5283820000000  0.5947050000000  0.4972100000000 1.0
C      1  0.4692030000000  0.5799080000000  0.4959260000000 1.0
C      1  0.5283170000000  0.4106000000000  0.5010430000000 1.0
C      1  0.4630270000000  0.4136540000000  0.5034500000000 1.0
C      1  0.4661600000000  0.4181480000000  0.5347470000000 1.0
C      1  0.5198790000000  0.4133510000000  0.4678640000000 1.0
C      1  0.4685070000000  0.5839060000000  0.5283280000000 1.0
C      1  0.5283300000000  0.5889270000000  0.4635560000000 1.0
C      1  0.4454740000000  0.5181750000000  0.5171010000000 1.0
C      1  0.5615460000000  0.5195400000000  0.4775570000000 1.0
C      1  0.4412760000000  0.4900160000000  0.5270210000000 1.0
C      1  0.5605430000000  0.4872080000000  0.4816470000000 1.0
C      1  0.5444440000000  0.4860030000000  0.5116700000000 1.0
C      1  0.4610220000000  0.4752940000000  0.4807950000000 1.0
C      1  0.5517240000000  0.5146620000000  0.5252380000000 1.0
C      1  0.4545700000000  0.5181910000000  0.4855720000000 1.0
C      1  0.5271080000000  0.4680720000000  0.4696670000000 1.0
C      1  0.4683860000000  0.4713440000000  0.5303230000000 1.0
C      1  0.5322280000000  0.5299090000000  0.4709760000000 1.0
C      1  0.4693590000000  0.5322940000000  0.5311300000000 1.0
C      1  0.4446510000000  0.5180110000000  0.5682300000000 1.0
C      1  0.5625870000000  0.5248620000000  0.4450200000000 1.0
C      1  0.4442850000000  0.4918680000000  0.5591100000000 1.0
C      1  0.5578140000000  0.4918790000000  0.4491240000000 1.0
C      1  0.4989380000000  0.5880610000000  0.4476700000000 1.0
C      1  0.4948250000000  0.5971940000000  0.5383020000000 1.0
C      1  0.4868760000000  0.4074750000000  0.4590300000000 1.0
C      1  0.4917350000000  0.4137580000000  0.5504570000000 1.0
C      1  0.5326470000000  0.5156530000000  0.5899700000000 1.0
C      1  0.4642990000000  0.5137770000000  0.4168870000000 1.0
C      1  0.5329510000000  0.4835130000000  0.5809840000000 1.0
C      1  0.4585750000000  0.4814970000000  0.4171510000000 1.0
C      1  0.4997830000000  0.5767010000000  0.5045750000000 1.0
C      1  0.4950930000000  0.4071300000000  0.4981570000000 1.0
C      1  0.5047250000000  0.4964980000000  0.5030540000000 1.0
END
