TITL C-2782226-7400-1107 0.000961753978341692 125000 -1180.46050218045 0 0 196 (C1) n - 1
REM
REM in /home/nfs/bkarasulu/CARBON/AIRSS/Generating-Clusters/REBO/Higher-Symm/SD-CG/HFTN-CG
REM
REM
REM
REM
REM
REM ./C.cell (12c818d87b63d06a65506943cc24bca4)
REM
REM compiler GCC version 9.2.1 20190827 (Red Hat 9.2.1-1)
REM options -cpp -mtune=generic -march=x86-64 -g -O0 -fpre-include=/usr/include/finclude/math-vector-fortran.h
REM seed 274249630 -1274599293 -349415979 2019223627 -1764165961 1816827578 -612993933 -810501881 1590986330 265316315 -1405192396 -804752852 -1540735378 -986689551 367972568 680224409 -493467474 1333262573 697296639 -1808581902 -1542746203 -34345955 -1891949898 368720501 -933397496 391022812 -57768584 -831744915 1276326664 1388607368 762842476 -356958163 199317730
REM
CELL 1.54180   50.00000   50.00000   50.00000   90.00000   90.00000   90.00000
LATT -1
SFAC C  
C      1  0.4590720000000  0.5151900000000  0.4852320000000 1.0
C      1  0.4644770000000  0.4627490000000  0.4876100000000 1.0
C      1  0.4839440000000  0.4889260000000  0.4487980000000 1.0
C      1  0.4608920000000  0.5019540000000  0.5226280000000 1.0
C      1  0.5329790000000  0.4937470000000  0.4644860000000 1.0
C      1  0.5348920000000  0.4816690000000  0.5025670000000 1.0
C      1  0.4919390000000  0.5435770000000  0.5137890000000 1.0
C      1  0.5280190000000  0.5307310000000  0.5034780000000 1.0
C      1  0.5015700000000  0.4516140000000  0.4787660000000 1.0
C      1  0.5049070000000  0.5011760000000  0.5422080000000 1.0
C      1  0.4950980000000  0.5370940000000  0.4621420000000 1.0
C      1  0.4955670000000  0.4647460000000  0.5293210000000 1.0
C      1  0.4531550000000  0.4871910000000  0.4964630000000 1.0
C      1  0.4684490000000  0.5163300000000  0.4559310000000 1.0
C      1  0.4800150000000  0.4636630000000  0.4600830000000 1.0
C      1  0.4674470000000  0.5300650000000  0.5114260000000 1.0
C      1  0.5289590000000  0.4624970000000  0.4778720000000 1.0
C      1  0.5402120000000  0.5088170000000  0.4922460000000 1.0
C      1  0.4748450000000  0.4846360000000  0.5439410000000 1.0
C      1  0.5216370000000  0.4794300000000  0.5272260000000 1.0
C      1  0.5072500000000  0.5074660000000  0.4539990000000 1.0
C      1  0.5145860000000  0.5305780000000  0.5342840000000 1.0
C      1  0.4872070000000  0.4513380000000  0.5060930000000 1.0
C      1  0.5073790000000  0.5464730000000  0.4875910000000 1.0
C      1  0.5262960000000  0.6100090000000  0.5540140000000 1.0
C      1  0.5527530000000  0.5294540000000  0.6094900000000 1.0
C      1  0.6078890000000  0.5524240000000  0.5288290000000 1.0
C      1  0.5307610000000  0.3907150000000  0.4471060000000 1.0
C      1  0.4737800000000  0.3960120000000  0.5562060000000 1.0
C      1  0.4735340000000  0.6090460000000  0.4480480000000 1.0
C      1  0.5491380000000  0.4740030000000  0.3950460000000 1.0
C      1  0.4602820000000  0.4783130000000  0.6165610000000 1.0
C      1  0.4596210000000  0.5245440000000  0.3822490000000 1.0
C      1  0.6010210000000  0.4575640000000  0.4683640000000 1.0
C      1  0.3895280000000  0.4463570000000  0.5306770000000 1.0
C      1  0.3914210000000  0.5531010000000  0.4708240000000 1.0
C      1  0.5293880000000  0.5521790000000  0.6048920000000 1.0
C      1  0.5528750000000  0.5986240000000  0.5360360000000 1.0
C      1  0.6104050000000  0.5319410000000  0.5556960000000 1.0
C      1  0.5310450000000  0.4471970000000  0.3906260000000 1.0
C      1  0.4736480000000  0.5468140000000  0.3933270000000 1.0
C      1  0.4738810000000  0.4560910000000  0.6050270000000 1.0
C      1  0.5525260000000  0.3953680000000  0.4688340000000 1.0
C      1  0.4510370000000  0.6016680000000  0.4691350000000 1.0
C      1  0.4468060000000  0.3955570000000  0.5343690000000 1.0
C      1  0.6146010000000  0.4779810000000  0.4545800000000 1.0
C      1  0.3940560000000  0.5254470000000  0.4499650000000 1.0
C      1  0.3958280000000  0.4750510000000  0.5490910000000 1.0
C      1  0.4437430000000  0.5034340000000  0.3891770000000 1.0
C      1  0.3871700000000  0.4328160000000  0.5059170000000 1.0
C      1  0.5052770000000  0.3910930000000  0.4389670000000 1.0
C      1  0.4438890000000  0.4990500000000  0.6101120000000 1.0
C      1  0.5605060000000  0.4996090000000  0.3945460000000 1.0
C      1  0.5622380000000  0.5030030000000  0.6101380000000 1.0
C      1  0.3871910000000  0.5682080000000  0.4943360000000 1.0
C      1  0.6099570000000  0.5646440000000  0.5035630000000 1.0
C      1  0.6038600000000  0.4469450000000  0.4933470000000 1.0
C      1  0.5006150000000  0.6097840000000  0.5606330000000 1.0
C      1  0.4999370000000  0.6119620000000  0.4429960000000 1.0
C      1  0.5005490000000  0.3950410000000  0.5634360000000 1.0
C      1  0.4389250000000  0.3919830000000  0.5075640000000 1.0
C      1  0.3895050000000  0.4981980000000  0.4427170000000 1.0
C      1  0.5049740000000  0.4398970000000  0.3899660000000 1.0
C      1  0.4421190000000  0.6080810000000  0.4941150000000 1.0
C      1  0.5577020000000  0.3916010000000  0.4952370000000 1.0
C      1  0.5679110000000  0.6079740000000  0.5110620000000 1.0
C      1  0.3910260000000  0.5016830000000  0.5573220000000 1.0
C      1  0.6149420000000  0.5047410000000  0.5627110000000 1.0
C      1  0.6118630000000  0.4998020000000  0.4386120000000 1.0
C      1  0.5040060000000  0.5602150000000  0.6097540000000 1.0
C      1  0.4990140000000  0.4463320000000  0.6070240000000 1.0
C      1  0.4986590000000  0.5579200000000  0.3907290000000 1.0
C      1  0.4952010000000  0.4759270000000  0.5776680000000 1.0
C      1  0.5718990000000  0.4930930000000  0.4736090000000 1.0
C      1  0.4727610000000  0.5782880000000  0.4931360000000 1.0
C      1  0.4930060000000  0.5276760000000  0.4225580000000 1.0
C      1  0.5109080000000  0.5298420000000  0.5773970000000 1.0
C      1  0.5125240000000  0.4722190000000  0.4230420000000 1.0
C      1  0.5692250000000  0.5108640000000  0.5285610000000 1.0
C      1  0.4220420000000  0.5077450000000  0.4723000000000 1.0
C      1  0.4218800000000  0.4942440000000  0.5257280000000 1.0
C      1  0.4726260000000  0.4144090000000  0.5103590000000 1.0
C      1  0.5276610000000  0.4178640000000  0.4906350000000 1.0
C      1  0.5263940000000  0.5762350000000  0.5119480000000 1.0
C      1  0.4913040000000  0.5829290000000  0.4743870000000 1.0
C      1  0.5722310000000  0.4731330000000  0.4912760000000 1.0
C      1  0.4756790000000  0.4933610000000  0.5828810000000 1.0
C      1  0.4918690000000  0.4187030000000  0.5287290000000 1.0
C      1  0.5077140000000  0.5769100000000  0.5312980000000 1.0
C      1  0.5089980000000  0.4129370000000  0.4722390000000 1.0
C      1  0.5681530000000  0.5307800000000  0.5105350000000 1.0
C      1  0.4187040000000  0.4725560000000  0.5104010000000 1.0
C      1  0.4217750000000  0.5291070000000  0.4886100000000 1.0
C      1  0.4766430000000  0.5081260000000  0.4144970000000 1.0
C      1  0.5299490000000  0.4927520000000  0.4246410000000 1.0
C      1  0.5318370000000  0.5129070000000  0.5769860000000 1.0
C      1  0.5923480000000  0.4834340000000  0.5628370000000 1.0
C      1  0.5653720000000  0.5908700000000  0.4850300000000 1.0
C      1  0.4783490000000  0.5677240000000  0.5914490000000 1.0
C      1  0.5900420000000  0.5215530000000  0.4384120000000 1.0
C      1  0.4118210000000  0.5257930000000  0.5647350000000 1.0
C      1  0.4121590000000  0.4753620000000  0.4336000000000 1.0
C      1  0.5676450000000  0.4109940000000  0.5195510000000 1.0
C      1  0.4317720000000  0.4088880000000  0.4801180000000 1.0
C      1  0.4322470000000  0.5917090000000  0.5207400000000 1.0
C      1  0.4807440000000  0.4329160000000  0.4104470000000 1.0
C      1  0.5247520000000  0.4374860000000  0.5901700000000 1.0
C      1  0.5217780000000  0.5681700000000  0.4117830000000 1.0
C      1  0.5876580000000  0.5661680000000  0.4814810000000 1.0
C      1  0.5708260000000  0.4801490000000  0.5883230000000 1.0
C      1  0.4756170000000  0.5914200000000  0.5685320000000 1.0
C      1  0.5894020000000  0.4363200000000  0.5211090000000 1.0
C      1  0.4087640000000  0.5676990000000  0.5170070000000 1.0
C      1  0.4082830000000  0.4333830000000  0.4825510000000 1.0
C      1  0.5683890000000  0.5250960000000  0.4135590000000 1.0
C      1  0.4361860000000  0.4780030000000  0.4096050000000 1.0
C      1  0.4351120000000  0.5229800000000  0.5892630000000 1.0
C      1  0.4778560000000  0.4079570000000  0.4327950000000 1.0
C      1  0.5245990000000  0.5916660000000  0.4360940000000 1.0
C      1  0.5266620000000  0.4137540000000  0.5672540000000 1.0
C      1  0.4440900000000  0.5987370000000  0.5721990000000 1.0
C      1  0.5745890000000  0.4483150000000  0.5936710000000 1.0
C      1  0.5955410000000  0.5710410000000  0.4502070000000 1.0
C      1  0.4459080000000  0.4019380000000  0.4288800000000 1.0
C      1  0.5586750000000  0.4078760000000  0.5696250000000 1.0
C      1  0.5565830000000  0.5967130000000  0.4341550000000 1.0
C      1  0.5720600000000  0.5571010000000  0.4085320000000 1.0
C      1  0.4276340000000  0.5541110000000  0.5878890000000 1.0
C      1  0.4300010000000  0.4465480000000  0.4126340000000 1.0
C      1  0.5977610000000  0.4331710000000  0.5525060000000 1.0
C      1  0.4075700000000  0.4237420000000  0.4521210000000 1.0
C      1  0.4065890000000  0.5771270000000  0.5475270000000 1.0
C      1  0.4468980000000  0.5742410000000  0.5900440000000 1.0
C      1  0.5752720000000  0.5928250000000  0.4545330000000 1.0
C      1  0.5950060000000  0.4529160000000  0.5720600000000 1.0
C      1  0.4495410000000  0.4265840000000  0.4118420000000 1.0
C      1  0.5525810000000  0.5768190000000  0.4118790000000 1.0
C      1  0.5550530000000  0.4286230000000  0.5910200000000 1.0
C      1  0.5776890000000  0.4109270000000  0.5495360000000 1.0
C      1  0.4256240000000  0.6000690000000  0.5515790000000 1.0
C      1  0.4266770000000  0.4008670000000  0.4488070000000 1.0
C      1  0.5927570000000  0.5521230000000  0.4298670000000 1.0
C      1  0.4074450000000  0.4430920000000  0.4321250000000 1.0
C      1  0.4059140000000  0.5576540000000  0.5674020000000 1.0
C      1  0.5417750000000  0.5644410000000  0.5768340000000 1.0
C      1  0.5858170000000  0.5439190000000  0.5709700000000 1.0
C      1  0.5554950000000  0.5669470000000  0.5393810000000 1.0
C      1  0.5496290000000  0.4281660000000  0.4082840000000 1.0
C      1  0.4582910000000  0.4458350000000  0.5816100000000 1.0
C      1  0.4623470000000  0.5531400000000  0.4195540000000 1.0
C      1  0.5503560000000  0.4666080000000  0.4528560000000 1.0
C      1  0.4261360000000  0.4670440000000  0.5546900000000 1.0
C      1  0.4227100000000  0.5327790000000  0.4411260000000 1.0
C      1  0.5732340000000  0.4150270000000  0.4560370000000 1.0
C      1  0.4316660000000  0.4183380000000  0.5489620000000 1.0
C      1  0.4433550000000  0.5712570000000  0.4615080000000 1.0
C      1  0.5312000000000  0.5504170000000  0.5499040000000 1.0
C      1  0.5815730000000  0.5567290000000  0.5439440000000 1.0
C      1  0.5650850000000  0.5468890000000  0.5884580000000 1.0
C      1  0.5542230000000  0.4039850000000  0.4299270000000 1.0
C      1  0.4724650000000  0.5558060000000  0.4520380000000 1.0
C      1  0.4565810000000  0.4187940000000  0.5652990000000 1.0
C      1  0.5765290000000  0.4482060000000  0.4539860000000 1.0
C      1  0.4184810000000  0.5558560000000  0.4585720000000 1.0
C      1  0.4146640000000  0.4400950000000  0.5465590000000 1.0
C      1  0.5508370000000  0.4587820000000  0.4225590000000 1.0
C      1  0.4492260000000  0.5284410000000  0.4350400000000 1.0
C      1  0.4538770000000  0.4683590000000  0.5607240000000 1.0
C      1  0.5777890000000  0.4653940000000  0.5173420000000 1.0
C      1  0.5177310000000  0.5844420000000  0.4660850000000 1.0
C      1  0.4656990000000  0.5191120000000  0.5833530000000 1.0
C      1  0.5743710000000  0.5389160000000  0.4844580000000 1.0
C      1  0.4194110000000  0.5394010000000  0.5146110000000 1.0
C      1  0.4173200000000  0.4623960000000  0.4843140000000 1.0
C      1  0.5185810000000  0.4189950000000  0.5370060000000 1.0
C      1  0.4823920000000  0.4123220000000  0.4638980000000 1.0
C      1  0.4813100000000  0.5822320000000  0.5390050000000 1.0
C      1  0.4673560000000  0.4820210000000  0.4131680000000 1.0
C      1  0.5408440000000  0.4866590000000  0.5806050000000 1.0
C      1  0.5385230000000  0.5191540000000  0.4215690000000 1.0
C      1  0.5763290000000  0.5191750000000  0.4652000000000 1.0
C      1  0.5212820000000  0.4671230000000  0.5811120000000 1.0
C      1  0.4624940000000  0.5825220000000  0.5186540000000 1.0
C      1  0.5777950000000  0.4854320000000  0.5364340000000 1.0
C      1  0.4198640000000  0.5203980000000  0.5346870000000 1.0
C      1  0.4188110000000  0.4813650000000  0.4640890000000 1.0
C      1  0.5185930000000  0.5381830000000  0.4206300000000 1.0
C      1  0.4867940000000  0.4628100000000  0.4171610000000 1.0
C      1  0.4849180000000  0.5386980000000  0.5820080000000 1.0
C      1  0.4631780000000  0.4131540000000  0.4839640000000 1.0
C      1  0.5364120000000  0.5818760000000  0.4863300000000 1.0
C      1  0.5373700000000  0.4183940000000  0.5167190000000 1.0
C      1  0.4608330000000  0.5830280000000  0.4352760000000 1.0
C      1  0.4317830000000  0.4355740000000  0.5916860000000 1.0
C      1  0.5776520000000  0.4294140000000  0.4261880000000 1.0
C      1  0.5482280000000  0.5925260000000  0.5692260000000 1.0
END
