TITL C-2782229-3092-547 -0.014741698544987 125000 -693.056187252125 0 0 123 (C1) n - 1
REM
REM in /home/nfs/bkarasulu/CARBON/AIRSS/Generating-Clusters/REBO/Higher-Symm/SD-CG/HFTN-CG
REM
REM
REM
REM
REM
REM ./C.cell (12c818d87b63d06a65506943cc24bca4)
REM
REM compiler GCC version 9.2.1 20190827 (Red Hat 9.2.1-1)
REM options -cpp -mtune=generic -march=x86-64 -g -O0 -fpre-include=/usr/include/finclude/math-vector-fortran.h
REM seed 1179880511 -493121058 1356878147 -104911760 38073059 -70970567 -1239348979 -687863702 -1014079949 -505357182 -18352519 2139201487 794579815 402345687 2138760514 -261951205 1774283962 1982855310 -112520878 -2036665105 1010706142 265488217 780804171 1210978327 -1169559355 2120363454 -1917056747 1444620834 1471348342 1323985923 1040208063 1133854052 633059987
REM
CELL 1.54180   50.00000   50.00000   50.00000   90.00000   90.00000   90.00000
LATT -1
SFAC C  
C      1  0.5378350000000  0.5212060000000  0.5191060000000 1.0
C      1  0.5307970000000  0.4696950000000  0.5287330000000 1.0
C      1  0.5258230000000  0.5049640000000  0.4647080000000 1.0
C      1  0.5247230000000  0.5269370000000  0.4899090000000 1.0
C      1  0.5255830000000  0.4727620000000  0.4715370000000 1.0
C      1  0.5243200000000  0.5004750000000  0.5360210000000 1.0
C      1  0.5554810000000  0.5516380000000  0.4834560000000 1.0
C      1  0.5597520000000  0.4864240000000  0.5585750000000 1.0
C      1  0.5621800000000  0.4597550000000  0.4611530000000 1.0
C      1  0.5585680000000  0.5549260000000  0.5176040000000 1.0
C      1  0.5535460000000  0.4870870000000  0.4425560000000 1.0
C      1  0.5637590000000  0.4546310000000  0.5453920000000 1.0
C      1  0.5527700000000  0.4348380000000  0.5196510000000 1.0
C      1  0.5476180000000  0.5197060000000  0.4347150000000 1.0
C      1  0.5507360000000  0.5454100000000  0.5495860000000 1.0
C      1  0.5541750000000  0.4371650000000  0.4856620000000 1.0
C      1  0.5495030000000  0.5182670000000  0.5665140000000 1.0
C      1  0.5467010000000  0.5461350000000  0.4509140000000 1.0
C      1  0.5087240000000  0.5890580000000  0.4563600000000 1.0
C      1  0.5108070000000  0.4960720000000  0.6026600000000 1.0
C      1  0.5143530000000  0.4172390000000  0.4437270000000 1.0
C      1  0.5048490000000  0.5879290000000  0.5495730000000 1.0
C      1  0.5039200000000  0.4980300000000  0.3930830000000 1.0
C      1  0.5080150000000  0.4145170000000  0.5524950000000 1.0
C      1  0.4652860000000  0.4655990000000  0.5928380000000 1.0
C      1  0.4710720000000  0.4343330000000  0.4247260000000 1.0
C      1  0.4665450000000  0.5990900000000  0.4890070000000 1.0
C      1  0.4635120000000  0.4555740000000  0.4149810000000 1.0
C      1  0.4681630000000  0.4456100000000  0.5775750000000 1.0
C      1  0.4677560000000  0.5953900000000  0.5136520000000 1.0
C      1  0.4731980000000  0.5657250000000  0.4341240000000 1.0
C      1  0.4717770000000  0.5281630000000  0.5885880000000 1.0
C      1  0.4774950000000  0.4134260000000  0.4850960000000 1.0
C      1  0.4730430000000  0.5560490000000  0.5684320000000 1.0
C      1  0.4737660000000  0.5372140000000  0.4152000000000 1.0
C      1  0.4755940000000  0.4164280000000  0.5191880000000 1.0
C      1  0.5266490000000  0.5183310000000  0.5864840000000 1.0
C      1  0.5341600000000  0.4209590000000  0.4697320000000 1.0
C      1  0.5261640000000  0.5665670000000  0.4423650000000 1.0
C      1  0.5295820000000  0.5167390000000  0.4058850000000 1.0
C      1  0.5283620000000  0.4178860000000  0.5279750000000 1.0
C      1  0.5272820000000  0.5637570000000  0.5578730000000 1.0
C      1  0.4767480000000  0.5063150000000  0.4008150000000 1.0
C      1  0.4728840000000  0.5816630000000  0.5447380000000 1.0
C      1  0.4749530000000  0.4229780000000  0.5528970000000 1.0
C      1  0.4768880000000  0.4970080000000  0.6019280000000 1.0
C      1  0.4747020000000  0.5911340000000  0.4568440000000 1.0
C      1  0.4821810000000  0.4164450000000  0.4513050000000 1.0
C      1  0.5000710000000  0.5498270000000  0.4424530000000 1.0
C      1  0.4996430000000  0.5254340000000  0.5726250000000 1.0
C      1  0.5065710000000  0.4273650000000  0.4810420000000 1.0
C      1  0.4994350000000  0.5488490000000  0.5501490000000 1.0
C      1  0.5044440000000  0.5264400000000  0.4211100000000 1.0
C      1  0.5039780000000  0.4282130000000  0.5120420000000 1.0
C      1  0.5581560000000  0.5132580000000  0.4721930000000 1.0
C      1  0.5708300000000  0.5190620000000  0.5215860000000 1.0
C      1  0.5569700000000  0.4736540000000  0.5123460000000 1.0
C      1  0.5762160000000  0.4899000000000  0.5325170000000 1.0
C      1  0.5774460000000  0.5307750000000  0.4922440000000 1.0
C      1  0.5502600000000  0.4854800000000  0.4867640000000 1.0
C      1  0.5236230000000  0.5588780000000  0.4809420000000 1.0
C      1  0.5279490000000  0.4848680000000  0.5654600000000 1.0
C      1  0.5323190000000  0.4537100000000  0.4470360000000 1.0
C      1  0.5253320000000  0.5529390000000  0.5200670000000 1.0
C      1  0.5317130000000  0.4865240000000  0.4191390000000 1.0
C      1  0.5337870000000  0.4473830000000  0.5536800000000 1.0
C      1  0.4292700000000  0.4662670000000  0.4897930000000 1.0
C      1  0.4227480000000  0.5300060000000  0.4755270000000 1.0
C      1  0.4264080000000  0.5055000000000  0.5279910000000 1.0
C      1  0.4203330000000  0.4723340000000  0.5209590000000 1.0
C      1  0.4295070000000  0.5316690000000  0.5088560000000 1.0
C      1  0.4322870000000  0.5067610000000  0.4634100000000 1.0
C      1  0.5884130000000  0.4662770000000  0.5029430000000 1.0
C      1  0.5890690000000  0.5007160000000  0.4688680000000 1.0
C      1  0.6041120000000  0.5122840000000  0.5152250000000 1.0
C      1  0.5877010000000  0.4725450000000  0.4745140000000 1.0
C      1  0.6069590000000  0.4822200000000  0.5217980000000 1.0
C      1  0.6078450000000  0.5187400000000  0.4854130000000 1.0
C      1  0.4977860000000  0.4529590000000  0.4479000000000 1.0
C      1  0.4909900000000  0.5679950000000  0.4843390000000 1.0
C      1  0.4945630000000  0.4807460000000  0.5705130000000 1.0
C      1  0.5011710000000  0.4529650000000  0.5563050000000 1.0
C      1  0.4967120000000  0.5680260000000  0.5157120000000 1.0
C      1  0.4999360000000  0.4767980000000  0.4264520000000 1.0
C      1  0.4470820000000  0.5720260000000  0.4625580000000 1.0
C      1  0.4481580000000  0.4985480000000  0.5837450000000 1.0
C      1  0.4542190000000  0.4336450000000  0.4605500000000 1.0
C      1  0.4406980000000  0.5761240000000  0.5341540000000 1.0
C      1  0.4547700000000  0.4858820000000  0.4168260000000 1.0
C      1  0.4426240000000  0.4342680000000  0.5492840000000 1.0
C      1  0.5172450000000  0.4330820000000  0.5795040000000 1.0
C      1  0.5142640000000  0.4658410000000  0.3977740000000 1.0
C      1  0.5231100000000  0.5875830000000  0.5217760000000 1.0
C      1  0.5165370000000  0.4411900000000  0.4206890000000 1.0
C      1  0.5173680000000  0.4648000000000  0.5907990000000 1.0
C      1  0.5164450000000  0.5907500000000  0.4894540000000 1.0
C      1  0.4603460000000  0.5137620000000  0.4361420000000 1.0
C      1  0.4531200000000  0.5471020000000  0.5428390000000 1.0
C      1  0.4590030000000  0.4445970000000  0.5234530000000 1.0
C      1  0.4550430000000  0.5216760000000  0.5596380000000 1.0
C      1  0.4561960000000  0.5413050000000  0.4507340000000 1.0
C      1  0.4610660000000  0.4423060000000  0.4924300000000 1.0
C      1  0.4965750000000  0.5099930000000  0.5434890000000 1.0
C      1  0.5040510000000  0.4590570000000  0.4866510000000 1.0
C      1  0.4967250000000  0.5313310000000  0.4709590000000 1.0
C      1  0.5005770000000  0.5103700000000  0.4477200000000 1.0
C      1  0.5049140000000  0.4600020000000  0.5171560000000 1.0
C      1  0.4848070000000  0.5310050000000  0.5246270000000 1.0
C      1  0.4372240000000  0.4827580000000  0.4453440000000 1.0
C      1  0.4272270000000  0.5647620000000  0.5109560000000 1.0
C      1  0.4229580000000  0.4567560000000  0.5499560000000 1.0
C      1  0.4361470000000  0.4864330000000  0.5545620000000 1.0
C      1  0.4277050000000  0.5600860000000  0.4809650000000 1.0
C      1  0.4377680000000  0.4589860000000  0.4616270000000 1.0
C      1  0.4659970000000  0.5545700000000  0.5122090000000 1.0
C      1  0.4791850000000  0.4646170000000  0.5338730000000 1.0
C      1  0.4783790000000  0.4877960000000  0.4487570000000 1.0
C      1  0.4685900000000  0.5440750000000  0.4809090000000 1.0
C      1  0.4762410000000  0.4648630000000  0.4717130000000 1.0
C      1  0.4702170000000  0.4914810000000  0.5513480000000 1.0
C      1  0.4594830000000  0.5155800000000  0.5079160000000 1.0
C      1  0.4514130000000  0.4846800000000  0.5168480000000 1.0
C      1  0.4521230000000  0.4916910000000  0.4842210000000 1.0
END
