TITL C-2782229-3092-91 0.000245115933589788 125000 -424.581201933626 0 0 77 (C1) n - 1
REM
REM in /home/nfs/bkarasulu/CARBON/AIRSS/Generating-Clusters/REBO/Higher-Symm/SD-CG/HFTN-CG
REM
REM
REM
REM
REM
REM ./C.cell (12c818d87b63d06a65506943cc24bca4)
REM
REM compiler GCC version 9.2.1 20190827 (Red Hat 9.2.1-1)
REM options -cpp -mtune=generic -march=x86-64 -g -O0 -fpre-include=/usr/include/finclude/math-vector-fortran.h
REM seed 1384578134 775791048 1372277966 -1699921134 139663608 108528390 859586646 854393642 397391305 -672960096 -249386474 -1657961439 544242025 -831062388 454584554 1938898745 2107905482 1481575004 612002724 -1884941754 1311132052 -347572073 2095415031 -917543785 -241096786 -2027640421 308808770 1042510692 -1433281577 1604795068 -1001700205 1421355839 -2080783012
REM
CELL 1.54180   50.00000   50.00000   50.00000   90.00000   90.00000   90.00000
LATT -1
SFAC C  
C      1  0.4530390000000  0.5032050000000  0.5436660000000 1.0
C      1  0.5152820000000  0.4713900000000  0.5382330000000 1.0
C      1  0.5308040000000  0.5394120000000  0.5394770000000 1.0
C      1  0.5833890000000  0.5653740000000  0.5083050000000 1.0
C      1  0.3941850000000  0.5380250000000  0.4992760000000 1.0
C      1  0.5172020000000  0.3915330000000  0.5024230000000 1.0
C      1  0.4566630000000  0.4856460000000  0.4617090000000 1.0
C      1  0.5377110000000  0.4698320000000  0.4619700000000 1.0
C      1  0.5075580000000  0.5424730000000  0.4654430000000 1.0
C      1  0.5609380000000  0.4985110000000  0.5663680000000 1.0
C      1  0.4761150000000  0.5542000000000  0.5586840000000 1.0
C      1  0.4725260000000  0.4518370000000  0.5643080000000 1.0
C      1  0.4292050000000  0.4970470000000  0.4476000000000 1.0
C      1  0.5398950000000  0.4403140000000  0.4477120000000 1.0
C      1  0.5321400000000  0.5613610000000  0.4545790000000 1.0
C      1  0.4765460000000  0.4679260000000  0.4321980000000 1.0
C      1  0.5419990000000  0.4960460000000  0.4324160000000 1.0
C      1  0.4838620000000  0.5376580000000  0.4339310000000 1.0
C      1  0.4980620000000  0.4445210000000  0.5789650000000 1.0
C      1  0.5559220000000  0.5261900000000  0.5774220000000 1.0
C      1  0.4568240000000  0.5379960000000  0.5756800000000 1.0
C      1  0.5012970000000  0.4772660000000  0.5750740000000 1.0
C      1  0.5249580000000  0.5151870000000  0.5706670000000 1.0
C      1  0.4811900000000  0.5160140000000  0.5688860000000 1.0
C      1  0.4574220000000  0.4944590000000  0.4288900000000 1.0
C      1  0.5279770000000  0.4664280000000  0.4294850000000 1.0
C      1  0.5165930000000  0.5405590000000  0.4326340000000 1.0
C      1  0.4313670000000  0.5063830000000  0.4845630000000 1.0
C      1  0.5288400000000  0.4378610000000  0.4841890000000 1.0
C      1  0.5375770000000  0.5501930000000  0.4907000000000 1.0
C      1  0.4981490000000  0.5828280000000  0.4995170000000 1.0
C      1  0.4254000000000  0.4559680000000  0.4944990000000 1.0
C      1  0.5760370000000  0.4554450000000  0.4926410000000 1.0
C      1  0.5021220000000  0.4200080000000  0.4932040000000 1.0
C      1  0.5674430000000  0.5377010000000  0.4982690000000 1.0
C      1  0.4268520000000  0.5384830000000  0.4921050000000 1.0
C      1  0.4740480000000  0.5423010000000  0.4640250000000 1.0
C      1  0.4746020000000  0.4571220000000  0.4622050000000 1.0
C      1  0.5535440000000  0.4991390000000  0.4618650000000 1.0
C      1  0.5246090000000  0.5794740000000  0.5008500000000 1.0
C      1  0.4133600000000  0.4800050000000  0.4942870000000 1.0
C      1  0.5609750000000  0.4332300000000  0.4920990000000 1.0
C      1  0.5337960000000  0.4821260000000  0.5658510000000 1.0
C      1  0.5041530000000  0.5388560000000  0.5572960000000 1.0
C      1  0.4701140000000  0.4841040000000  0.5627250000000 1.0
C      1  0.3996450000000  0.5093770000000  0.4951900000000 1.0
C      1  0.5402740000000  0.4085420000000  0.4958710000000 1.0
C      1  0.5561950000000  0.5755940000000  0.5036040000000 1.0
C      1  0.4611520000000  0.4986200000000  0.4918190000000 1.0
C      1  0.5224170000000  0.4678370000000  0.4904800000000 1.0
C      1  0.5147180000000  0.5272950000000  0.4928210000000 1.0
C      1  0.4636770000000  0.5155680000000  0.5178460000000 1.0
C      1  0.5018290000000  0.4649040000000  0.5121810000000 1.0
C      1  0.5355160000000  0.5195550000000  0.5161840000000 1.0
C      1  0.4767340000000  0.5148120000000  0.4178580000000 1.0
C      1  0.5010060000000  0.4732340000000  0.4178960000000 1.0
C      1  0.5249600000000  0.5149570000000  0.4189780000000 1.0
C      1  0.4763080000000  0.4276560000000  0.4756500000000 1.0
C      1  0.5764690000000  0.5147240000000  0.4779600000000 1.0
C      1  0.4481730000000  0.5572020000000  0.4763000000000 1.0
C      1  0.5196000000000  0.4457570000000  0.5586830000000 1.0
C      1  0.5525870000000  0.5458360000000  0.5554680000000 1.0
C      1  0.4385840000000  0.5209910000000  0.5596170000000 1.0
C      1  0.5676860000000  0.5085140000000  0.5159900000000 1.0
C      1  0.4511590000000  0.5456650000000  0.5137800000000 1.0
C      1  0.4813350000000  0.4377000000000  0.5135600000000 1.0
C      1  0.5761420000000  0.4984320000000  0.5436960000000 1.0
C      1  0.4648680000000  0.5646980000000  0.5359600000000 1.0
C      1  0.4684470000000  0.4367370000000  0.5419410000000 1.0
C      1  0.5736730000000  0.4847070000000  0.4932600000000 1.0
C      1  0.4742680000000  0.5645370000000  0.4970810000000 1.0
C      1  0.4541520000000  0.4454800000000  0.4944070000000 1.0
C      1  0.4834360000000  0.5316190000000  0.4952370000000 1.0
C      1  0.4761550000000  0.4713850000000  0.4932650000000 1.0
C      1  0.5386890000000  0.4955340000000  0.4922690000000 1.0
C      1  0.5010900000000  0.5011860000000  0.4091910000000 1.0
C      1  0.5034500000000  0.5002390000000  0.5485510000000 1.0
END
