TITL C-2782236-320-45 0.00155016812100752 125000 -259.325508630739 0 0 45 (C2) n - 1
REM
REM in /home/nfs/bkarasulu/CARBON/AIRSS/Generating-Clusters/REBO/Higher-Symm/SD-CG/HFTN-CG
REM
REM
REM
REM
REM
REM ./C.cell (12c818d87b63d06a65506943cc24bca4)
REM
REM compiler GCC version 9.2.1 20190827 (Red Hat 9.2.1-1)
REM options -cpp -mtune=generic -march=x86-64 -g -O0 -fpre-include=/usr/include/finclude/math-vector-fortran.h
REM seed -1766252528 1425914579 -239244451 -461355872 -1792482972 -1547688697 65316905 57628030 851347723 -1448894737 2026501838 -1727625486 322326523 -140670040 881041464 151689944 -1420504909 -537209441 -89037583 -650564434 -77209896 -1797492836 -955375114 -119992216 -1115441550 2007415977 -888224683 -1103448813 1153011275 167315256 42625735 1953760024 1923841954
REM
CELL 1.54180   50.00000   50.00000   50.00000   90.00000   90.00000   90.00000
LATT -1
SFAC C  
C      1  0.5019140000000  0.5192160000000  0.5645840000000 1.0
C      1  0.5554300000000  0.5188500000000  0.4659120000000 1.0
C      1  0.4452610000000  0.5193060000000  0.4674330000000 1.0
C      1  0.5015470000000  0.4823880000000  0.4355530000000 1.0
C      1  0.5551970000000  0.4840740000000  0.5317750000000 1.0
C      1  0.4427570000000  0.4862780000000  0.5310990000000 1.0
C      1  0.4799770000000  0.4514340000000  0.4654410000000 1.0
C      1  0.4793870000000  0.4537360000000  0.5350820000000 1.0
C      1  0.5389470000000  0.4500930000000  0.5010750000000 1.0
C      1  0.4808020000000  0.5511700000000  0.5337650000000 1.0
C      1  0.4806140000000  0.5525630000000  0.4650980000000 1.0
C      1  0.5408870000000  0.5511720000000  0.4984770000000 1.0
C      1  0.5381720000000  0.4608930000000  0.5268020000000 1.0
C      1  0.5044020000000  0.4604890000000  0.4548460000000 1.0
C      1  0.4581010000000  0.4637510000000  0.5199100000000 1.0
C      1  0.5377070000000  0.5413120000000  0.4723330000000 1.0
C      1  0.5043790000000  0.5410680000000  0.5449760000000 1.0
C      1  0.4585050000000  0.5426300000000  0.4789430000000 1.0
C      1  0.5215360000000  0.4855910000000  0.4966880000000 1.0
C      1  0.4894560000000  0.4797660000000  0.4916160000000 1.0
C      1  0.4997670000000  0.4853430000000  0.5220410000000 1.0
C      1  0.5129420000000  0.5235400000000  0.5042370000000 1.0
C      1  0.4813310000000  0.5187700000000  0.5106480000000 1.0
C      1  0.4924280000000  0.5172760000000  0.4791620000000 1.0
C      1  0.5174560000000  0.4962680000000  0.5562070000000 1.0
C      1  0.5400470000000  0.4958330000000  0.4579340000000 1.0
C      1  0.4434750000000  0.4978870000000  0.4862980000000 1.0
C      1  0.5165730000000  0.5054190000000  0.4441500000000 1.0
C      1  0.5401500000000  0.5061300000000  0.5420200000000 1.0
C      1  0.4426960000000  0.5086400000000  0.5127060000000 1.0
C      1  0.4737470000000  0.5120000000000  0.5703600000000 1.0
C      1  0.5743630000000  0.5135050000000  0.4881210000000 1.0
C      1  0.4540150000000  0.5095550000000  0.4410490000000 1.0
C      1  0.4729600000000  0.4880980000000  0.4300420000000 1.0
C      1  0.5738730000000  0.4927850000000  0.5107240000000 1.0
C      1  0.4519460000000  0.4942130000000  0.5581430000000 1.0
C      1  0.5309710000000  0.4662200000000  0.4721760000000 1.0
C      1  0.4589900000000  0.4676180000000  0.4868980000000 1.0
C      1  0.5102060000000  0.4649370000000  0.5444950000000 1.0
C      1  0.5324630000000  0.5361030000000  0.5278830000000 1.0
C      1  0.4570550000000  0.5397010000000  0.5121220000000 1.0
C      1  0.5093250000000  0.5356490000000  0.4581370000000 1.0
C      1  0.5430220000000  0.5076560000000  0.5020500000000 1.0
C      1  0.4785780000000  0.5025100000000  0.5370450000000 1.0
C      1  0.4766420000000  0.4949950000000  0.4639430000000 1.0
END
