TITL C-2782225-7408-74 0.00198237497850049 125000 -517.492091322575 0 0 85 (C1) n - 1
REM
REM in /home/nfs/bkarasulu/CARBON/AIRSS/Generating-Clusters/REBO/Higher-Symm/SD-CG/HFTN-CG
REM
REM
REM
REM
REM
REM ./C.cell (12c818d87b63d06a65506943cc24bca4)
REM
REM compiler GCC version 9.2.1 20190827 (Red Hat 9.2.1-1)
REM options -cpp -mtune=generic -march=x86-64 -g -O0 -fpre-include=/usr/include/finclude/math-vector-fortran.h
REM seed 1208104390 2102324869 -1825591447 -1077289854 -1888801438 -1100267410 -2046202864 1160709376 -1005005948 -2068410446 -2105392226 1584027040 -2126568299 -1761470038 -1080108906 -304774579 -1107202694 -1093811425 -989940641 16756195 -1673150830 -1898272646 -1606652738 1771639072 -165570274 155293543 1727400892 -964979137 -152696652 1673585382 891526784 1087160506 590168236
REM
CELL 1.54180   50.00000   50.00000   50.00000   90.00000   90.00000   90.00000
LATT -1
SFAC C  
C      1  0.4796610000000  0.5095660000000  0.5813710000000 1.0
C      1  0.4853080000000  0.4291920000000  0.5350910000000 1.0
C      1  0.4844760000000  0.4471790000000  0.4425690000000 1.0
C      1  0.4866640000000  0.5338970000000  0.4310780000000 1.0
C      1  0.4806160000000  0.5760120000000  0.5169770000000 1.0
C      1  0.5115450000000  0.5046790000000  0.5816590000000 1.0
C      1  0.5148070000000  0.4306650000000  0.5362800000000 1.0
C      1  0.5133410000000  0.4446760000000  0.4414790000000 1.0
C      1  0.5146650000000  0.5376720000000  0.4314620000000 1.0
C      1  0.5099290000000  0.5716540000000  0.5254900000000 1.0
C      1  0.4847680000000  0.4304940000000  0.4877720000000 1.0
C      1  0.4882550000000  0.4930260000000  0.4283830000000 1.0
C      1  0.4851540000000  0.5638420000000  0.4691160000000 1.0
C      1  0.4780330000000  0.5510420000000  0.5557820000000 1.0
C      1  0.4801870000000  0.4661160000000  0.5660410000000 1.0
C      1  0.5139800000000  0.4282860000000  0.4877080000000 1.0
C      1  0.5162070000000  0.4908430000000  0.4275890000000 1.0
C      1  0.5140520000000  0.5642930000000  0.4713190000000 1.0
C      1  0.5101980000000  0.5561450000000  0.5558880000000 1.0
C      1  0.5102550000000  0.4735800000000  0.5674340000000 1.0
C      1  0.5251090000000  0.4464780000000  0.4686950000000 1.0
C      1  0.5320970000000  0.5133710000000  0.4402260000000 1.0
C      1  0.5230330000000  0.5561910000000  0.4985590000000 1.0
C      1  0.5167500000000  0.5363900000000  0.5799100000000 1.0
C      1  0.5235730000000  0.4581510000000  0.5424640000000 1.0
C      1  0.4744240000000  0.4506610000000  0.4703380000000 1.0
C      1  0.4664780000000  0.5105170000000  0.4455100000000 1.0
C      1  0.4740100000000  0.5592060000000  0.4946730000000 1.0
C      1  0.4722280000000  0.5239450000000  0.5573310000000 1.0
C      1  0.4727800000000  0.4553450000000  0.5415010000000 1.0
C      1  0.5300150000000  0.5073060000000  0.4736600000000 1.0
C      1  0.5330070000000  0.5235180000000  0.4994550000000 1.0
C      1  0.5434180000000  0.4999500000000  0.5186320000000 1.0
C      1  0.5259320000000  0.4727040000000  0.5157710000000 1.0
C      1  0.5256310000000  0.4744290000000  0.4815280000000 1.0
C      1  0.4611210000000  0.5116960000000  0.4792080000000 1.0
C      1  0.4750900000000  0.5285210000000  0.5025820000000 1.0
C      1  0.4772720000000  0.5095630000000  0.5308520000000 1.0
C      1  0.4697840000000  0.4777250000000  0.5206110000000 1.0
C      1  0.4652680000000  0.4789680000000  0.4868840000000 1.0
C      1  0.5374180000000  0.5541340000000  0.5355020000000 1.0
C      1  0.5394370000000  0.4910570000000  0.5689260000000 1.0
C      1  0.5313650000000  0.4303880000000  0.5108630000000 1.0
C      1  0.5310590000000  0.4679000000000  0.4354970000000 1.0
C      1  0.5309020000000  0.5512500000000  0.4527860000000 1.0
C      1  0.4624030000000  0.5618490000000  0.5347870000000 1.0
C      1  0.4624710000000  0.4876590000000  0.5708980000000 1.0
C      1  0.4678860000000  0.4306950000000  0.5105080000000 1.0
C      1  0.4688470000000  0.4716080000000  0.4367470000000 1.0
C      1  0.4692150000000  0.5502510000000  0.4491520000000 1.0
C      1  0.4437700000000  0.5424470000000  0.5229540000000 1.0
C      1  0.4426100000000  0.4912750000000  0.5487630000000 1.0
C      1  0.4448760000000  0.4495330000000  0.5068430000000 1.0
C      1  0.4452030000000  0.4761450000000  0.4525270000000 1.0
C      1  0.4432760000000  0.5400300000000  0.4576490000000 1.0
C      1  0.5591450000000  0.5419300000000  0.5233330000000 1.0
C      1  0.5619900000000  0.4945330000000  0.5529690000000 1.0
C      1  0.5551780000000  0.4482920000000  0.5050810000000 1.0
C      1  0.5534570000000  0.4744650000000  0.4529100000000 1.0
C      1  0.5541270000000  0.5377480000000  0.4645520000000 1.0
C      1  0.4325950000000  0.4597650000000  0.4767960000000 1.0
C      1  0.4329570000000  0.5079270000000  0.4513210000000 1.0
C      1  0.4381950000000  0.5355880000000  0.4900980000000 1.0
C      1  0.4315310000000  0.5176540000000  0.5364480000000 1.0
C      1  0.4319070000000  0.4682360000000  0.5283730000000 1.0
C      1  0.5649640000000  0.4610030000000  0.4774680000000 1.0
C      1  0.5633430000000  0.5071970000000  0.4521310000000 1.0
C      1  0.5676510000000  0.5416710000000  0.4920300000000 1.0
C      1  0.5736410000000  0.5188770000000  0.5369400000000 1.0
C      1  0.5644060000000  0.4737530000000  0.5258540000000 1.0
C      1  0.5945640000000  0.5099150000000  0.5178060000000 1.0
C      1  0.5917990000000  0.4812120000000  0.5125460000000 1.0
C      1  0.5891650000000  0.4770100000000  0.4838230000000 1.0
C      1  0.5888680000000  0.5031220000000  0.4706280000000 1.0
C      1  0.5913310000000  0.5234830000000  0.4915890000000 1.0
C      1  0.4085500000000  0.5096850000000  0.5189960000000 1.0
C      1  0.4084740000000  0.4805940000000  0.5143630000000 1.0
C      1  0.4090820000000  0.4763220000000  0.4848740000000 1.0
C      1  0.4091450000000  0.5025800000000  0.4716730000000 1.0
C      1  0.4103860000000  0.5223350000000  0.4927990000000 1.0
C      1  0.4950250000000  0.4888100000000  0.4762240000000 1.0
C      1  0.5004470000000  0.5164780000000  0.4642700000000 1.0
C      1  0.5117490000000  0.5073690000000  0.5290160000000 1.0
C      1  0.4981350000000  0.4847280000000  0.5082100000000 1.0
C      1  0.5037810000000  0.5340050000000  0.5136010000000 1.0
END
