TITL C-2782239-8622-280 -0.00219856948428238 125000 -857.829089370571 0 0 146 (C1) n - 1
REM
REM in /home/nfs/bkarasulu/CARBON/AIRSS/Generating-Clusters/REBO/Higher-Symm/SD-CG/HFTN-CG
REM
REM
REM
REM
REM
REM ./C.cell (12c818d87b63d06a65506943cc24bca4)
REM
REM compiler GCC version 9.2.1 20190827 (Red Hat 9.2.1-1)
REM options -cpp -mtune=generic -march=x86-64 -g -O0 -fpre-include=/usr/include/finclude/math-vector-fortran.h
REM seed -910195811 1264602632 1461837651 -1276131241 -1578968708 989406696 -663560678 805945045 131238637 1156793072 1197976508 -599500799 -1345140906 -1939348832 -664649575 -473816421 1390008663 -1287594042 -366541456 -1348030209 -1121586308 -1995551951 777698280 -890690491 924345692 -1322123460 -353364440 798116690 716226844 -1690322932 -1990084696 -842312140 1895669517
REM
CELL 1.54180   50.00000   50.00000   50.00000   90.00000   90.00000   90.00000
LATT -1
SFAC C  
C      1  0.4366010000000  0.4306800000000  0.5178990000000 1.0
C      1  0.4176930000000  0.4972130000000  0.5616740000000 1.0
C      1  0.5316380000000  0.4714200000000  0.3984900000000 1.0
C      1  0.5051290000000  0.4822260000000  0.4003300000000 1.0
C      1  0.5263750000000  0.4187440000000  0.5671180000000 1.0
C      1  0.4657090000000  0.4713190000000  0.5599620000000 1.0
C      1  0.4559610000000  0.5588190000000  0.5576160000000 1.0
C      1  0.5483150000000  0.4815590000000  0.4869910000000 1.0
C      1  0.5061900000000  0.6040180000000  0.5033840000000 1.0
C      1  0.4936920000000  0.4014430000000  0.4650000000000 1.0
C      1  0.4536790000000  0.5150560000000  0.5955060000000 1.0
C      1  0.5310160000000  0.5406360000000  0.5634900000000 1.0
C      1  0.4469480000000  0.5413250000000  0.3800930000000 1.0
C      1  0.4220100000000  0.4895900000000  0.4880980000000 1.0
C      1  0.5128930000000  0.4385250000000  0.4329190000000 1.0
C      1  0.4698380000000  0.4515220000000  0.5092770000000 1.0
C      1  0.5511530000000  0.4911320000000  0.3903060000000 1.0
C      1  0.4452950000000  0.4186880000000  0.4552870000000 1.0
C      1  0.4527270000000  0.4702390000000  0.4625030000000 1.0
C      1  0.4967450000000  0.6111080000000  0.4740890000000 1.0
C      1  0.4965240000000  0.5857160000000  0.4319810000000 1.0
C      1  0.5141830000000  0.5260580000000  0.4774740000000 1.0
C      1  0.4022510000000  0.4704680000000  0.5187570000000 1.0
C      1  0.5947120000000  0.5051490000000  0.4950880000000 1.0
C      1  0.5488410000000  0.4295170000000  0.5814660000000 1.0
C      1  0.5201050000000  0.5099360000000  0.5638470000000 1.0
C      1  0.4994130000000  0.4279290000000  0.5693730000000 1.0
C      1  0.4329650000000  0.5336570000000  0.3592970000000 1.0
C      1  0.5212400000000  0.4642170000000  0.4902670000000 1.0
C      1  0.4843900000000  0.4367170000000  0.4287420000000 1.0
C      1  0.5583910000000  0.5139270000000  0.4031760000000 1.0
C      1  0.5118330000000  0.5663690000000  0.5666080000000 1.0
C      1  0.5790500000000  0.4992680000000  0.4473180000000 1.0
C      1  0.4388250000000  0.4616090000000  0.5320100000000 1.0
C      1  0.6000650000000  0.4909890000000  0.5257670000000 1.0
C      1  0.5470310000000  0.5616990000000  0.4985690000000 1.0
C      1  0.5347130000000  0.5787680000000  0.4616880000000 1.0
C      1  0.4942350000000  0.5104170000000  0.5219910000000 1.0
C      1  0.4434680000000  0.4864180000000  0.5118530000000 1.0
C      1  0.5795750000000  0.5459890000000  0.4521690000000 1.0
C      1  0.4023440000000  0.5425140000000  0.4917210000000 1.0
C      1  0.4135060000000  0.5363450000000  0.4399940000000 1.0
C      1  0.4506420000000  0.4111840000000  0.5355330000000 1.0
C      1  0.5555270000000  0.4269680000000  0.5023970000000 1.0
C      1  0.5191830000000  0.4239800000000  0.4604590000000 1.0
C      1  0.3989810000000  0.5124780000000  0.4909160000000 1.0
C      1  0.5229270000000  0.4982580000000  0.5174950000000 1.0
C      1  0.4702820000000  0.4034310000000  0.4899590000000 1.0
C      1  0.5054660000000  0.4677370000000  0.5390360000000 1.0
C      1  0.5664690000000  0.4589810000000  0.5033580000000 1.0
C      1  0.4785250000000  0.3970170000000  0.5221350000000 1.0
C      1  0.4584370000000  0.5622090000000  0.5015990000000 1.0
C      1  0.5342010000000  0.4047740000000  0.5430670000000 1.0
C      1  0.5511970000000  0.4548080000000  0.5306280000000 1.0
C      1  0.5727780000000  0.4347060000000  0.5470620000000 1.0
C      1  0.4246300000000  0.5834230000000  0.5022410000000 1.0
C      1  0.4406140000000  0.4989880000000  0.4635060000000 1.0
C      1  0.4985480000000  0.4779290000000  0.6010530000000 1.0
C      1  0.5510680000000  0.4577940000000  0.5828990000000 1.0
C      1  0.4463230000000  0.5994800000000  0.5104130000000 1.0
C      1  0.5132550000000  0.4706410000000  0.5647690000000 1.0
C      1  0.4804850000000  0.5249710000000  0.5936630000000 1.0
C      1  0.4767250000000  0.4900970000000  0.5036060000000 1.0
C      1  0.5567630000000  0.5215250000000  0.5748650000000 1.0
C      1  0.4423440000000  0.5080910000000  0.5705240000000 1.0
C      1  0.4531290000000  0.4468830000000  0.4378770000000 1.0
C      1  0.4166240000000  0.5660380000000  0.4805700000000 1.0
C      1  0.5590440000000  0.4720720000000  0.5568560000000 1.0
C      1  0.4206990000000  0.4526890000000  0.4465340000000 1.0
C      1  0.4094280000000  0.4935900000000  0.5347140000000 1.0
C      1  0.5920150000000  0.4496650000000  0.5593970000000 1.0
C      1  0.4730190000000  0.4129220000000  0.4439940000000 1.0
C      1  0.4811480000000  0.5692110000000  0.4154690000000 1.0
C      1  0.5011030000000  0.3911880000000  0.4972460000000 1.0
C      1  0.4921270000000  0.5812130000000  0.5463820000000 1.0
C      1  0.4299990000000  0.5454530000000  0.5121060000000 1.0
C      1  0.5553790000000  0.5176720000000  0.5299900000000 1.0
C      1  0.5113390000000  0.4220730000000  0.4935540000000 1.0
C      1  0.4800190000000  0.4101060000000  0.5535010000000 1.0
C      1  0.4460690000000  0.4214110000000  0.4864690000000 1.0
C      1  0.5407580000000  0.5452340000000  0.5343680000000 1.0
C      1  0.5857630000000  0.5548600000000  0.5192510000000 1.0
C      1  0.4977520000000  0.5275810000000  0.4410500000000 1.0
C      1  0.4569310000000  0.5481170000000  0.4570040000000 1.0
C      1  0.5015360000000  0.5058350000000  0.4208680000000 1.0
C      1  0.4509430000000  0.4151030000000  0.5686790000000 1.0
C      1  0.4837120000000  0.5914070000000  0.4584780000000 1.0
C      1  0.4823790000000  0.4710420000000  0.4541640000000 1.0
C      1  0.5598910000000  0.4526060000000  0.4338270000000 1.0
C      1  0.5566230000000  0.4153690000000  0.5284960000000 1.0
C      1  0.5304920000000  0.5157080000000  0.5946990000000 1.0
C      1  0.5787290000000  0.4831030000000  0.4743400000000 1.0
C      1  0.4616060000000  0.5200640000000  0.4725180000000 1.0
C      1  0.5231800000000  0.4584350000000  0.5206050000000 1.0
C      1  0.4680330000000  0.5724280000000  0.4728380000000 1.0
C      1  0.5191220000000  0.5491280000000  0.4564920000000 1.0
C      1  0.4840770000000  0.5467720000000  0.5687930000000 1.0
C      1  0.5629130000000  0.5689900000000  0.4684430000000 1.0
C      1  0.4612970000000  0.5491940000000  0.4014310000000 1.0
C      1  0.5555610000000  0.5115150000000  0.4349520000000 1.0
C      1  0.4458480000000  0.4547710000000  0.4877900000000 1.0
C      1  0.5501280000000  0.5920620000000  0.4981990000000 1.0
C      1  0.5353140000000  0.4513840000000  0.4193720000000 1.0
C      1  0.5938130000000  0.5188400000000  0.4653720000000 1.0
C      1  0.5425070000000  0.5781010000000  0.5566620000000 1.0
C      1  0.5014430000000  0.5071820000000  0.6013250000000 1.0
C      1  0.4965660000000  0.4784190000000  0.4808850000000 1.0
C      1  0.5249850000000  0.5799740000000  0.4320660000000 1.0
C      1  0.4149690000000  0.4522750000000  0.5021550000000 1.0
C      1  0.5259220000000  0.4679590000000  0.5915890000000 1.0
C      1  0.4130040000000  0.4671410000000  0.4654820000000 1.0
C      1  0.5311530000000  0.5064600000000  0.4470320000000 1.0
C      1  0.5002080000000  0.5362050000000  0.5036130000000 1.0
C      1  0.5625080000000  0.5415630000000  0.4230370000000 1.0
C      1  0.4605700000000  0.5142560000000  0.5499310000000 1.0
C      1  0.5376180000000  0.5106530000000  0.4920330000000 1.0
C      1  0.5421060000000  0.5648340000000  0.4165880000000 1.0
C      1  0.4275160000000  0.5558450000000  0.4553400000000 1.0
C      1  0.4923980000000  0.4390400000000  0.5018470000000 1.0
C      1  0.5389310000000  0.4939160000000  0.5448390000000 1.0
C      1  0.4906410000000  0.5079170000000  0.4672080000000 1.0
C      1  0.4138640000000  0.5160950000000  0.5185410000000 1.0
C      1  0.4822760000000  0.4538260000000  0.5834230000000 1.0
C      1  0.5940190000000  0.5244580000000  0.5233610000000 1.0
C      1  0.4729310000000  0.5429020000000  0.4322500000000 1.0
C      1  0.5901560000000  0.4820540000000  0.5549850000000 1.0
C      1  0.4917440000000  0.5176410000000  0.5534630000000 1.0
C      1  0.4506280000000  0.4413230000000  0.5806460000000 1.0
C      1  0.5591840000000  0.5311880000000  0.5012120000000 1.0
C      1  0.5794400000000  0.5127780000000  0.5520530000000 1.0
C      1  0.5830800000000  0.5502560000000  0.4864210000000 1.0
C      1  0.5285070000000  0.6053200000000  0.4780580000000 1.0
C      1  0.5956320000000  0.4672600000000  0.5073480000000 1.0
C      1  0.4221940000000  0.5102320000000  0.4409760000000 1.0
C      1  0.5068910000000  0.5830620000000  0.5207880000000 1.0
C      1  0.5646510000000  0.5661290000000  0.5366880000000 1.0
C      1  0.5634670000000  0.4559120000000  0.4606330000000 1.0
C      1  0.4897050000000  0.4767810000000  0.4283780000000 1.0
C      1  0.4530100000000  0.5149100000000  0.5231380000000 1.0
C      1  0.5193010000000  0.5567120000000  0.5140850000000 1.0
C      1  0.4364040000000  0.4619800000000  0.5620280000000 1.0
C      1  0.4366130000000  0.5686790000000  0.5338730000000 1.0
C      1  0.4675690000000  0.5822780000000  0.5276950000000 1.0
C      1  0.5415630000000  0.4420110000000  0.4771950000000 1.0
C      1  0.4770330000000  0.4726990000000  0.5321080000000 1.0
C      1  0.4669160000000  0.5316250000000  0.5019590000000 1.0
END
