TITL C-2782229-3092-387 0.000410284476105323 125000 -318.963139350326 0 0 57 (D3) n - 1
REM
REM in /home/nfs/bkarasulu/CARBON/AIRSS/Generating-Clusters/REBO/Higher-Symm/SD-CG/HFTN-CG
REM
REM
REM
REM
REM
REM ./C.cell (12c818d87b63d06a65506943cc24bca4)
REM
REM compiler GCC version 9.2.1 20190827 (Red Hat 9.2.1-1)
REM options -cpp -mtune=generic -march=x86-64 -g -O0 -fpre-include=/usr/include/finclude/math-vector-fortran.h
REM seed 1219517621 451937298 -1814760975 2009434824 410412379 1307166078 -379477884 -1587999072 -69274774 -1936205842 -543088099 976244480 975592744 480864794 -553302314 -1018306690 -1800373223 -1019284921 868523768 -172754470 887304855 162159362 1554940994 2053043718 676142577 -1753021953 875571624 124113024 -1355852301 -1818629537 1709281885 -1529474546 -1944024349
REM
CELL 1.54180   50.00000   50.00000   50.00000   90.00000   90.00000   90.00000
LATT -1
SFAC C  
C      1  0.5345200000000  0.4881890000000  0.4899050000000 1.0
C      1  0.4725110000000  0.4760100000000  0.4899050000000 1.0
C      1  0.4929680000000  0.5358010000000  0.4899050000000 1.0
C      1  0.5345210000000  0.5118090000000  0.5078140000000 1.0
C      1  0.4725120000000  0.5239910000000  0.5078140000000 1.0
C      1  0.4929670000000  0.4641990000000  0.5078130000000 1.0
C      1  0.4841530000000  0.4904850000000  0.4650530000000 1.0
C      1  0.4996830000000  0.5184810000000  0.4650530000000 1.0
C      1  0.5161630000000  0.4910340000000  0.4650530000000 1.0
C      1  0.4841540000000  0.5095150000000  0.5326660000000 1.0
C      1  0.4996830000000  0.4815190000000  0.5326660000000 1.0
C      1  0.5161640000000  0.5089650000000  0.5326660000000 1.0
C      1  0.4870720000000  0.4437810000000  0.5347870000000 1.0
C      1  0.4577770000000  0.5393050000000  0.5347880000000 1.0
C      1  0.5551510000000  0.5169130000000  0.5347870000000 1.0
C      1  0.4870750000000  0.5562190000000  0.4629310000000 1.0
C      1  0.4577760000000  0.4606970000000  0.4629310000000 1.0
C      1  0.5551500000000  0.4830840000000  0.4629310000000 1.0
C      1  0.4569160000000  0.4908540000000  0.4471850000000 1.0
C      1  0.5136210000000  0.5418850000000  0.4471850000000 1.0
C      1  0.5294630000000  0.4672620000000  0.4471850000000 1.0
C      1  0.4569170000000  0.5091480000000  0.5505340000000 1.0
C      1  0.5136190000000  0.4581140000000  0.5505330000000 1.0
C      1  0.5294640000000  0.5327370000000  0.5505340000000 1.0
C      1  0.4612100000000  0.5593680000000  0.4854460000000 1.0
C      1  0.5708090000000  0.5039090000000  0.4854450000000 1.0
C      1  0.4679810000000  0.4367230000000  0.4854450000000 1.0
C      1  0.4612080000000  0.4406340000000  0.5122730000000 1.0
C      1  0.5708090000000  0.4960880000000  0.5122730000000 1.0
C      1  0.4679830000000  0.5632780000000  0.5122740000000 1.0
C      1  0.4589920000000  0.4471880000000  0.5513620000000 1.0
C      1  0.4747680000000  0.5619200000000  0.5513630000000 1.0
C      1  0.5662400000000  0.4908910000000  0.5513620000000 1.0
C      1  0.4589940000000  0.5528130000000  0.4463570000000 1.0
C      1  0.4747660000000  0.4380810000000  0.4463560000000 1.0
C      1  0.5662410000000  0.5091060000000  0.4463560000000 1.0
C      1  0.4812180000000  0.4973300000000  0.4259770000000 1.0
C      1  0.5070780000000  0.5176010000000  0.4259770000000 1.0
C      1  0.5117030000000  0.4850700000000  0.4259770000000 1.0
C      1  0.4812190000000  0.5026710000000  0.5717420000000 1.0
C      1  0.5070770000000  0.4823990000000  0.5717420000000 1.0
C      1  0.5117040000000  0.5149290000000  0.5717420000000 1.0
C      1  0.5620310000000  0.4694270000000  0.5295900000000 1.0
C      1  0.4425070000000  0.4615660000000  0.5295900000000 1.0
C      1  0.4954610000000  0.5690070000000  0.5295910000000 1.0
C      1  0.5620320000000  0.5305700000000  0.4681290000000 1.0
C      1  0.4425090000000  0.5384370000000  0.4681290000000 1.0
C      1  0.4954580000000  0.4309930000000  0.4681280000000 1.0
C      1  0.5368680000000  0.4563680000000  0.5269290000000 1.0
C      1  0.4437800000000  0.4898870000000  0.5269300000000 1.0
C      1  0.5193520000000  0.5537440000000  0.5269300000000 1.0
C      1  0.5368700000000  0.5436300000000  0.4707890000000 1.0
C      1  0.4437800000000  0.5101150000000  0.4707890000000 1.0
C      1  0.5193500000000  0.4462550000000  0.4707890000000 1.0
C      1  0.5229140000000  0.4603100000000  0.4988590000000 1.0
C      1  0.5229160000000  0.5396890000000  0.4988590000000 1.0
C      1  0.4541700000000  0.5000010000000  0.4988590000000 1.0
END
