TITL C-2782232-2968-157 -0.00327879965154302 125000 -875.844404128722 0 0 149 (C1) n - 1
REM
REM in /home/nfs/bkarasulu/CARBON/AIRSS/Generating-Clusters/REBO/Higher-Symm/SD-CG/HFTN-CG
REM
REM
REM
REM
REM
REM ./C.cell (12c818d87b63d06a65506943cc24bca4)
REM
REM compiler GCC version 9.2.1 20190827 (Red Hat 9.2.1-1)
REM options -cpp -mtune=generic -march=x86-64 -g -O0 -fpre-include=/usr/include/finclude/math-vector-fortran.h
REM seed 1133072386 202297360 -1407979349 1636588201 1396767223 -211101957 1831383990 -358322948 -1418917109 1808644733 1942651728 -660494101 800565344 1402253649 1099236539 742745893 943500813 811368006 543337114 -121508394 2051625260 1171072605 490334193 -302761360 -53518611 773751104 2099631135 1920769493 -963631635 1042479008 -1995854012 396498202 510260436
REM
CELL 1.54180   50.00000   50.00000   50.00000   90.00000   90.00000   90.00000
LATT -1
SFAC C  
C      1  0.4728650000000  0.5371660000000  0.4399490000000 1.0
C      1  0.4430090000000  0.4754080000000  0.5364450000000 1.0
C      1  0.5324140000000  0.4493630000000  0.4735560000000 1.0
C      1  0.4694910000000  0.4671980000000  0.5546840000000 1.0
C      1  0.5260780000000  0.4685770000000  0.4457660000000 1.0
C      1  0.5280540000000  0.5427980000000  0.5466320000000 1.0
C      1  0.4496940000000  0.5303490000000  0.4643970000000 1.0
C      1  0.5550870000000  0.5343840000000  0.5277540000000 1.0
C      1  0.5494220000000  0.4784680000000  0.4688140000000 1.0
C      1  0.5329390000000  0.5576250000000  0.5163390000000 1.0
C      1  0.4654820000000  0.5600490000000  0.4643110000000 1.0
C      1  0.4652020000000  0.4513300000000  0.5255440000000 1.0
C      1  0.4164030000000  0.4275680000000  0.5243400000000 1.0
C      1  0.5272790000000  0.4145360000000  0.4272580000000 1.0
C      1  0.4346100000000  0.5126540000000  0.4175750000000 1.0
C      1  0.4168450000000  0.5706000000000  0.4820010000000 1.0
C      1  0.5850040000000  0.5713590000000  0.5234390000000 1.0
C      1  0.5757840000000  0.4175980000000  0.4754390000000 1.0
C      1  0.5227280000000  0.5802690000000  0.5837890000000 1.0
C      1  0.4806740000000  0.5876080000000  0.4282020000000 1.0
C      1  0.4787360000000  0.4177780000000  0.5705560000000 1.0
C      1  0.4277900000000  0.4805430000000  0.5931850000000 1.0
C      1  0.5665830000000  0.4832200000000  0.4214960000000 1.0
C      1  0.5752630000000  0.5266960000000  0.5743160000000 1.0
C      1  0.5737520000000  0.5528410000000  0.4278840000000 1.0
C      1  0.4261110000000  0.5495020000000  0.5539020000000 1.0
C      1  0.5384010000000  0.4261880000000  0.5572870000000 1.0
C      1  0.5474620000000  0.4570300000000  0.5692430000000 1.0
C      1  0.4440540000000  0.4507220000000  0.4356880000000 1.0
C      1  0.4412360000000  0.5418890000000  0.5834980000000 1.0
C      1  0.4303840000000  0.4374850000000  0.4609080000000 1.0
C      1  0.5646980000000  0.4426840000000  0.5432410000000 1.0
C      1  0.5792970000000  0.5625940000000  0.4588070000000 1.0
C      1  0.5516410000000  0.5720220000000  0.4431980000000 1.0
C      1  0.4526460000000  0.5680100000000  0.5649690000000 1.0
C      1  0.4580470000000  0.4222160000000  0.4479450000000 1.0
C      1  0.5253770000000  0.5962570000000  0.5160900000000 1.0
C      1  0.5060050000000  0.5264360000000  0.5846970000000 1.0
C      1  0.5919870000000  0.5014920000000  0.5256750000000 1.0
C      1  0.5273500000000  0.4139810000000  0.4935900000000 1.0
C      1  0.4801510000000  0.4056120000000  0.5100050000000 1.0
C      1  0.4666730000000  0.5898550000000  0.5029450000000 1.0
C      1  0.5084310000000  0.4537790000000  0.4002070000000 1.0
C      1  0.4887580000000  0.4801330000000  0.5867250000000 1.0
C      1  0.5072020000000  0.5248190000000  0.4024280000000 1.0
C      1  0.5877190000000  0.4879030000000  0.4753430000000 1.0
C      1  0.4093070000000  0.4959350000000  0.5345230000000 1.0
C      1  0.4123320000000  0.5086050000000  0.4746910000000 1.0
C      1  0.4938100000000  0.4908000000000  0.4542130000000 1.0
C      1  0.4692430000000  0.4869340000000  0.4774780000000 1.0
C      1  0.4990230000000  0.4700940000000  0.4788780000000 1.0
C      1  0.4881490000000  0.5196070000000  0.5266730000000 1.0
C      1  0.5042040000000  0.5214020000000  0.4586930000000 1.0
C      1  0.5088390000000  0.4922770000000  0.5293650000000 1.0
C      1  0.4663570000000  0.5047180000000  0.5062800000000 1.0
C      1  0.5432430000000  0.5315060000000  0.4880460000000 1.0
C      1  0.5261870000000  0.5072100000000  0.5046920000000 1.0
C      1  0.4932240000000  0.5401630000000  0.5027450000000 1.0
C      1  0.5129760000000  0.5355220000000  0.4800190000000 1.0
C      1  0.5213210000000  0.4730610000000  0.5045560000000 1.0
C      1  0.5056120000000  0.5858810000000  0.4396830000000 1.0
C      1  0.4301810000000  0.5073990000000  0.5997110000000 1.0
C      1  0.5849500000000  0.4250930000000  0.5005340000000 1.0
C      1  0.5004180000000  0.4204940000000  0.5468570000000 1.0
C      1  0.5028000000000  0.4047040000000  0.4330030000000 1.0
C      1  0.4961750000000  0.5861330000000  0.5795310000000 1.0
C      1  0.4617420000000  0.4956130000000  0.4195810000000 1.0
C      1  0.5658730000000  0.5013480000000  0.5799670000000 1.0
C      1  0.5441620000000  0.5057550000000  0.4212020000000 1.0
C      1  0.5880820000000  0.5545660000000  0.5017720000000 1.0
C      1  0.4222200000000  0.5494830000000  0.5031780000000 1.0
C      1  0.4165070000000  0.4294150000000  0.4968080000000 1.0
C      1  0.5927900000000  0.5381300000000  0.4749320000000 1.0
C      1  0.4778360000000  0.5879430000000  0.5521420000000 1.0
C      1  0.5397310000000  0.4855080000000  0.5868650000000 1.0
C      1  0.5861120000000  0.4528810000000  0.5182050000000 1.0
C      1  0.4137190000000  0.4591040000000  0.4814320000000 1.0
C      1  0.4067830000000  0.5354420000000  0.5292560000000 1.0
C      1  0.4839230000000  0.4031070000000  0.4597480000000 1.0
C      1  0.5245580000000  0.4001900000000  0.5400540000000 1.0
C      1  0.5280010000000  0.5821440000000  0.4643030000000 1.0
C      1  0.5543780000000  0.5344630000000  0.4089160000000 1.0
C      1  0.4593610000000  0.5211540000000  0.6036540000000 1.0
C      1  0.4631040000000  0.4640630000000  0.4149730000000 1.0
C      1  0.5129390000000  0.4768930000000  0.3850280000000 1.0
C      1  0.3977240000000  0.5160690000000  0.5027190000000 1.0
C      1  0.5049330000000  0.3885960000000  0.5147560000000 1.0
C      1  0.5189750000000  0.5026100000000  0.5992260000000 1.0
C      1  0.5136440000000  0.5040790000000  0.3842610000000 1.0
C      1  0.4856190000000  0.5011900000000  0.6076100000000 1.0
C      1  0.4046900000000  0.4828160000000  0.5041160000000 1.0
C      1  0.6008200000000  0.4750950000000  0.4970250000000 1.0
C      1  0.6184510000000  0.4956810000000  0.5115640000000 1.0
C      1  0.4823100000000  0.6129670000000  0.5089380000000 1.0
C      1  0.4987430000000  0.6048080000000  0.5309850000000 1.0
C      1  0.5067310000000  0.3949470000000  0.4822640000000 1.0
C      1  0.5247620000000  0.5671150000000  0.4274640000000 1.0
C      1  0.4130710000000  0.5236920000000  0.5812270000000 1.0
C      1  0.5666870000000  0.4183410000000  0.5222170000000 1.0
C      1  0.5124900000000  0.4387000000000  0.5729750000000 1.0
C      1  0.4800990000000  0.4213430000000  0.4244120000000 1.0
C      1  0.4768060000000  0.5652600000000  0.5850560000000 1.0
C      1  0.4396380000000  0.4814600000000  0.4416780000000 1.0
C      1  0.5703010000000  0.4780130000000  0.5624020000000 1.0
C      1  0.5727490000000  0.5200790000000  0.4348480000000 1.0
C      1  0.5595430000000  0.5572880000000  0.4857660000000 1.0
C      1  0.4364760000000  0.5620420000000  0.5274830000000 1.0
C      1  0.4396320000000  0.4146820000000  0.4829200000000 1.0
C      1  0.5431580000000  0.4049130000000  0.5154960000000 1.0
C      1  0.5254190000000  0.5449280000000  0.4102970000000 1.0
C      1  0.4039950000000  0.5162820000000  0.5560940000000 1.0
C      1  0.5477690000000  0.5887590000000  0.4911840000000 1.0
C      1  0.4566570000000  0.5804530000000  0.5273820000000 1.0
C      1  0.4650430000000  0.4046960000000  0.4861420000000 1.0
C      1  0.5007860000000  0.4552520000000  0.5896010000000 1.0
C      1  0.4826750000000  0.4450720000000  0.4083090000000 1.0
C      1  0.4834990000000  0.5400390000000  0.5948190000000 1.0
C      1  0.4205460000000  0.4850830000000  0.4626130000000 1.0
C      1  0.5839020000000  0.4774470000000  0.5389770000000 1.0
C      1  0.5890150000000  0.5141540000000  0.4598210000000 1.0
C      1  0.4350050000000  0.5241080000000  0.4913790000000 1.0
C      1  0.4890790000000  0.4340690000000  0.5198470000000 1.0
C      1  0.5152640000000  0.4967510000000  0.4297100000000 1.0
C      1  0.4378230000000  0.5012220000000  0.5167030000000 1.0
C      1  0.5599630000000  0.5025470000000  0.4845140000000 1.0
C      1  0.5701810000000  0.5148710000000  0.5124620000000 1.0
C      1  0.4812540000000  0.5678430000000  0.4882380000000 1.0
C      1  0.5128960000000  0.5731200000000  0.4934670000000 1.0
C      1  0.5141490000000  0.4415710000000  0.5012600000000 1.0
C      1  0.5059750000000  0.5233000000000  0.5540880000000 1.0
C      1  0.4861960000000  0.5147120000000  0.4236250000000 1.0
C      1  0.4914690000000  0.4919310000000  0.5566300000000 1.0
C      1  0.4643860000000  0.5653760000000  0.4243980000000 1.0
C      1  0.4286670000000  0.4709280000000  0.5671280000000 1.0
C      1  0.5522330000000  0.4257630000000  0.4626400000000 1.0
C      1  0.4657590000000  0.4411860000000  0.5763840000000 1.0
C      1  0.5286390000000  0.4459160000000  0.4206160000000 1.0
C      1  0.5380670000000  0.5628660000000  0.5685320000000 1.0
C      1  0.4308010000000  0.5314820000000  0.4366160000000 1.0
C      1  0.5705520000000  0.5448180000000  0.5537510000000 1.0
C      1  0.5659160000000  0.4667860000000  0.4430500000000 1.0
C      1  0.5539560000000  0.5823290000000  0.5282640000000 1.0
C      1  0.4345630000000  0.5740550000000  0.4620040000000 1.0
C      1  0.4391710000000  0.4356340000000  0.5376860000000 1.0
C      1  0.5637340000000  0.5734920000000  0.5571820000000 1.0
C      1  0.5550550000000  0.4412230000000  0.4379810000000 1.0
C      1  0.4386720000000  0.4437610000000  0.5647220000000 1.0
C      1  0.4375730000000  0.5604130000000  0.4356830000000 1.0
C      1  0.4965630000000  0.5014150000000  0.4924500000000 1.0
END
