TITL C-2782225-7408-685 -0.00284489510619951 125000 -619.516804593791 0 0 109 (C1) n - 1
REM
REM in /home/nfs/bkarasulu/CARBON/AIRSS/Generating-Clusters/REBO/Higher-Symm/SD-CG/HFTN-CG
REM
REM
REM
REM
REM
REM ./C.cell (12c818d87b63d06a65506943cc24bca4)
REM
REM compiler GCC version 9.2.1 20190827 (Red Hat 9.2.1-1)
REM options -cpp -mtune=generic -march=x86-64 -g -O0 -fpre-include=/usr/include/finclude/math-vector-fortran.h
REM seed -842038656 -833026623 386146267 425951011 170645953 -93633839 -661905933 1708470373 2126015235 301614675 2038616928 -545073604 1969567849 347446806 227073140 1168733316 -1802973814 972826555 -1073691934 -39725307 1336474299 602515702 1259939374 674419285 141605205 -1873552015 509133621 -1813912944 -485674622 -516983619 625180635 1997082632 696870942
REM
CELL 1.54180   50.00000   50.00000   50.00000   90.00000   90.00000   90.00000
LATT -1
SFAC C  
C      1  0.5813670000000  0.4559250000000  0.5281050000000 1.0
C      1  0.4290170000000  0.5304800000000  0.5503930000000 1.0
C      1  0.5807550000000  0.5452490000000  0.4745900000000 1.0
C      1  0.4145300000000  0.4712120000000  0.4431410000000 1.0
C      1  0.4819240000000  0.4843160000000  0.4156790000000 1.0
C      1  0.5217370000000  0.4161380000000  0.5155350000000 1.0
C      1  0.4850560000000  0.5148960000000  0.5945100000000 1.0
C      1  0.5185420000000  0.5861110000000  0.4802150000000 1.0
C      1  0.5883230000000  0.4974080000000  0.4588690000000 1.0
C      1  0.4140810000000  0.4549030000000  0.4966620000000 1.0
C      1  0.5844830000000  0.5046980000000  0.5416390000000 1.0
C      1  0.4157100000000  0.5422940000000  0.5012610000000 1.0
C      1  0.4328550000000  0.5498530000000  0.4797300000000 1.0
C      1  0.5682060000000  0.4823620000000  0.4422670000000 1.0
C      1  0.4342190000000  0.4385410000000  0.5043530000000 1.0
C      1  0.5630120000000  0.5209520000000  0.5558910000000 1.0
C      1  0.5409650000000  0.5027490000000  0.5743390000000 1.0
C      1  0.4539290000000  0.5757340000000  0.4870280000000 1.0
C      1  0.5435750000000  0.4980240000000  0.4245690000000 1.0
C      1  0.4608090000000  0.4185990000000  0.4971490000000 1.0
C      1  0.5755690000000  0.4875940000000  0.5201550000000 1.0
C      1  0.4198920000000  0.5197430000000  0.5203340000000 1.0
C      1  0.5775790000000  0.5125970000000  0.4806290000000 1.0
C      1  0.4203540000000  0.4812680000000  0.4913390000000 1.0
C      1  0.5500180000000  0.5297850000000  0.4319710000000 1.0
C      1  0.4544600000000  0.4366510000000  0.4699070000000 1.0
C      1  0.5438990000000  0.4713980000000  0.5671400000000 1.0
C      1  0.4599570000000  0.5779810000000  0.5200280000000 1.0
C      1  0.4922640000000  0.4993120000000  0.4681270000000 1.0
C      1  0.5058940000000  0.4722540000000  0.5022070000000 1.0
C      1  0.4752880000000  0.5045060000000  0.5300860000000 1.0
C      1  0.5082880000000  0.5307270000000  0.4964080000000 1.0
C      1  0.5370640000000  0.5830990000000  0.4595490000000 1.0
C      1  0.4666140000000  0.4612010000000  0.4158440000000 1.0
C      1  0.5368340000000  0.4184630000000  0.5387830000000 1.0
C      1  0.4780830000000  0.5360200000000  0.5762870000000 1.0
C      1  0.5559430000000  0.5965400000000  0.5438500000000 1.0
C      1  0.4545790000000  0.5480430000000  0.4141570000000 1.0
C      1  0.5576740000000  0.4076960000000  0.4467880000000 1.0
C      1  0.4456790000000  0.4491450000000  0.5975740000000 1.0
C      1  0.4395450000000  0.4615180000000  0.4251410000000 1.0
C      1  0.5621440000000  0.4309070000000  0.5386280000000 1.0
C      1  0.4625420000000  0.5272070000000  0.5516310000000 1.0
C      1  0.5622590000000  0.5706790000000  0.4632510000000 1.0
C      1  0.4960510000000  0.5417830000000  0.4694380000000 1.0
C      1  0.5061020000000  0.4737420000000  0.4594280000000 1.0
C      1  0.4917060000000  0.4574460000000  0.5266820000000 1.0
C      1  0.4995500000000  0.5257860000000  0.5365780000000 1.0
C      1  0.4930630000000  0.4077180000000  0.4991810000000 1.0
C      1  0.5151450000000  0.5081380000000  0.5961560000000 1.0
C      1  0.4856130000000  0.5891120000000  0.4885600000000 1.0
C      1  0.5102630000000  0.5031310000000  0.4176780000000 1.0
C      1  0.4313780000000  0.4446970000000  0.4517620000000 1.0
C      1  0.5681690000000  0.4553400000000  0.5589670000000 1.0
C      1  0.4466170000000  0.5549250000000  0.5397520000000 1.0
C      1  0.5721840000000  0.5475740000000  0.4425380000000 1.0
C      1  0.5771150000000  0.5435790000000  0.5368180000000 1.0
C      1  0.4290480000000  0.5258650000000  0.4567090000000 1.0
C      1  0.5780470000000  0.4590150000000  0.4630080000000 1.0
C      1  0.4137120000000  0.4867590000000  0.5785380000000 1.0
C      1  0.4630640000000  0.5404690000000  0.4711150000000 1.0
C      1  0.5400050000000  0.4731110000000  0.4555400000000 1.0
C      1  0.4587380000000  0.4500960000000  0.5215370000000 1.0
C      1  0.5334680000000  0.5256770000000  0.5425410000000 1.0
C      1  0.4803470000000  0.4305330000000  0.4499580000000 1.0
C      1  0.5183650000000  0.4500270000000  0.5711000000000 1.0
C      1  0.4812710000000  0.5734930000000  0.5464720000000 1.0
C      1  0.5238850000000  0.5501480000000  0.4262490000000 1.0
C      1  0.4559500000000  0.4795580000000  0.5327630000000 1.0
C      1  0.5350020000000  0.5291620000000  0.5104810000000 1.0
C      1  0.4624130000000  0.5090610000000  0.4714380000000 1.0
C      1  0.5333740000000  0.4724430000000  0.4885210000000 1.0
C      1  0.4376350000000  0.4808140000000  0.5548840000000 1.0
C      1  0.5569930000000  0.5498550000000  0.5105760000000 1.0
C      1  0.4448540000000  0.4965940000000  0.4474720000000 1.0
C      1  0.5545110000000  0.4502410000000  0.4849510000000 1.0
C      1  0.4497370000000  0.4858210000000  0.5013710000000 1.0
C      1  0.5456090000000  0.4976350000000  0.5168700000000 1.0
C      1  0.4478360000000  0.5184710000000  0.5007400000000 1.0
C      1  0.5476410000000  0.5026940000000  0.4834040000000 1.0
C      1  0.5071460000000  0.4385430000000  0.4950720000000 1.0
C      1  0.4655020000000  0.4947900000000  0.5982720000000 1.0
C      1  0.5049530000000  0.5642520000000  0.5012570000000 1.0
C      1  0.4830050000000  0.5100150000000  0.4372000000000 1.0
C      1  0.5262250000000  0.5776290000000  0.4333190000000 1.0
C      1  0.4800600000000  0.4370490000000  0.4234930000000 1.0
C      1  0.5225480000000  0.4228870000000  0.5634790000000 1.0
C      1  0.4838660000000  0.5639760000000  0.5721730000000 1.0
C      1  0.4443350000000  0.4750720000000  0.5875170000000 1.0
C      1  0.5611080000000  0.5733180000000  0.5344360000000 1.0
C      1  0.4552250000000  0.5263320000000  0.4346610000000 1.0
C      1  0.5616410000000  0.4295400000000  0.4594920000000 1.0
C      1  0.5352390000000  0.5150200000000  0.4591410000000 1.0
C      1  0.4649510000000  0.4650810000000  0.4849990000000 1.0
C      1  0.5301640000000  0.4860800000000  0.5396660000000 1.0
C      1  0.4600070000000  0.5442240000000  0.5107710000000 1.0
C      1  0.4891090000000  0.5513360000000  0.5246470000000 1.0
C      1  0.5138230000000  0.5327370000000  0.4482490000000 1.0
C      1  0.4914420000000  0.4513760000000  0.4714590000000 1.0
C      1  0.5084540000000  0.4675570000000  0.5491780000000 1.0
C      1  0.4134460000000  0.5025300000000  0.5489680000000 1.0
C      1  0.5861640000000  0.5340950000000  0.5053750000000 1.0
C      1  0.4159310000000  0.4950390000000  0.4641640000000 1.0
C      1  0.5823020000000  0.4641560000000  0.4964600000000 1.0
C      1  0.5118350000000  0.5178140000000  0.5650530000000 1.0
C      1  0.4783060000000  0.5688630000000  0.4639560000000 1.0
C      1  0.5195940000000  0.4740030000000  0.4294900000000 1.0
C      1  0.4812230000000  0.4263850000000  0.5237820000000 1.0
C      1  0.4934970000000  0.5026160000000  0.5020730000000 1.0
END
