TITL C-2782229-3092-869 -0.00011270488982811 125000 -174.496946484625 0 0 32 (Cs) n - 1
REM
REM in /home/nfs/bkarasulu/CARBON/AIRSS/Generating-Clusters/REBO/Higher-Symm/SD-CG/HFTN-CG
REM
REM
REM
REM
REM
REM ./C.cell (12c818d87b63d06a65506943cc24bca4)
REM
REM compiler GCC version 9.2.1 20190827 (Red Hat 9.2.1-1)
REM options -cpp -mtune=generic -march=x86-64 -g -O0 -fpre-include=/usr/include/finclude/math-vector-fortran.h
REM seed 2110880665 -1769712034 -1070462891 1505862264 1744174549 -929405147 -153241576 -1336875329 1053644549 1958081740 552927742 -1475241050 -1406692265 -1260396247 1537972848 1262640400 -1238036842 1345801119 1189978181 476805142 -2110811651 -1723113969 -1496971169 1716278896 1994394675 967235594 -804403303 -1946360723 -1234690665 -689862629 -1236031717 1798673522 -1838825017
REM
CELL 1.54180   50.00000   50.00000   50.00000   90.00000   90.00000   90.00000
LATT -1
SFAC C  
C      1  0.4548690000000  0.4727570000000  0.5204610000000 1.0
C      1  0.4615950000000  0.5350770000000  0.5235490000000 1.0
C      1  0.5232730000000  0.5462860000000  0.5205770000000 1.0
C      1  0.5496110000000  0.4958440000000  0.5218930000000 1.0
C      1  0.5070770000000  0.4501240000000  0.5218200000000 1.0
C      1  0.4532680000000  0.4747740000000  0.4768710000000 1.0
C      1  0.4594050000000  0.5371850000000  0.4792920000000 1.0
C      1  0.5212140000000  0.5478110000000  0.4769870000000 1.0
C      1  0.5501370000000  0.4908700000000  0.4794430000000 1.0
C      1  0.5121440000000  0.4500300000000  0.4793790000000 1.0
C      1  0.5266440000000  0.5143260000000  0.4803130000000 1.0
C      1  0.5260980000000  0.4751270000000  0.4880460000000 1.0
C      1  0.4870520000000  0.4717670000000  0.4802460000000 1.0
C      1  0.4650880000000  0.5047760000000  0.4834420000000 1.0
C      1  0.4921320000000  0.5338470000000  0.4834880000000 1.0
C      1  0.5319380000000  0.5184520000000  0.5123850000000 1.0
C      1  0.5196820000000  0.4810460000000  0.5194470000000 1.0
C      1  0.4832690000000  0.4661360000000  0.5123020000000 1.0
C      1  0.4673000000000  0.5025350000000  0.5165950000000 1.0
C      1  0.4944740000000  0.5317460000000  0.5166420000000 1.0
C      1  0.4125560000000  0.4525660000000  0.4991370000000 1.0
C      1  0.4271270000000  0.5671720000000  0.5045590000000 1.0
C      1  0.5403920000000  0.5899810000000  0.4993550000000 1.0
C      1  0.5201320000000  0.4036310000000  0.5019470000000 1.0
C      1  0.5969550000000  0.4862110000000  0.5020780000000 1.0
C      1  0.5704930000000  0.4902310000000  0.5012790000000 1.0
C      1  0.5142150000000  0.4297360000000  0.5011830000000 1.0
C      1  0.4364440000000  0.4648040000000  0.4988200000000 1.0
C      1  0.4467800000000  0.5488920000000  0.5027170000000 1.0
C      1  0.5299100000000  0.5652740000000  0.4989790000000 1.0
C      1  0.4976230000000  0.5016390000000  0.4739950000000 1.0
C      1  0.4983740000000  0.5008600000000  0.5251400000000 1.0
END
