TITL C-2782238-9940-251 -0.00163974170601007 125000 -370.710219440266 0 0 63 (C1) n - 1
REM
REM in /home/nfs/bkarasulu/CARBON/AIRSS/Generating-Clusters/REBO/Higher-Symm/SD-CG/HFTN-CG
REM
REM
REM
REM
REM
REM ./C.cell (12c818d87b63d06a65506943cc24bca4)
REM
REM compiler GCC version 9.2.1 20190827 (Red Hat 9.2.1-1)
REM options -cpp -mtune=generic -march=x86-64 -g -O0 -fpre-include=/usr/include/finclude/math-vector-fortran.h
REM seed 263605313 662375611 1765755954 1740066629 570556335 -1325623778 1839190917 -1198634253 1269388231 -679446327 2101600916 1010824603 -1659730888 -1359012673 -1671642533 -2129529899 -1039988252 -2030203119 54594571 415355532 798110760 1288401171 903167981 -1848204180 2007796737 1727162967 -2003697752 -152137667 457400976 366175651 838404465 341935863 1189667650
REM
CELL 1.54180   50.00000   50.00000   50.00000   90.00000   90.00000   90.00000
LATT -1
SFAC C  
C      1  0.5525180000000  0.4703030000000  0.5314790000000 1.0
C      1  0.5466080000000  0.4911740000000  0.4884480000000 1.0
C      1  0.5022820000000  0.4981110000000  0.4434560000000 1.0
C      1  0.4543730000000  0.4820690000000  0.4632370000000 1.0
C      1  0.4433840000000  0.4693980000000  0.5080820000000 1.0
C      1  0.4612210000000  0.4565270000000  0.5535730000000 1.0
C      1  0.5074190000000  0.4505500000000  0.5697600000000 1.0
C      1  0.4697220000000  0.4313840000000  0.5128980000000 1.0
C      1  0.4938270000000  0.4181440000000  0.5275160000000 1.0
C      1  0.5242440000000  0.4306390000000  0.5246800000000 1.0
C      1  0.5343060000000  0.4439070000000  0.4949790000000 1.0
C      1  0.5147710000000  0.4585680000000  0.4745310000000 1.0
C      1  0.4946630000000  0.4393990000000  0.4621270000000 1.0
C      1  0.4671970000000  0.4355680000000  0.4805130000000 1.0
C      1  0.4853500000000  0.4067570000000  0.4598930000000 1.0
C      1  0.4687760000000  0.4015940000000  0.4845220000000 1.0
C      1  0.4820290000000  0.3932050000000  0.5075890000000 1.0
C      1  0.5131520000000  0.3932540000000  0.5160610000000 1.0
C      1  0.5380700000000  0.4057310000000  0.5054760000000 1.0
C      1  0.5380390000000  0.4159320000000  0.4770070000000 1.0
C      1  0.5165430000000  0.4133690000000  0.4589910000000 1.0
C      1  0.5437980000000  0.6099880000000  0.5041320000000 1.0
C      1  0.5571140000000  0.5964590000000  0.4488130000000 1.0
C      1  0.5473940000000  0.5445260000000  0.4355200000000 1.0
C      1  0.4975260000000  0.5398580000000  0.4214310000000 1.0
C      1  0.4759550000000  0.5898130000000  0.4236680000000 1.0
C      1  0.4546290000000  0.6048670000000  0.4756810000000 1.0
C      1  0.4904720000000  0.6041020000000  0.5180480000000 1.0
C      1  0.5096210000000  0.5445110000000  0.5557500000000 1.0
C      1  0.5253900000000  0.5410180000000  0.5326850000000 1.0
C      1  0.5138950000000  0.5485010000000  0.5073050000000 1.0
C      1  0.4867980000000  0.5465720000000  0.4996640000000 1.0
C      1  0.4641190000000  0.5378740000000  0.5143100000000 1.0
C      1  0.4631900000000  0.5302180000000  0.5425350000000 1.0
C      1  0.4829350000000  0.5404290000000  0.5598170000000 1.0
C      1  0.4543100000000  0.4506200000000  0.5266930000000 1.0
C      1  0.4814430000000  0.4401010000000  0.5655320000000 1.0
C      1  0.5318800000000  0.4497960000000  0.5476060000000 1.0
C      1  0.5512230000000  0.4680100000000  0.5036760000000 1.0
C      1  0.5229620000000  0.4873810000000  0.4678760000000 1.0
C      1  0.4741390000000  0.4969060000000  0.4441050000000 1.0
C      1  0.4500570000000  0.4618240000000  0.4811040000000 1.0
C      1  0.5488560000000  0.5171430000000  0.4992480000000 1.0
C      1  0.5135990000000  0.5199810000000  0.4649830000000 1.0
C      1  0.4602120000000  0.5145630000000  0.4700750000000 1.0
C      1  0.4418750000000  0.4966050000000  0.5164890000000 1.0
C      1  0.4606130000000  0.4841460000000  0.5621530000000 1.0
C      1  0.5068320000000  0.4794870000000  0.5806470000000 1.0
C      1  0.5490290000000  0.4978830000000  0.5444630000000 1.0
C      1  0.4508460000000  0.5036820000000  0.5437040000000 1.0
C      1  0.4810500000000  0.4913570000000  0.5810690000000 1.0
C      1  0.5320410000000  0.4808220000000  0.5635500000000 1.0
C      1  0.5457270000000  0.5207800000000  0.5279500000000 1.0
C      1  0.5319380000000  0.5380180000000  0.4840090000000 1.0
C      1  0.4849590000000  0.5350070000000  0.4710180000000 1.0
C      1  0.4489350000000  0.5183460000000  0.4987880000000 1.0
C      1  0.5371940000000  0.5846020000000  0.4639850000000 1.0
C      1  0.5292600000000  0.5560120000000  0.4576630000000 1.0
C      1  0.4992370000000  0.5536610000000  0.4489780000000 1.0
C      1  0.4854190000000  0.5806650000000  0.4480480000000 1.0
C      1  0.4794720000000  0.5939830000000  0.4722780000000 1.0
C      1  0.4988260000000  0.5973060000000  0.4929390000000 1.0
C      1  0.5267320000000  0.5969930000000  0.4871900000000 1.0
END
