TITL C-2782231-7322-1283 0.0392291509392853 125000 -412.968645673148 0 0 72 (C1) n - 1
REM
REM in /home/nfs/bkarasulu/CARBON/AIRSS/Generating-Clusters/REBO/Higher-Symm/SD-CG/HFTN-CG
REM
REM
REM
REM
REM
REM ./C.cell (12c818d87b63d06a65506943cc24bca4)
REM
REM compiler GCC version 9.2.1 20190827 (Red Hat 9.2.1-1)
REM options -cpp -mtune=generic -march=x86-64 -g -O0 -fpre-include=/usr/include/finclude/math-vector-fortran.h
REM seed -193761545 -825807127 -1389777260 -656253648 1058698584 -1792459758 -1175592802 -1574583045 -658305989 -290529145 -1317930047 1692080402 874331141 137213947 -522197585 -1851642873 1695456529 -1268607017 -1479470604 -787130816 2074695609 1211191961 -484150583 -714960494 -1159070705 222419011 1123480675 329473356 -2061159100 380176564 -1640693645 1740914057 -1474594534
REM
CELL 1.54180   50.00000   50.00000   50.00000   90.00000   90.00000   90.00000
LATT -1
SFAC C  
C      1  0.4886560000000  0.4591970000000  0.5858850000000 1.0
C      1  0.5535900000000  0.5001890000000  0.5858710000000 1.0
C      1  0.4703800000000  0.5307030000000  0.5876190000000 1.0
C      1  0.5397040000000  0.5510150000000  0.4586530000000 1.0
C      1  0.4266340000000  0.4987330000000  0.4530090000000 1.0
C      1  0.5176260000000  0.4239690000000  0.4564130000000 1.0
C      1  0.5762870000000  0.5410480000000  0.4950160000000 1.0
C      1  0.4313070000000  0.5332960000000  0.4862880000000 1.0
C      1  0.4867840000000  0.4153310000000  0.5001920000000 1.0
C      1  0.5637520000000  0.4458290000000  0.4837780000000 1.0
C      1  0.5078640000000  0.5826180000000  0.4906020000000 1.0
C      1  0.4268040000000  0.4578820000000  0.4917420000000 1.0
C      1  0.4738740000000  0.5653620000000  0.5172280000000 1.0
C      1  0.4497310000000  0.4414160000000  0.5286420000000 1.0
C      1  0.5695360000000  0.4873930000000  0.5080370000000 1.0
C      1  0.5091010000000  0.5245960000000  0.4774990000000 1.0
C      1  0.4680220000000  0.4987870000000  0.4927770000000 1.0
C      1  0.5142640000000  0.4717120000000  0.4869070000000 1.0
C      1  0.4263500000000  0.4854140000000  0.5011540000000 1.0
C      1  0.5463180000000  0.4325820000000  0.5024080000000 1.0
C      1  0.5282290000000  0.5706100000000  0.5063070000000 1.0
C      1  0.6011140000000  0.5510890000000  0.4875430000000 1.0
C      1  0.4485710000000  0.5490500000000  0.4652100000000 1.0
C      1  0.4609460000000  0.4177390000000  0.4879760000000 1.0
C      1  0.4230780000000  0.5062830000000  0.4805320000000 1.0
C      1  0.5182940000000  0.4200280000000  0.4876940000000 1.0
C      1  0.5486980000000  0.5547160000000  0.4885750000000 1.0
C      1  0.5622020000000  0.4746030000000  0.4829890000000 1.0
C      1  0.4833790000000  0.5686310000000  0.4908370000000 1.0
C      1  0.4435700000000  0.4367320000000  0.5013230000000 1.0
C      1  0.4473730000000  0.4649780000000  0.4583180000000 1.0
C      1  0.6026190000000  0.5750110000000  0.4745220000000 1.0
C      1  0.4429630000000  0.5407240000000  0.4386320000000 1.0
C      1  0.5419310000000  0.5317870000000  0.5130930000000 1.0
C      1  0.4612130000000  0.5201590000000  0.5179230000000 1.0
C      1  0.5096440000000  0.4471180000000  0.5046190000000 1.0
C      1  0.4889250000000  0.5046170000000  0.5180310000000 1.0
C      1  0.5139750000000  0.4854310000000  0.5151770000000 1.0
C      1  0.5163030000000  0.5180930000000  0.5062620000000 1.0
C      1  0.4727810000000  0.5139960000000  0.4649710000000 1.0
C      1  0.4949500000000  0.4687500000000  0.4640280000000 1.0
C      1  0.5254980000000  0.5082500000000  0.4605880000000 1.0
C      1  0.5392020000000  0.5391280000000  0.5435340000000 1.0
C      1  0.4343850000000  0.5115410000000  0.5461740000000 1.0
C      1  0.5216660000000  0.4667450000000  0.5370950000000 1.0
C      1  0.4544820000000  0.4059990000000  0.4643520000000 1.0
C      1  0.6236870000000  0.5369050000000  0.4933160000000 1.0
C      1  0.4437070000000  0.5771620000000  0.4685310000000 1.0
C      1  0.5375280000000  0.4851200000000  0.4723990000000 1.0
C      1  0.4813270000000  0.5437230000000  0.4727550000000 1.0
C      1  0.4673470000000  0.4751250000000  0.4721280000000 1.0
C      1  0.5082060000000  0.4465770000000  0.4437680000000 1.0
C      1  0.5304610000000  0.5406940000000  0.4380240000000 1.0
C      1  0.4513970000000  0.5019800000000  0.4427140000000 1.0
C      1  0.4835450000000  0.5043880000000  0.4346650000000 1.0
C      1  0.5050790000000  0.4789480000000  0.4337450000000 1.0
C      1  0.5162380000000  0.5109850000000  0.4299230000000 1.0
C      1  0.4517700000000  0.4670210000000  0.5405950000000 1.0
C      1  0.5606840000000  0.4739000000000  0.5320210000000 1.0
C      1  0.4916280000000  0.5577190000000  0.5384570000000 1.0
C      1  0.5045330000000  0.4652920000000  0.5584010000000 1.0
C      1  0.5477070000000  0.5202060000000  0.5611410000000 1.0
C      1  0.4517140000000  0.5269330000000  0.5612550000000 1.0
C      1  0.4358260000000  0.4887520000000  0.5291270000000 1.0
C      1  0.5440710000000  0.4479430000000  0.5274480000000 1.0
C      1  0.5202010000000  0.5595040000000  0.5320080000000 1.0
C      1  0.4407540000000  0.5365150000000  0.5127200000000 1.0
C      1  0.4905710000000  0.4358430000000  0.5247070000000 1.0
C      1  0.5700500000000  0.5152420000000  0.5082220000000 1.0
C      1  0.4792500000000  0.5452060000000  0.5600560000000 1.0
C      1  0.4718330000000  0.4701900000000  0.5602910000000 1.0
C      1  0.5583120000000  0.4892490000000  0.5555580000000 1.0
END
