TITL C-2782233-7966-739 0.000732460381737013 125000 -885.689538498286 0 0 151 (C1) n - 1
REM
REM in /home/nfs/bkarasulu/CARBON/AIRSS/Generating-Clusters/REBO/Higher-Symm/SD-CG/HFTN-CG
REM
REM
REM
REM
REM
REM ./C.cell (12c818d87b63d06a65506943cc24bca4)
REM
REM compiler GCC version 9.2.1 20190827 (Red Hat 9.2.1-1)
REM options -cpp -mtune=generic -march=x86-64 -g -O0 -fpre-include=/usr/include/finclude/math-vector-fortran.h
REM seed -1191217803 203885810 -53934524 -1587068405 -869705851 -1372850899 1919233801 902189466 -249892462 835389309 -1738661529 920894629 1217368260 1440355678 2137516118 505211347 879784426 28450667 685136439 -533958813 -1023401732 916093014 709925365 -1227756283 -902143403 -1782300409 -199477154 -1808846487 -806867428 -1077334180 928791576 -110968730 -1373263691
REM
CELL 1.54180   50.00000   50.00000   50.00000   90.00000   90.00000   90.00000
LATT -1
SFAC C  
C      1  0.5273150000000  0.5182450000000  0.5906040000000 1.0
C      1  0.4689580000000  0.5339060000000  0.4006410000000 1.0
C      1  0.4750610000000  0.4727230000000  0.6006200000000 1.0
C      1  0.5263340000000  0.4720070000000  0.4097310000000 1.0
C      1  0.6045730000000  0.5282880000000  0.5238650000000 1.0
C      1  0.4068000000000  0.5289190000000  0.4817460000000 1.0
C      1  0.5993290000000  0.4716640000000  0.4838970000000 1.0
C      1  0.4115230000000  0.4764940000000  0.5251530000000 1.0
C      1  0.5064250000000  0.4439680000000  0.5472800000000 1.0
C      1  0.4884170000000  0.4381750000000  0.4522500000000 1.0
C      1  0.4830210000000  0.5650030000000  0.5415770000000 1.0
C      1  0.5017220000000  0.5525140000000  0.4551540000000 1.0
C      1  0.5434010000000  0.4444360000000  0.5144880000000 1.0
C      1  0.4554140000000  0.4302000000000  0.4888220000000 1.0
C      1  0.5452500000000  0.5564140000000  0.4809940000000 1.0
C      1  0.4405360000000  0.5477480000000  0.5134380000000 1.0
C      1  0.5826460000000  0.5541920000000  0.5198590000000 1.0
C      1  0.4051620000000  0.5565570000000  0.4858600000000 1.0
C      1  0.4194820000000  0.4442330000000  0.5291380000000 1.0
C      1  0.5822110000000  0.4427690000000  0.4808490000000 1.0
C      1  0.5227090000000  0.5475180000000  0.5734540000000 1.0
C      1  0.4798190000000  0.5647870000000  0.4102630000000 1.0
C      1  0.5232160000000  0.4420430000000  0.4123080000000 1.0
C      1  0.4721530000000  0.4416990000000  0.5866680000000 1.0
C      1  0.4741300000000  0.4513890000000  0.4965010000000 1.0
C      1  0.5223580000000  0.4643330000000  0.5057830000000 1.0
C      1  0.5211260000000  0.5461620000000  0.4992900000000 1.0
C      1  0.4726070000000  0.5490840000000  0.5036330000000 1.0
C      1  0.5014300000000  0.4603940000000  0.4827480000000 1.0
C      1  0.4934100000000  0.4560210000000  0.5212600000000 1.0
C      1  0.4988820000000  0.5478410000000  0.5202320000000 1.0
C      1  0.4951600000000  0.5387850000000  0.4814740000000 1.0
C      1  0.4235560000000  0.5075130000000  0.4813640000000 1.0
C      1  0.5777160000000  0.5165600000000  0.5080910000000 1.0
C      1  0.5721130000000  0.4887500000000  0.4939170000000 1.0
C      1  0.4314610000000  0.4882290000000  0.5045620000000 1.0
C      1  0.4825090000000  0.5118400000000  0.4229410000000 1.0
C      1  0.5033030000000  0.5129280000000  0.5697780000000 1.0
C      1  0.4857310000000  0.4871500000000  0.5715990000000 1.0
C      1  0.5128010000000  0.4966430000000  0.4247470000000 1.0
C      1  0.4689420000000  0.5946890000000  0.4971610000000 1.0
C      1  0.5317720000000  0.5837140000000  0.4913070000000 1.0
C      1  0.5328410000000  0.4187380000000  0.5006410000000 1.0
C      1  0.4719160000000  0.4036130000000  0.4953810000000 1.0
C      1  0.4905190000000  0.5815480000000  0.4576530000000 1.0
C      1  0.4921670000000  0.5872440000000  0.5193800000000 1.0
C      1  0.4959970000000  0.4182050000000  0.5335700000000 1.0
C      1  0.4941950000000  0.4140950000000  0.4731510000000 1.0
C      1  0.4624390000000  0.5381320000000  0.5866560000000 1.0
C      1  0.5460060000000  0.5364530000000  0.4276230000000 1.0
C      1  0.5487440000000  0.4552170000000  0.5738940000000 1.0
C      1  0.4627480000000  0.4668490000000  0.4238770000000 1.0
C      1  0.5902700000000  0.5398780000000  0.4619200000000 1.0
C      1  0.4126010000000  0.5424470000000  0.5579890000000 1.0
C      1  0.5881780000000  0.4559990000000  0.5354990000000 1.0
C      1  0.4306530000000  0.4600240000000  0.4670070000000 1.0
C      1  0.4267220000000  0.4177250000000  0.5132660000000 1.0
C      1  0.5699250000000  0.4159580000000  0.4866510000000 1.0
C      1  0.5680890000000  0.5794370000000  0.5075120000000 1.0
C      1  0.4228420000000  0.5782960000000  0.4950990000000 1.0
C      1  0.5106410000000  0.4169920000000  0.4266240000000 1.0
C      1  0.4875540000000  0.4168840000000  0.5721330000000 1.0
C      1  0.5128390000000  0.5771790000000  0.5648540000000 1.0
C      1  0.5038250000000  0.5814950000000  0.4277220000000 1.0
C      1  0.4319560000000  0.5645190000000  0.5542570000000 1.0
C      1  0.5738510000000  0.5679250000000  0.4556030000000 1.0
C      1  0.5709220000000  0.4268100000000  0.5385430000000 1.0
C      1  0.4358200000000  0.4305460000000  0.4505670000000 1.0
C      1  0.5555850000000  0.5674090000000  0.4330490000000 1.0
C      1  0.4557610000000  0.5648980000000  0.5707230000000 1.0
C      1  0.5485770000000  0.4225290000000  0.5639500000000 1.0
C      1  0.4545010000000  0.4347200000000  0.4293800000000 1.0
C      1  0.5201140000000  0.4116190000000  0.4541580000000 1.0
C      1  0.4691840000000  0.4102140000000  0.5442850000000 1.0
C      1  0.4590540000000  0.5766460000000  0.4558410000000 1.0
C      1  0.5190320000000  0.5861130000000  0.5379940000000 1.0
C      1  0.4520470000000  0.4056760000000  0.5209760000000 1.0
C      1  0.5426260000000  0.4122780000000  0.4724870000000 1.0
C      1  0.4475660000000  0.5853010000000  0.4805170000000 1.0
C      1  0.5410900000000  0.5867060000000  0.5198260000000 1.0
C      1  0.5738320000000  0.5354900000000  0.5468530000000 1.0
C      1  0.4341940000000  0.5428270000000  0.4529750000000 1.0
C      1  0.4259750000000  0.4608150000000  0.5581100000000 1.0
C      1  0.5727390000000  0.4617280000000  0.4563560000000 1.0
C      1  0.5526350000000  0.5335320000000  0.5648230000000 1.0
C      1  0.4533490000000  0.5559620000000  0.4298000000000 1.0
C      1  0.5496450000000  0.4638050000000  0.4411330000000 1.0
C      1  0.4449930000000  0.4603270000000  0.5782130000000 1.0
C      1  0.5009350000000  0.5209600000000  0.5308170000000 1.0
C      1  0.4954240000000  0.5088520000000  0.4768910000000 1.0
C      1  0.5047560000000  0.4823750000000  0.5367470000000 1.0
C      1  0.5023370000000  0.4751710000000  0.4567630000000 1.0
C      1  0.5391300000000  0.5222400000000  0.5006060000000 1.0
C      1  0.4596440000000  0.5194630000000  0.4932850000000 1.0
C      1  0.5342110000000  0.4897660000000  0.5060360000000 1.0
C      1  0.4694920000000  0.4810760000000  0.4950650000000 1.0
C      1  0.4221750000000  0.5158150000000  0.5637320000000 1.0
C      1  0.5833980000000  0.5130370000000  0.4481210000000 1.0
C      1  0.5830970000000  0.4820280000000  0.5520440000000 1.0
C      1  0.4230940000000  0.4869350000000  0.4476200000000 1.0
C      1  0.5633090000000  0.5123940000000  0.4290680000000 1.0
C      1  0.4444880000000  0.5142100000000  0.5809400000000 1.0
C      1  0.5638010000000  0.4808190000000  0.5720440000000 1.0
C      1  0.4434960000000  0.4907280000000  0.4245510000000 1.0
C      1  0.4849470000000  0.4702740000000  0.4073400000000 1.0
C      1  0.5220850000000  0.4576400000000  0.5903350000000 1.0
C      1  0.5188440000000  0.5269710000000  0.4163520000000 1.0
C      1  0.4679160000000  0.5415470000000  0.6140380000000 1.0
C      1  0.3994970000000  0.4538270000000  0.4693610000000 1.0
C      1  0.6158640000000  0.4511530000000  0.5322200000000 1.0
C      1  0.3864370000000  0.5464520000000  0.5512930000000 1.0
C      1  0.6180020000000  0.5437010000000  0.4649630000000 1.0
C      1  0.4138420000000  0.4903150000000  0.5526980000000 1.0
C      1  0.5900060000000  0.4880230000000  0.4581960000000 1.0
C      1  0.5908920000000  0.5079790000000  0.5447810000000 1.0
C      1  0.4211000000000  0.5174090000000  0.4428610000000 1.0
C      1  0.5515350000000  0.4875520000000  0.4218940000000 1.0
C      1  0.4503820000000  0.4887890000000  0.5901300000000 1.0
C      1  0.5530370000000  0.5053720000000  0.5807070000000 1.0
C      1  0.4443940000000  0.5243190000000  0.4192740000000 1.0
C      1  0.5313600000000  0.5827460000000  0.4266650000000 1.0
C      1  0.4818990000000  0.5814590000000  0.5708030000000 1.0
C      1  0.4794950000000  0.4181080000000  0.4262920000000 1.0
C      1  0.5163450000000  0.4137460000000  0.5714210000000 1.0
C      1  0.4305150000000  0.5751260000000  0.5260720000000 1.0
C      1  0.5735430000000  0.5845020000000  0.4794610000000 1.0
C      1  0.4242910000000  0.4217750000000  0.4808290000000 1.0
C      1  0.5701550000000  0.4115770000000  0.5153600000000 1.0
C      1  0.5183730000000  0.4522070000000  0.4435240000000 1.0
C      1  0.4985210000000  0.4565780000000  0.5732140000000 1.0
C      1  0.4949220000000  0.5425940000000  0.4285960000000 1.0
C      1  0.4892740000000  0.5425110000000  0.5663940000000 1.0
C      1  0.4345430000000  0.4549980000000  0.5005130000000 1.0
C      1  0.5709810000000  0.4577680000000  0.5082430000000 1.0
C      1  0.4429560000000  0.5455940000000  0.4793120000000 1.0
C      1  0.5720480000000  0.5440920000000  0.4888210000000 1.0
C      1  0.5269700000000  0.5063160000000  0.5464380000000 1.0
C      1  0.4782030000000  0.4959160000000  0.4499940000000 1.0
C      1  0.4766830000000  0.5010580000000  0.5424250000000 1.0
C      1  0.5220450000000  0.5004200000000  0.4572560000000 1.0
C      1  0.5515910000000  0.5081450000000  0.5282650000000 1.0
C      1  0.4540650000000  0.4956230000000  0.4710890000000 1.0
C      1  0.5452870000000  0.4998350000000  0.4759540000000 1.0
C      1  0.4574450000000  0.4992200000000  0.5205860000000 1.0
C      1  0.5317400000000  0.5458820000000  0.4560740000000 1.0
C      1  0.5360510000000  0.4452100000000  0.5441160000000 1.0
C      1  0.4285140000000  0.5255350000000  0.5254530000000 1.0
C      1  0.4639200000000  0.4613260000000  0.4574580000000 1.0
C      1  0.5034810000000  0.4116540000000  0.5051500000000 1.0
C      1  0.5010610000000  0.5901560000000  0.4865420000000 1.0
C      1  0.4949650000000  0.4970670000000  0.5071250000000 1.0
END
