TITL C-2782225-7408-741 0.00378854801683754 125000 -300.414580117884 0 0 53 (C1) n - 1
REM
REM in /home/nfs/bkarasulu/CARBON/AIRSS/Generating-Clusters/REBO/Higher-Symm/SD-CG/HFTN-CG
REM
REM
REM
REM
REM
REM ./C.cell (12c818d87b63d06a65506943cc24bca4)
REM
REM compiler GCC version 9.2.1 20190827 (Red Hat 9.2.1-1)
REM options -cpp -mtune=generic -march=x86-64 -g -O0 -fpre-include=/usr/include/finclude/math-vector-fortran.h
REM seed 1165036370 -2010345710 810266041 1607278102 -162417145 -10895816 -431202705 -692153890 961317540 467347358 714523229 -1136014973 -1451526702 -1116185412 -635394453 577475861 1154869875 -1128052614 -121731905 -763378615 -1882366158 1957153472 515638788 1532758921 -489382026 -1134280161 -1165142081 -555603532 999722456 987882024 2146201466 1700944935 384581924
REM
CELL 1.54180   50.00000   50.00000   50.00000   90.00000   90.00000   90.00000
LATT -1
SFAC C  
C      1  0.4399110000000  0.5399610000000  0.5400620000000 1.0
C      1  0.4423450000000  0.4760410000000  0.5486510000000 1.0
C      1  0.4424460000000  0.4477310000000  0.4935330000000 1.0
C      1  0.4416840000000  0.4923160000000  0.4468950000000 1.0
C      1  0.4418650000000  0.5488450000000  0.4746580000000 1.0
C      1  0.5717120000000  0.4874240000000  0.5233530000000 1.0
C      1  0.5655010000000  0.4597100000000  0.5104890000000 1.0
C      1  0.5605570000000  0.4821080000000  0.4698450000000 1.0
C      1  0.5745820000000  0.5348140000000  0.4855700000000 1.0
C      1  0.5625160000000  0.5398510000000  0.5277380000000 1.0
C      1  0.4831720000000  0.4537610000000  0.4657090000000 1.0
C      1  0.4836790000000  0.5187720000000  0.4452150000000 1.0
C      1  0.4845630000000  0.5601960000000  0.4973760000000 1.0
C      1  0.4830760000000  0.5193870000000  0.5536810000000 1.0
C      1  0.4835750000000  0.4548250000000  0.5324250000000 1.0
C      1  0.4941570000000  0.5599320000000  0.4706580000000 1.0
C      1  0.4935660000000  0.5430420000000  0.5418380000000 1.0
C      1  0.4932780000000  0.4705750000000  0.5540800000000 1.0
C      1  0.4944740000000  0.4394640000000  0.4875310000000 1.0
C      1  0.4928810000000  0.4929790000000  0.4373640000000 1.0
C      1  0.4553000000000  0.4571770000000  0.5293060000000 1.0
C      1  0.4554500000000  0.4584890000000  0.4689840000000 1.0
C      1  0.4557600000000  0.5186730000000  0.4501650000000 1.0
C      1  0.4568240000000  0.5554170000000  0.4994790000000 1.0
C      1  0.4548130000000  0.5173680000000  0.5528350000000 1.0
C      1  0.4332120000000  0.4831070000000  0.4780560000000 1.0
C      1  0.4352170000000  0.5165340000000  0.4775890000000 1.0
C      1  0.4370210000000  0.5290220000000  0.5087550000000 1.0
C      1  0.4347990000000  0.5020870000000  0.5294240000000 1.0
C      1  0.4310600000000  0.4739020000000  0.5107230000000 1.0
C      1  0.5013110000000  0.4695460000000  0.4506100000000 1.0
C      1  0.5031210000000  0.5374020000000  0.4559970000000 1.0
C      1  0.5031840000000  0.5540000000000  0.5177090000000 1.0
C      1  0.5015360000000  0.4975140000000  0.5551750000000 1.0
C      1  0.5030190000000  0.4472850000000  0.5132210000000 1.0
C      1  0.5356690000000  0.5290830000000  0.5403260000000 1.0
C      1  0.5422510000000  0.4825160000000  0.5325510000000 1.0
C      1  0.5459630000000  0.4554310000000  0.4835580000000 1.0
C      1  0.5391880000000  0.5038640000000  0.4553270000000 1.0
C      1  0.5447080000000  0.5429070000000  0.4829580000000 1.0
C      1  0.5314780000000  0.4562420000000  0.5143310000000 1.0
C      1  0.5297730000000  0.4713470000000  0.4585720000000 1.0
C      1  0.5301220000000  0.5293640000000  0.4619610000000 1.0
C      1  0.5333220000000  0.5483030000000  0.5120380000000 1.0
C      1  0.5279940000000  0.5027950000000  0.5458820000000 1.0
C      1  0.4798740000000  0.4932180000000  0.5218340000000 1.0
C      1  0.4674190000000  0.4831390000000  0.4986350000000 1.0
C      1  0.4794770000000  0.4924630000000  0.4750460000000 1.0
C      1  0.5036800000000  0.5066380000000  0.4815170000000 1.0
C      1  0.5036610000000  0.5082270000000  0.5146520000000 1.0
C      1  0.5588690000000  0.5054390000000  0.4900750000000 1.0
C      1  0.5308500000000  0.5085910000000  0.4980560000000 1.0
C      1  0.5798000000000  0.5168750000000  0.5141120000000 1.0
END
