TITL C-2782230-7391-268 -5.64544629052654e-07 125000 -163.474566649637 0 0 28 (Td) n - 1
REM
REM in /home/nfs/bkarasulu/CARBON/AIRSS/Generating-Clusters/REBO/Higher-Symm/SD-CG/HFTN-CG
REM
REM
REM
REM
REM
REM ./C.cell (12c818d87b63d06a65506943cc24bca4)
REM
REM compiler GCC version 9.2.1 20190827 (Red Hat 9.2.1-1)
REM options -cpp -mtune=generic -march=x86-64 -g -O0 -fpre-include=/usr/include/finclude/math-vector-fortran.h
REM seed 335620624 1648794044 1027930383 -337806371 273344927 286165504 -1317647720 -998702816 -1046325526 63132611 1069824593 1128898176 -1916157314 -439099709 -977048099 821556948 -200624320 676515486 293671014 -1479072722 -1255612207 -45911697 1332695865 1019447725 -141834590 908851717 -254412485 183803056 -340198682 -1329265149 108185792 847875737 -1036838392
REM
CELL 1.54180   50.00000   50.00000   50.00000   90.00000   90.00000   90.00000
LATT -1
SFAC C  
C      1  0.4582040000000  0.4923460000000  0.5443790000000 1.0
C      1  0.4905440000000  0.5419380000000  0.4542030000000 1.0
C      1  0.5425280000000  0.4540710000000  0.4890470000000 1.0
C      1  0.5421800000000  0.4872630000000  0.4538330000000 1.0
C      1  0.5460320000000  0.5087550000000  0.5405570000000 1.0
C      1  0.4554090000000  0.5087400000000  0.4565090000000 1.0
C      1  0.5128050000000  0.5439370000000  0.5407950000000 1.0
C      1  0.5070450000000  0.4540650000000  0.4561400000000 1.0
C      1  0.4914310000000  0.4571630000000  0.5441420000000 1.0
C      1  0.4559480000000  0.4571580000000  0.5112340000000 1.0
C      1  0.4576640000000  0.5439280000000  0.4896550000000 1.0
C      1  0.5456850000000  0.5419470000000  0.5053430000000 1.0
C      1  0.5413830000000  0.5380650000000  0.4784730000000 1.0
C      1  0.5419730000000  0.4816620000000  0.5383130000000 1.0
C      1  0.4855100000000  0.5414470000000  0.5387170000000 1.0
C      1  0.4617890000000  0.5414430000000  0.5167160000000 1.0
C      1  0.4581880000000  0.4594580000000  0.4839350000000 1.0
C      1  0.5404650000000  0.4581370000000  0.5161530000000 1.0
C      1  0.4579560000000  0.4816490000000  0.4603930000000 1.0
C      1  0.4620210000000  0.5192530000000  0.5402590000000 1.0
C      1  0.5398750000000  0.5145400000000  0.4563140000000 1.0
C      1  0.5176610000000  0.5380620000000  0.4564730000000 1.0
C      1  0.5184830000000  0.4594670000000  0.5398550000000 1.0
C      1  0.4801700000000  0.4581270000000  0.4602340000000 1.0
C      1  0.5328420000000  0.4625740000000  0.4639060000000 1.0
C      1  0.4661350000000  0.4666120000000  0.5358320000000 1.0
C      1  0.4654300000000  0.5339530000000  0.4643880000000 1.0
C      1  0.5374180000000  0.5339650000000  0.5311520000000 1.0
END
