TITL C-2782240-8521-1069 0.000821886475682009 125000 -275.720764422242 0 0 48 (C1) n - 1
REM
REM in /home/nfs/bkarasulu/CARBON/AIRSS/Generating-Clusters/REBO/Higher-Symm/SD-CG/HFTN-CG
REM
REM
REM
REM
REM
REM ./C.cell (12c818d87b63d06a65506943cc24bca4)
REM
REM compiler GCC version 9.2.1 20190827 (Red Hat 9.2.1-1)
REM options -cpp -mtune=generic -march=x86-64 -g -O0 -fpre-include=/usr/include/finclude/math-vector-fortran.h
REM seed 1998373430 1585263475 -592455355 788896737 1314316310 1857059959 1543683290 -1705394155 -735448127 681863938 1273493546 -238838957 -1984207576 -1893239467 -942039799 -519151134 -1313915582 -562789398 -2918705 457244617 -1771117668 2006075606 -1068202940 -685724680 -1052514396 849611951 -1909385372 1190105919 -467299638 -1612463475 1851489405 -110142286 596244687
REM
CELL 1.54180   50.00000   50.00000   50.00000   90.00000   90.00000   90.00000
LATT -1
SFAC C  
C      1  0.5433750000000  0.4314660000000  0.5423510000000 1.0
C      1  0.4891640000000  0.5139820000000  0.5481600000000 1.0
C      1  0.5219660000000  0.5380780000000  0.4924820000000 1.0
C      1  0.5291800000000  0.4427860000000  0.5593740000000 1.0
C      1  0.5476690000000  0.5635840000000  0.5559710000000 1.0
C      1  0.4682990000000  0.5269100000000  0.4661180000000 1.0
C      1  0.4632610000000  0.4623880000000  0.5353690000000 1.0
C      1  0.4606370000000  0.5502890000000  0.3931910000000 1.0
C      1  0.5725470000000  0.5318190000000  0.5014770000000 1.0
C      1  0.5011170000000  0.4924370000000  0.4432280000000 1.0
C      1  0.4430590000000  0.5075910000000  0.5264440000000 1.0
C      1  0.5011560000000  0.4841970000000  0.5420660000000 1.0
C      1  0.5213760000000  0.4573790000000  0.5043160000000 1.0
C      1  0.4642320000000  0.4771700000000  0.4458870000000 1.0
C      1  0.5025940000000  0.4806790000000  0.6169690000000 1.0
C      1  0.4853740000000  0.4722500000000  0.4202650000000 1.0
C      1  0.4587330000000  0.5551380000000  0.5726300000000 1.0
C      1  0.4619880000000  0.5742280000000  0.4341430000000 1.0
C      1  0.4351960000000  0.5135090000000  0.5014110000000 1.0
C      1  0.5649560000000  0.4584040000000  0.4981060000000 1.0
C      1  0.4496400000000  0.4540540000000  0.5124080000000 1.0
C      1  0.4760570000000  0.5462780000000  0.4895930000000 1.0
C      1  0.4628790000000  0.5507000000000  0.4203720000000 1.0
C      1  0.5259180000000  0.5540340000000  0.5466480000000 1.0
C      1  0.4975080000000  0.5157470000000  0.4564580000000 1.0
C      1  0.5423260000000  0.5326530000000  0.4486790000000 1.0
C      1  0.5442190000000  0.5273140000000  0.5071850000000 1.0
C      1  0.5452380000000  0.4364260000000  0.5134780000000 1.0
C      1  0.5400670000000  0.4470350000000  0.4786040000000 1.0
C      1  0.4980140000000  0.5446960000000  0.5057090000000 1.0
C      1  0.5310840000000  0.4510220000000  0.4512200000000 1.0
C      1  0.5204220000000  0.5305590000000  0.4647680000000 1.0
C      1  0.5053370000000  0.4616310000000  0.5644410000000 1.0
C      1  0.4467200000000  0.5078900000000  0.4765810000000 1.0
C      1  0.4999740000000  0.5426430000000  0.5355300000000 1.0
C      1  0.4661290000000  0.5267290000000  0.4342770000000 1.0
C      1  0.4671450000000  0.5008770000000  0.4241170000000 1.0
C      1  0.4783600000000  0.4486950000000  0.5533510000000 1.0
C      1  0.5860430000000  0.5069300000000  0.5001750000000 1.0
C      1  0.4756010000000  0.5424820000000  0.5581420000000 1.0
C      1  0.5148060000000  0.4648390000000  0.4354380000000 1.0
C      1  0.4431790000000  0.4610970000000  0.4870300000000 1.0
C      1  0.4479420000000  0.4810520000000  0.4676180000000 1.0
C      1  0.5196760000000  0.4814370000000  0.5184810000000 1.0
C      1  0.5038450000000  0.4719900000000  0.5930070000000 1.0
C      1  0.5672340000000  0.4853550000000  0.5054510000000 1.0
C      1  0.5418120000000  0.4986420000000  0.5137530000000 1.0
C      1  0.4669460000000  0.4929120000000  0.5375270000000 1.0
END
