TITL C-2782228-2999-469 0.00271393624565644 125000 -315.135531217228 0 0 54 (C1) n - 1
REM
REM in /home/nfs/bkarasulu/CARBON/AIRSS/Generating-Clusters/REBO/Higher-Symm/SD-CG/HFTN-CG
REM
REM
REM
REM
REM
REM ./C.cell (12c818d87b63d06a65506943cc24bca4)
REM
REM compiler GCC version 9.2.1 20190827 (Red Hat 9.2.1-1)
REM options -cpp -mtune=generic -march=x86-64 -g -O0 -fpre-include=/usr/include/finclude/math-vector-fortran.h
REM seed -686187238 985583240 926195805 1487143330 322287958 -483876379 706058433 1361749845 -591545150 913792916 -907904611 186300436 1183810962 977038223 1593651281 1008873309 -47808973 -544401780 -1494223503 -197449368 746688313 1030116660 -2065478552 779468449 -456159981 -1990245809 1084218804 875555623 1646236754 1453153159 -121729774 -186036925 -211125466
REM
CELL 1.54180   50.00000   50.00000   50.00000   90.00000   90.00000   90.00000
LATT -1
SFAC C  
C      1  0.5143600000000  0.4318770000000  0.5156070000000 1.0
C      1  0.5155430000000  0.5215700000000  0.4361790000000 1.0
C      1  0.5185810000000  0.5457120000000  0.5500640000000 1.0
C      1  0.5301750000000  0.4536340000000  0.4555420000000 1.0
C      1  0.5222250000000  0.5716060000000  0.4782740000000 1.0
C      1  0.5248530000000  0.4797250000000  0.5717250000000 1.0
C      1  0.4366700000000  0.5132930000000  0.4860470000000 1.0
C      1  0.4391000000000  0.5068280000000  0.5177590000000 1.0
C      1  0.4377200000000  0.4828210000000  0.4960480000000 1.0
C      1  0.4349650000000  0.5560530000000  0.4633580000000 1.0
C      1  0.4405180000000  0.4973790000000  0.5651980000000 1.0
C      1  0.4373910000000  0.4453700000000  0.4652580000000 1.0
C      1  0.4662210000000  0.4455510000000  0.5046200000000 1.0
C      1  0.4664940000000  0.5216800000000  0.4491130000000 1.0
C      1  0.4686350000000  0.5323970000000  0.5463190000000 1.0
C      1  0.5344030000000  0.4552620000000  0.5594090000000 1.0
C      1  0.5397310000000  0.4765980000000  0.4405880000000 1.0
C      1  0.5369200000000  0.5692610000000  0.5032250000000 1.0
C      1  0.4918970000000  0.4385190000000  0.4932590000000 1.0
C      1  0.4912660000000  0.5363230000000  0.4503430000000 1.0
C      1  0.4943190000000  0.5247170000000  0.5575610000000 1.0
C      1  0.4945830000000  0.5550800000000  0.4772190000000 1.0
C      1  0.4972470000000  0.4914680000000  0.5596830000000 1.0
C      1  0.4988220000000  0.4540740000000  0.4644210000000 1.0
C      1  0.5166470000000  0.5652250000000  0.5241360000000 1.0
C      1  0.5118790000000  0.4430020000000  0.5456210000000 1.0
C      1  0.5160400000000  0.4901220000000  0.4295450000000 1.0
C      1  0.4909290000000  0.5616580000000  0.5103940000000 1.0
C      1  0.4885990000000  0.4604300000000  0.5486620000000 1.0
C      1  0.4918130000000  0.4771480000000  0.4404310000000 1.0
C      1  0.4692260000000  0.4941150000000  0.4421250000000 1.0
C      1  0.4697690000000  0.5527980000000  0.5265310000000 1.0
C      1  0.4670300000000  0.4536580000000  0.5319990000000 1.0
C      1  0.4869350000000  0.4949980000000  0.5286510000000 1.0
C      1  0.4863090000000  0.4782870000000  0.4827530000000 1.0
C      1  0.4861120000000  0.5267140000000  0.4915710000000 1.0
C      1  0.4928950000000  0.4748060000000  0.5100080000000 1.0
C      1  0.4919720000000  0.5046600000000  0.4747640000000 1.0
C      1  0.4939310000000  0.5202810000000  0.5178640000000 1.0
C      1  0.5182380000000  0.5087840000000  0.4645440000000 1.0
C      1  0.5207760000000  0.5257080000000  0.5266420000000 1.0
C      1  0.5184380000000  0.4623030000000  0.5113720000000 1.0
C      1  0.5662100000000  0.4654930000000  0.5231960000000 1.0
C      1  0.5698220000000  0.5120460000000  0.4700460000000 1.0
C      1  0.5644720000000  0.5282220000000  0.4960330000000 1.0
C      1  0.5432120000000  0.4787060000000  0.5075750000000 1.0
C      1  0.5410150000000  0.4997910000000  0.4811080000000 1.0
C      1  0.5423920000000  0.5116440000000  0.5127480000000 1.0
C      1  0.4454780000000  0.4570730000000  0.4884290000000 1.0
C      1  0.4444360000000  0.5306220000000  0.4654230000000 1.0
C      1  0.4478440000000  0.5125260000000  0.5437910000000 1.0
C      1  0.5621900000000  0.5560000000000  0.5013850000000 1.0
C      1  0.5602270000000  0.4542280000000  0.5475240000000 1.0
C      1  0.5625240000000  0.4921560000000  0.4483110000000 1.0
END
