TITL C-2782235-7892-285 1.62583084899826e-08 125000 -88.9169869758088 0 0 18 (D2d) n - 1
REM
REM in /home/nfs/bkarasulu/CARBON/AIRSS/Generating-Clusters/REBO/Higher-Symm/SD-CG/HFTN-CG
REM
REM
REM
REM
REM
REM ./C.cell (12c818d87b63d06a65506943cc24bca4)
REM
REM compiler GCC version 9.2.1 20190827 (Red Hat 9.2.1-1)
REM options -cpp -mtune=generic -march=x86-64 -g -O0 -fpre-include=/usr/include/finclude/math-vector-fortran.h
REM seed 312952435 944316664 -1724917222 1601057814 1290994369 1859663141 1500059755 -1105944000 1734432230 1904024590 -248458406 1097153830 -405248534 -659950310 149448609 -776376689 -1757360228 1104964037 -1685424712 -1775699744 825254639 -705332981 -2118305880 596521829 2123720239 1920378037 -955788640 1208502902 329052249 108031086 -1850831183 -1454217920 1444805970
REM
CELL 1.54180   50.00000   50.00000   50.00000   90.00000   90.00000   90.00000
LATT -1
SFAC C  
C      1  0.4815080000000  0.4885850000000  0.5222930000000 1.0
C      1  0.5181190000000  0.5221700000000  0.5076550000000 1.0
C      1  0.4831660000000  0.5076570000000  0.4722960000000 1.0
C      1  0.5172080000000  0.4721670000000  0.4885500000000 1.0
C      1  0.5003510000000  0.4831050000000  0.4652150000000 1.0
C      1  0.4987920000000  0.4651740000000  0.5122200000000 1.0
C      1  0.4996490000000  0.5121850000000  0.5301820000000 1.0
C      1  0.5012080000000  0.5301160000000  0.4831770000000 1.0
C      1  0.5021030000000  0.5541870000000  0.4724120000000 1.0
C      1  0.5006120000000  0.4723270000000  0.4411350000000 1.0
C      1  0.4978970000000  0.4411030000000  0.5229850000000 1.0
C      1  0.4993880000000  0.5229630000000  0.5542620000000 1.0
C      1  0.5334820000000  0.4503550000000  0.4807690000000 1.0
C      1  0.4641360000000  0.4808860000000  0.5432710000000 1.0
C      1  0.5351710000000  0.5430840000000  0.5161990000000 1.0
C      1  0.4672110000000  0.5162550000000  0.4505550000000 1.0
C      1  0.5339770000000  0.4967290000000  0.4984760000000 1.0
C      1  0.4660230000000  0.4985610000000  0.4969210000000 1.0
END
