TITL C-2782231-7322-1496 -0.00471020867709459 125000 -910.445588128676 0 0 153 (C1) n - 1
REM
REM in /home/nfs/bkarasulu/CARBON/AIRSS/Generating-Clusters/REBO/Higher-Symm/SD-CG/HFTN-CG
REM
REM
REM
REM
REM
REM ./C.cell (12c818d87b63d06a65506943cc24bca4)
REM
REM compiler GCC version 9.2.1 20190827 (Red Hat 9.2.1-1)
REM options -cpp -mtune=generic -march=x86-64 -g -O0 -fpre-include=/usr/include/finclude/math-vector-fortran.h
REM seed -19908379 -1717616495 -240665186 1300745859 1827606258 -1569094062 269032932 -1145557341 -2114641902 -606769615 -1500381653 -378818773 -1566205718 773565714 -985463073 116959405 1531784060 -321214525 2001973769 -1862466074 529019260 -1447096765 223764204 1504785120 -1258752257 637373729 -814316191 1705756614 -1567528236 -116068438 2125560286 1071187451 -1822871853
REM
CELL 1.54180   50.00000   50.00000   50.00000   90.00000   90.00000   90.00000
LATT -1
SFAC C  
C      1  0.4661170000000  0.4768850000000  0.4453850000000 1.0
C      1  0.4391250000000  0.4818880000000  0.5189840000000 1.0
C      1  0.4869910000000  0.4715590000000  0.5640870000000 1.0
C      1  0.5571780000000  0.4827450000000  0.5208340000000 1.0
C      1  0.5365520000000  0.4769660000000  0.4534420000000 1.0
C      1  0.5579690000000  0.4362870000000  0.5498950000000 1.0
C      1  0.5579830000000  0.4544960000000  0.4694680000000 1.0
C      1  0.4869830000000  0.4518000000000  0.4344260000000 1.0
C      1  0.4252370000000  0.4369230000000  0.4935280000000 1.0
C      1  0.4729550000000  0.4409170000000  0.5690470000000 1.0
C      1  0.5570670000000  0.4573560000000  0.5689250000000 1.0
C      1  0.5878020000000  0.4664980000000  0.4701840000000 1.0
C      1  0.4970380000000  0.4664360000000  0.4078980000000 1.0
C      1  0.4145980000000  0.4585580000000  0.4782380000000 1.0
C      1  0.4500140000000  0.4647530000000  0.5771870000000 1.0
C      1  0.4463620000000  0.4122380000000  0.4865640000000 1.0
C      1  0.4721500000000  0.4163470000000  0.5459930000000 1.0
C      1  0.5349400000000  0.4172360000000  0.5382340000000 1.0
C      1  0.5461360000000  0.4274750000000  0.4773850000000 1.0
C      1  0.4929180000000  0.4231170000000  0.4459640000000 1.0
C      1  0.4009710000000  0.4803350000000  0.4933810000000 1.0
C      1  0.4623180000000  0.4873920000000  0.5912350000000 1.0
C      1  0.5725480000000  0.4817910000000  0.5643730000000 1.0
C      1  0.5889980000000  0.4869380000000  0.4493750000000 1.0
C      1  0.4773390000000  0.4869800000000  0.4015370000000 1.0
C      1  0.4457500000000  0.5713240000000  0.4440150000000 1.0
C      1  0.4238370000000  0.5729690000000  0.5310390000000 1.0
C      1  0.5145920000000  0.5712220000000  0.5727120000000 1.0
C      1  0.5793530000000  0.5740660000000  0.5282280000000 1.0
C      1  0.5342510000000  0.5694120000000  0.4308390000000 1.0
C      1  0.4372680000000  0.5057500000000  0.5333630000000 1.0
C      1  0.5043060000000  0.5000760000000  0.5591390000000 1.0
C      1  0.5719710000000  0.5029190000000  0.5095860000000 1.0
C      1  0.5273820000000  0.5083960000000  0.4488750000000 1.0
C      1  0.4501130000000  0.4961290000000  0.4542470000000 1.0
C      1  0.4768550000000  0.4428750000000  0.5167080000000 1.0
C      1  0.5052910000000  0.4421000000000  0.5281610000000 1.0
C      1  0.5247860000000  0.4469510000000  0.5061990000000 1.0
C      1  0.5071570000000  0.4478230000000  0.4816710000000 1.0
C      1  0.4773510000000  0.4524380000000  0.4881160000000 1.0
C      1  0.4544310000000  0.4583970000000  0.5333140000000 1.0
C      1  0.5149590000000  0.4595120000000  0.5531910000000 1.0
C      1  0.5563520000000  0.4554070000000  0.5093910000000 1.0
C      1  0.5209100000000  0.4498540000000  0.4554910000000 1.0
C      1  0.4586250000000  0.4447000000000  0.4676250000000 1.0
C      1  0.5801020000000  0.4382700000000  0.5257660000000 1.0
C      1  0.5451140000000  0.4426490000000  0.4335030000000 1.0
C      1  0.4475520000000  0.4404470000000  0.4379330000000 1.0
C      1  0.4254590000000  0.4422880000000  0.5256110000000 1.0
C      1  0.5052150000000  0.4408640000000  0.5809050000000 1.0
C      1  0.4897500000000  0.4916590000000  0.5985270000000 1.0
C      1  0.5899650000000  0.4887780000000  0.5428900000000 1.0
C      1  0.5695160000000  0.4878030000000  0.4272570000000 1.0
C      1  0.4498450000000  0.4893550000000  0.4111020000000 1.0
C      1  0.3996910000000  0.4874350000000  0.5216200000000 1.0
C      1  0.5212390000000  0.5064390000000  0.4170190000000 1.0
C      1  0.4162610000000  0.4984570000000  0.4505690000000 1.0
C      1  0.4259250000000  0.5045050000000  0.5640220000000 1.0
C      1  0.5282820000000  0.4978180000000  0.5801300000000 1.0
C      1  0.6027020000000  0.5065960000000  0.4948350000000 1.0
C      1  0.5598380000000  0.5150420000000  0.4226630000000 1.0
C      1  0.4456030000000  0.5186540000000  0.4202030000000 1.0
C      1  0.4012790000000  0.5199300000000  0.5247260000000 1.0
C      1  0.4983550000000  0.5199640000000  0.5944180000000 1.0
C      1  0.5899160000000  0.5201150000000  0.5403820000000 1.0
C      1  0.3993600000000  0.5062890000000  0.4756010000000 1.0
C      1  0.4476250000000  0.5147610000000  0.5839670000000 1.0
C      1  0.5593080000000  0.5043750000000  0.5759920000000 1.0
C      1  0.5991030000000  0.5149490000000  0.4639750000000 1.0
C      1  0.4923780000000  0.5137990000000  0.4064290000000 1.0
C      1  0.4459620000000  0.4879450000000  0.4929980000000 1.0
C      1  0.4703760000000  0.4864100000000  0.5434570000000 1.0
C      1  0.5362900000000  0.4814510000000  0.5446860000000 1.0
C      1  0.5549270000000  0.4879230000000  0.4769580000000 1.0
C      1  0.4976030000000  0.4818270000000  0.4465750000000 1.0
C      1  0.4883060000000  0.4846550000000  0.5186190000000 1.0
C      1  0.5145940000000  0.4829220000000  0.5202490000000 1.0
C      1  0.5289650000000  0.4792970000000  0.4928060000000 1.0
C      1  0.5029790000000  0.4798740000000  0.4748520000000 1.0
C      1  0.4751110000000  0.4835470000000  0.4907380000000 1.0
C      1  0.5239530000000  0.5649480000000  0.5219640000000 1.0
C      1  0.5523770000000  0.5717060000000  0.4765760000000 1.0
C      1  0.4921010000000  0.5646200000000  0.4694090000000 1.0
C      1  0.4618570000000  0.5672280000000  0.4953840000000 1.0
C      1  0.4823640000000  0.5689690000000  0.5347620000000 1.0
C      1  0.5073610000000  0.4690270000000  0.5983630000000 1.0
C      1  0.5939820000000  0.4673270000000  0.5225750000000 1.0
C      1  0.5501270000000  0.4661020000000  0.4175920000000 1.0
C      1  0.4357680000000  0.4640650000000  0.4232130000000 1.0
C      1  0.4101170000000  0.4653650000000  0.5405670000000 1.0
C      1  0.4183880000000  0.5339350000000  0.5044650000000 1.0
C      1  0.4847870000000  0.5346460000000  0.5735730000000 1.0
C      1  0.5616910000000  0.5315220000000  0.5389880000000 1.0
C      1  0.5526120000000  0.5288390000000  0.4500250000000 1.0
C      1  0.4682930000000  0.5327250000000  0.4317810000000 1.0
C      1  0.4229770000000  0.5497950000000  0.4546360000000 1.0
C      1  0.4286840000000  0.5540430000000  0.5564750000000 1.0
C      1  0.5376640000000  0.5498900000000  0.5753840000000 1.0
C      1  0.5999590000000  0.5598940000000  0.5062570000000 1.0
C      1  0.5167920000000  0.5474800000000  0.4153480000000 1.0
C      1  0.4918170000000  0.5964140000000  0.5225820000000 1.0
C      1  0.5255280000000  0.5974290000000  0.5167870000000 1.0
C      1  0.5334700000000  0.5909190000000  0.4850580000000 1.0
C      1  0.5042020000000  0.5944500000000  0.4702430000000 1.0
C      1  0.4772830000000  0.5951480000000  0.4916610000000 1.0
C      1  0.4763800000000  0.4042580000000  0.4931430000000 1.0
C      1  0.4875250000000  0.4040340000000  0.5193660000000 1.0
C      1  0.5158920000000  0.4055880000000  0.5159220000000 1.0
C      1  0.5214610000000  0.4101310000000  0.4884630000000 1.0
C      1  0.4970020000000  0.4089050000000  0.4744250000000 1.0
C      1  0.4675410000000  0.5153980000000  0.5568600000000 1.0
C      1  0.5356870000000  0.5127620000000  0.5382870000000 1.0
C      1  0.5672500000000  0.5141290000000  0.4716710000000 1.0
C      1  0.4889390000000  0.5115660000000  0.4398790000000 1.0
C      1  0.4307870000000  0.5137620000000  0.4843660000000 1.0
C      1  0.4707740000000  0.5584740000000  0.4435490000000 1.0
C      1  0.4311400000000  0.5596230000000  0.5078980000000 1.0
C      1  0.4913260000000  0.5602390000000  0.5632810000000 1.0
C      1  0.5562970000000  0.5587240000000  0.5314760000000 1.0
C      1  0.5483190000000  0.5589270000000  0.4517430000000 1.0
C      1  0.5359890000000  0.4665950000000  0.5862770000000 1.0
C      1  0.5977230000000  0.4755770000000  0.4959190000000 1.0
C      1  0.5244270000000  0.4769460000000  0.4089230000000 1.0
C      1  0.4210420000000  0.4674780000000  0.4508110000000 1.0
C      1  0.4257300000000  0.4736820000000  0.5632920000000 1.0
C      1  0.4633940000000  0.5191130000000  0.4756730000000 1.0
C      1  0.4629430000000  0.5241750000000  0.5247820000000 1.0
C      1  0.5028330000000  0.5196050000000  0.5309930000000 1.0
C      1  0.5631100000000  0.5302160000000  0.4978970000000 1.0
C      1  0.5028200000000  0.5194270000000  0.4702170000000 1.0
C      1  0.6052660000000  0.5290210000000  0.5170560000000 1.0
C      1  0.5408480000000  0.5277150000000  0.4026690000000 1.0
C      1  0.4222720000000  0.5241120000000  0.4350410000000 1.0
C      1  0.4097110000000  0.5281840000000  0.5512770000000 1.0
C      1  0.5278600000000  0.5265440000000  0.5956390000000 1.0
C      1  0.4611090000000  0.4141870000000  0.4556160000000 1.0
C      1  0.4514170000000  0.4212370000000  0.5192690000000 1.0
C      1  0.5050560000000  0.4209690000000  0.5541190000000 1.0
C      1  0.5544710000000  0.4212460000000  0.5101820000000 1.0
C      1  0.5269200000000  0.4184170000000  0.4496740000000 1.0
C      1  0.5227620000000  0.5429720000000  0.5456750000000 1.0
C      1  0.5695300000000  0.5570660000000  0.4937940000000 1.0
C      1  0.5080740000000  0.5449060000000  0.4481490000000 1.0
C      1  0.4491600000000  0.5472320000000  0.4750270000000 1.0
C      1  0.4569020000000  0.5522260000000  0.5375570000000 1.0
C      1  0.4908220000000  0.5441970000000  0.3959530000000 1.0
C      1  0.3971070000000  0.5384720000000  0.4702390000000 1.0
C      1  0.4382450000000  0.5451670000000  0.5858390000000 1.0
C      1  0.5638110000000  0.5312870000000  0.5788790000000 1.0
C      1  0.6105650000000  0.5424330000000  0.4790570000000 1.0
C      1  0.4868780000000  0.5203280000000  0.5006030000000 1.0
C      1  0.4951660000000  0.5616060000000  0.5034520000000 1.0
C      1  0.5043650000000  0.6153630000000  0.4970600000000 1.0
END
