TITL C-2782235-7892-919 -0.000530076133899098 125000 -867.773072440677 0 0 146 (C1) n - 1
REM
REM in /home/nfs/bkarasulu/CARBON/AIRSS/Generating-Clusters/REBO/Higher-Symm/SD-CG/HFTN-CG
REM
REM
REM
REM
REM
REM ./C.cell (12c818d87b63d06a65506943cc24bca4)
REM
REM compiler GCC version 9.2.1 20190827 (Red Hat 9.2.1-1)
REM options -cpp -mtune=generic -march=x86-64 -g -O0 -fpre-include=/usr/include/finclude/math-vector-fortran.h
REM seed -114510128 -1867260837 1770784274 -1291990398 -1941677511 -291235602 796297173 449147463 611514279 1650961231 -927331697 1669045779 -107554991 380187441 1022344770 2021310680 1414888603 -2091473890 -1532860433 1532294216 -1616857164 1733882565 2138348062 1005293251 -1116459377 71834911 1644257511 -1133135342 901396012 -2053194597 -826632143 1107270062 -1834328170
REM
CELL 1.54180   50.00000   50.00000   50.00000   90.00000   90.00000   90.00000
LATT -1
SFAC C  
C      1  0.4334650000000  0.5157260000000  0.4782060000000 1.0
C      1  0.4290670000000  0.4714080000000  0.5072760000000 1.0
C      1  0.4322860000000  0.5176010000000  0.5285520000000 1.0
C      1  0.5674050000000  0.5161560000000  0.5250750000000 1.0
C      1  0.5682590000000  0.4700530000000  0.5013940000000 1.0
C      1  0.5651490000000  0.5124400000000  0.4740810000000 1.0
C      1  0.5379890000000  0.6046560000000  0.5001850000000 1.0
C      1  0.5387320000000  0.4485530000000  0.4084340000000 1.0
C      1  0.5270780000000  0.4489240000000  0.5888240000000 1.0
C      1  0.4645200000000  0.6063610000000  0.4979630000000 1.0
C      1  0.4680370000000  0.4486980000000  0.5848170000000 1.0
C      1  0.4647870000000  0.4481680000000  0.4068390000000 1.0
C      1  0.4184870000000  0.5424900000000  0.4749480000000 1.0
C      1  0.4223550000000  0.4517980000000  0.4841330000000 1.0
C      1  0.4152500000000  0.5139700000000  0.5540350000000 1.0
C      1  0.5844240000000  0.5422930000000  0.5240770000000 1.0
C      1  0.5861440000000  0.4574010000000  0.5232530000000 1.0
C      1  0.5817090000000  0.5018220000000  0.4503730000000 1.0
C      1  0.5544520000000  0.4962890000000  0.5838030000000 1.0
C      1  0.5622650000000  0.5789290000000  0.4603670000000 1.0
C      1  0.5664180000000  0.4246070000000  0.4517970000000 1.0
C      1  0.4364970000000  0.4957520000000  0.4134520000000 1.0
C      1  0.4391880000000  0.5847000000000  0.5398960000000 1.0
C      1  0.4466410000000  0.4286870000000  0.5365150000000 1.0
C      1  0.5304290000000  0.4163720000000  0.5405050000000 1.0
C      1  0.5273930000000  0.5816660000000  0.5468880000000 1.0
C      1  0.5269190000000  0.5018930000000  0.4064950000000 1.0
C      1  0.4744370000000  0.4159750000000  0.4484500000000 1.0
C      1  0.4746100000000  0.5795750000000  0.4518730000000 1.0
C      1  0.4706990000000  0.5090980000000  0.5900640000000 1.0
C      1  0.5932010000000  0.5484580000000  0.4987680000000 1.0
C      1  0.5922390000000  0.4768620000000  0.4558340000000 1.0
C      1  0.5946970000000  0.4756340000000  0.5420700000000 1.0
C      1  0.4092420000000  0.5522410000000  0.4991610000000 1.0
C      1  0.4007820000000  0.4898490000000  0.5512080000000 1.0
C      1  0.4175030000000  0.4680340000000  0.4608180000000 1.0
C      1  0.5245030000000  0.5025440000000  0.5755340000000 1.0
C      1  0.5324840000000  0.5774630000000  0.4570690000000 1.0
C      1  0.5362790000000  0.4217910000000  0.4491980000000 1.0
C      1  0.4668650000000  0.4956590000000  0.4108100000000 1.0
C      1  0.4688730000000  0.5839930000000  0.5446160000000 1.0
C      1  0.4778300000000  0.4313020000000  0.5308230000000 1.0
C      1  0.5601950000000  0.4454580000000  0.4267470000000 1.0
C      1  0.5523710000000  0.4626130000000  0.5886470000000 1.0
C      1  0.5601830000000  0.5896080000000  0.4904120000000 1.0
C      1  0.4452210000000  0.4400020000000  0.5688680000000 1.0
C      1  0.4428630000000  0.4638840000000  0.4141860000000 1.0
C      1  0.4417860000000  0.5931490000000  0.5089520000000 1.0
C      1  0.5704900000000  0.5425370000000  0.4743130000000 1.0
C      1  0.5733670000000  0.4560210000000  0.4750100000000 1.0
C      1  0.5749950000000  0.5014540000000  0.5505180000000 1.0
C      1  0.4289400000000  0.5483770000000  0.5267090000000 1.0
C      1  0.4120930000000  0.4706310000000  0.5354970000000 1.0
C      1  0.4296140000000  0.4990310000000  0.4525350000000 1.0
C      1  0.4627080000000  0.5232530000000  0.4801300000000 1.0
C      1  0.4587690000000  0.4646970000000  0.4944660000000 1.0
C      1  0.4600080000000  0.5091870000000  0.5346210000000 1.0
C      1  0.5385290000000  0.5229580000000  0.5255400000000 1.0
C      1  0.5403480000000  0.4650840000000  0.5092580000000 1.0
C      1  0.5362840000000  0.5062200000000  0.4688640000000 1.0
C      1  0.4830000000000  0.5110580000000  0.3952800000000 1.0
C      1  0.4916810000000  0.4074940000000  0.5378610000000 1.0
C      1  0.4847010000000  0.5888150000000  0.5662420000000 1.0
C      1  0.5096350000000  0.5114900000000  0.5982870000000 1.0
C      1  0.5219450000000  0.3989980000000  0.4531010000000 1.0
C      1  0.5156700000000  0.5838580000000  0.4367950000000 1.0
C      1  0.5613240000000  0.4160250000000  0.5337850000000 1.0
C      1  0.5540300000000  0.5725840000000  0.5490320000000 1.0
C      1  0.5538070000000  0.5100160000000  0.4104680000000 1.0
C      1  0.4481870000000  0.4189400000000  0.4583700000000 1.0
C      1  0.4472510000000  0.5723390000000  0.4483280000000 1.0
C      1  0.4420590000000  0.5202870000000  0.5939720000000 1.0
C      1  0.5215230000000  0.4741750000000  0.4043570000000 1.0
C      1  0.5212010000000  0.4266590000000  0.5682250000000 1.0
C      1  0.5205580000000  0.5977610000000  0.5248100000000 1.0
C      1  0.4753370000000  0.4782460000000  0.5947840000000 1.0
C      1  0.4815710000000  0.4287720000000  0.4244660000000 1.0
C      1  0.4813650000000  0.5959490000000  0.4741730000000 1.0
C      1  0.5033660000000  0.4684670000000  0.5918550000000 1.0
C      1  0.5105780000000  0.5931410000000  0.4865230000000 1.0
C      1  0.5112650000000  0.4408860000000  0.4239210000000 1.0
C      1  0.4922630000000  0.4648700000000  0.4115920000000 1.0
C      1  0.4908370000000  0.5945670000000  0.5129820000000 1.0
C      1  0.4932270000000  0.4353830000000  0.5722340000000 1.0
C      1  0.4517240000000  0.4155760000000  0.5055330000000 1.0
C      1  0.4440150000000  0.5551870000000  0.5566270000000 1.0
C      1  0.4417280000000  0.5236860000000  0.4322450000000 1.0
C      1  0.5550800000000  0.4280560000000  0.4839390000000 1.0
C      1  0.5576420000000  0.5494460000000  0.4435850000000 1.0
C      1  0.5554900000000  0.5266160000000  0.5684080000000 1.0
C      1  0.5149780000000  0.5228800000000  0.4513150000000 1.0
C      1  0.5249390000000  0.4370050000000  0.5150990000000 1.0
C      1  0.5193590000000  0.5254260000000  0.5514020000000 1.0
C      1  0.4776430000000  0.5176250000000  0.5602600000000 1.0
C      1  0.4816460000000  0.4412470000000  0.4999870000000 1.0
C      1  0.4838550000000  0.5303650000000  0.4566420000000 1.0
C      1  0.4845380000000  0.4085580000000  0.4986670000000 1.0
C      1  0.4767030000000  0.5498470000000  0.5645910000000 1.0
C      1  0.4738780000000  0.5334240000000  0.4269280000000 1.0
C      1  0.5230590000000  0.4167700000000  0.4887570000000 1.0
C      1  0.5258080000000  0.5455870000000  0.4326770000000 1.0
C      1  0.5266760000000  0.5420870000000  0.5791450000000 1.0
C      1  0.4823330000000  0.4980590000000  0.4829610000000 1.0
C      1  0.4826170000000  0.4795260000000  0.5111730000000 1.0
C      1  0.4825030000000  0.5137750000000  0.5134370000000 1.0
C      1  0.5176050000000  0.4979960000000  0.5226260000000 1.0
C      1  0.5180420000000  0.4801320000000  0.4935440000000 1.0
C      1  0.5170830000000  0.5143180000000  0.4929060000000 1.0
C      1  0.5045720000000  0.4606750000000  0.5261750000000 1.0
C      1  0.5015040000000  0.5374750000000  0.5248010000000 1.0
C      1  0.4997910000000  0.4938520000000  0.4582200000000 1.0
C      1  0.4994810000000  0.4592590000000  0.4781270000000 1.0
C      1  0.4996320000000  0.5380300000000  0.4848660000000 1.0
C      1  0.4951410000000  0.4940860000000  0.5458680000000 1.0
C      1  0.4829680000000  0.5651650000000  0.5233120000000 1.0
C      1  0.4814220000000  0.4827330000000  0.4353120000000 1.0
C      1  0.4835860000000  0.4559280000000  0.5488120000000 1.0
C      1  0.5184750000000  0.5631370000000  0.4812850000000 1.0
C      1  0.5149230000000  0.4763140000000  0.5623560000000 1.0
C      1  0.5189260000000  0.4475550000000  0.4542250000000 1.0
C      1  0.4942110000000  0.5602160000000  0.4321960000000 1.0
C      1  0.4959320000000  0.4066610000000  0.4689490000000 1.0
C      1  0.4944210000000  0.5365830000000  0.5906510000000 1.0
C      1  0.5072120000000  0.5659030000000  0.5668350000000 1.0
C      1  0.5123670000000  0.3994880000000  0.5165180000000 1.0
C      1  0.5050410000000  0.5269970000000  0.4128800000000 1.0
C      1  0.4699720000000  0.4662820000000  0.4624110000000 1.0
C      1  0.4635430000000  0.4797890000000  0.5462730000000 1.0
C      1  0.4711420000000  0.5485020000000  0.4977910000000 1.0
C      1  0.5352770000000  0.4655440000000  0.5409660000000 1.0
C      1  0.5296430000000  0.4783130000000  0.4556400000000 1.0
C      1  0.5298180000000  0.5484250000000  0.5088860000000 1.0
C      1  0.4463550000000  0.5640040000000  0.5066170000000 1.0
C      1  0.4442760000000  0.4712850000000  0.4441070000000 1.0
C      1  0.4393270000000  0.4602400000000  0.5442750000000 1.0
C      1  0.5556300000000  0.5606680000000  0.4952920000000 1.0
C      1  0.5586800000000  0.4734380000000  0.5586550000000 1.0
C      1  0.5555740000000  0.4628910000000  0.4501150000000 1.0
C      1  0.4373910000000  0.4271160000000  0.4833980000000 1.0
C      1  0.4284530000000  0.5315730000000  0.5726490000000 1.0
C      1  0.4308240000000  0.5493380000000  0.4492140000000 1.0
C      1  0.5712560000000  0.4321130000000  0.5136230000000 1.0
C      1  0.5696280000000  0.5209170000000  0.4311820000000 1.0
C      1  0.5682540000000  0.5481820000000  0.5489940000000 1.0
C      1  0.5727640000000  0.4996970000000  0.5001180000000 1.0
C      1  0.4250250000000  0.5020600000000  0.5037370000000 1.0
END
