TITL C-2782237-5345-209 0.00329037201929083 125000 -1033.38080081109 0 0 166 (C1) n - 1
REM
REM in /home/nfs/bkarasulu/CARBON/AIRSS/Generating-Clusters/REBO/Higher-Symm/SD-CG/HFTN-CG
REM
REM
REM
REM
REM
REM ./C.cell (12c818d87b63d06a65506943cc24bca4)
REM
REM compiler GCC version 9.2.1 20190827 (Red Hat 9.2.1-1)
REM options -cpp -mtune=generic -march=x86-64 -g -O0 -fpre-include=/usr/include/finclude/math-vector-fortran.h
REM seed 2040095513 775775562 -219530754 -1546089674 222567232 -846474020 -1106738392 1321580320 -411690323 1858219262 1827873478 -970718634 -506492313 -10137645 -1580181778 -1585697816 -1051741579 -2025567791 -167636641 -1642754738 -1716887787 185522873 -185522958 1766490316 -1163711176 1846081319 -1496756167 -1786054356 -1937130917 1754527789 -1394924273 889468977 -1617034464
REM
CELL 1.54180   50.00000   50.00000   50.00000   90.00000   90.00000   90.00000
LATT -1
SFAC C  
C      1  0.4889910000000  0.5117400000000  0.5327760000000 1.0
C      1  0.5332300000000  0.4893270000000  0.5095970000000 1.0
C      1  0.5121830000000  0.5332810000000  0.4888820000000 1.0
C      1  0.5108410000000  0.5112990000000  0.4644110000000 1.0
C      1  0.4895110000000  0.4907970000000  0.4663180000000 1.0
C      1  0.5095680000000  0.4916140000000  0.5316120000000 1.0
C      1  0.4660940000000  0.4895620000000  0.4890110000000 1.0
C      1  0.5338110000000  0.5085350000000  0.4875580000000 1.0
C      1  0.4658330000000  0.5101280000000  0.5100670000000 1.0
C      1  0.4895610000000  0.5327340000000  0.5080830000000 1.0
C      1  0.5097620000000  0.4672530000000  0.5106000000000 1.0
C      1  0.4900080000000  0.4670950000000  0.4892790000000 1.0
C      1  0.4581760000000  0.5653500000000  0.4140460000000 1.0
C      1  0.4183710000000  0.4658700000000  0.5586960000000 1.0
C      1  0.5643760000000  0.4254010000000  0.4665300000000 1.0
C      1  0.5429200000000  0.5631290000000  0.5850910000000 1.0
C      1  0.4604960000000  0.4451730000000  0.5756530000000 1.0
C      1  0.5438230000000  0.4444160000000  0.4240900000000 1.0
C      1  0.5844040000000  0.4655760000000  0.4436730000000 1.0
C      1  0.4216910000000  0.5420610000000  0.4403220000000 1.0
C      1  0.5834220000000  0.5405750000000  0.5646880000000 1.0
C      1  0.4343620000000  0.4233610000000  0.5371340000000 1.0
C      1  0.5593070000000  0.5784120000000  0.5414080000000 1.0
C      1  0.4436520000000  0.5828290000000  0.4581810000000 1.0
C      1  0.4788210000000  0.4052200000000  0.5489810000000 1.0
C      1  0.5508880000000  0.4948140000000  0.4122880000000 1.0
C      1  0.4150120000000  0.5530170000000  0.4927710000000 1.0
C      1  0.5212220000000  0.4063410000000  0.4496090000000 1.0
C      1  0.4928910000000  0.5926070000000  0.4397670000000 1.0
C      1  0.5079420000000  0.5891080000000  0.5545220000000 1.0
C      1  0.4513580000000  0.4942610000000  0.5919430000000 1.0
C      1  0.5563620000000  0.5181780000000  0.6016790000000 1.0
C      1  0.4474520000000  0.5187460000000  0.4021420000000 1.0
C      1  0.5956600000000  0.5515090000000  0.5176210000000 1.0
C      1  0.3960130000000  0.4505720000000  0.5169400000000 1.0
C      1  0.6020070000000  0.4514300000000  0.4888830000000 1.0
C      1  0.4508490000000  0.4382520000000  0.4953360000000 1.0
C      1  0.4913300000000  0.4524070000000  0.4384670000000 1.0
C      1  0.4403910000000  0.4953530000000  0.4489140000000 1.0
C      1  0.5416060000000  0.4444850000000  0.5026260000000 1.0
C      1  0.4542640000000  0.5493730000000  0.4993720000000 1.0
C      1  0.5523550000000  0.5523620000000  0.5021280000000 1.0
C      1  0.5074600000000  0.4533180000000  0.5581150000000 1.0
C      1  0.5041320000000  0.5494470000000  0.5566400000000 1.0
C      1  0.4965720000000  0.5499490000000  0.4378710000000 1.0
C      1  0.5601040000000  0.4940550000000  0.5492750000000 1.0
C      1  0.4516510000000  0.4983320000000  0.5455420000000 1.0
C      1  0.5506960000000  0.4987460000000  0.4526490000000 1.0
C      1  0.5964280000000  0.4665070000000  0.5611270000000 1.0
C      1  0.5372330000000  0.5769970000000  0.4617520000000 1.0
C      1  0.4692240000000  0.5457420000000  0.5750850000000 1.0
C      1  0.4251450000000  0.4602800000000  0.4600760000000 1.0
C      1  0.5708840000000  0.5329720000000  0.4569880000000 1.0
C      1  0.4286070000000  0.5305910000000  0.5477700000000 1.0
C      1  0.4554600000000  0.5735630000000  0.5308250000000 1.0
C      1  0.5426860000000  0.4248920000000  0.5372900000000 1.0
C      1  0.4544310000000  0.4187930000000  0.4547700000000 1.0
C      1  0.5330660000000  0.5460390000000  0.4231010000000 1.0
C      1  0.4570880000000  0.4560220000000  0.4181490000000 1.0
C      1  0.5473000000000  0.4569490000000  0.5795010000000 1.0
C      1  0.5365780000000  0.4522330000000  0.4768220000000 1.0
C      1  0.4711540000000  0.5461080000000  0.4465940000000 1.0
C      1  0.4625700000000  0.4739340000000  0.5412400000000 1.0
C      1  0.4596830000000  0.4496780000000  0.5209810000000 1.0
C      1  0.5507910000000  0.5420240000000  0.5271750000000 1.0
C      1  0.4556400000000  0.5408710000000  0.4738090000000 1.0
C      1  0.5304910000000  0.5456040000000  0.5513650000000 1.0
C      1  0.4836970000000  0.4486170000000  0.5433040000000 1.0
C      1  0.5159440000000  0.4497440000000  0.4521520000000 1.0
C      1  0.5370110000000  0.4753610000000  0.4549060000000 1.0
C      1  0.4533860000000  0.5195030000000  0.4494380000000 1.0
C      1  0.5510800000000  0.5205800000000  0.5525160000000 1.0
C      1  0.5795870000000  0.5746170000000  0.5217720000000 1.0
C      1  0.5224870000000  0.5826300000000  0.5814860000000 1.0
C      1  0.5803690000000  0.5226730000000  0.5869300000000 1.0
C      1  0.4255040000000  0.5797590000000  0.4799190000000 1.0
C      1  0.5813040000000  0.4315130000000  0.4897530000000 1.0
C      1  0.4109910000000  0.4266920000000  0.5209920000000 1.0
C      1  0.4765220000000  0.5871660000000  0.4140070000000 1.0
C      1  0.5268810000000  0.4213700000000  0.4261760000000 1.0
C      1  0.4766730000000  0.4217960000000  0.5721170000000 1.0
C      1  0.4247760000000  0.5227210000000  0.4191140000000 1.0
C      1  0.5792700000000  0.4856030000000  0.4240630000000 1.0
C      1  0.4242150000000  0.4866640000000  0.5768520000000 1.0
C      1  0.4051960000000  0.5070760000000  0.4721610000000 1.0
C      1  0.4692640000000  0.4033720000000  0.5018530000000 1.0
C      1  0.5055220000000  0.4731020000000  0.4061980000000 1.0
C      1  0.5985100000000  0.5046000000000  0.5297150000000 1.0
C      1  0.4001810000000  0.4970210000000  0.5255260000000 1.0
C      1  0.6010270000000  0.4974490000000  0.4766610000000 1.0
C      1  0.5279970000000  0.4023450000000  0.4959160000000 1.0
C      1  0.4768690000000  0.5989690000000  0.4892300000000 1.0
C      1  0.5270580000000  0.5962300000000  0.5088410000000 1.0
C      1  0.4982530000000  0.4746100000000  0.5950080000000 1.0
C      1  0.5100540000000  0.5292480000000  0.5989120000000 1.0
C      1  0.4931780000000  0.5287540000000  0.4011300000000 1.0
C      1  0.4668320000000  0.5400230000000  0.4029650000000 1.0
C      1  0.4005480000000  0.4709080000000  0.5367530000000 1.0
C      1  0.5401330000000  0.4092440000000  0.4711530000000 1.0
C      1  0.5367950000000  0.5387520000000  0.5989330000000 1.0
C      1  0.4707860000000  0.4689660000000  0.5888180000000 1.0
C      1  0.5327840000000  0.4686530000000  0.4126110000000 1.0
C      1  0.6001670000000  0.4707220000000  0.4673000000000 1.0
C      1  0.4120230000000  0.5338250000000  0.4664680000000 1.0
C      1  0.5950800000000  0.5317770000000  0.5391550000000 1.0
C      1  0.4580980000000  0.4081660000000  0.5285890000000 1.0
C      1  0.5339020000000  0.5898150000000  0.5351300000000 1.0
C      1  0.4694280000000  0.5942570000000  0.4629430000000 1.0
C      1  0.5266250000000  0.6012240000000  0.4787640000000 1.0
C      1  0.4876000000000  0.5448400000000  0.6008670000000 1.0
C      1  0.6074670000000  0.4777110000000  0.5369490000000 1.0
C      1  0.4703000000000  0.5996260000000  0.5189050000000 1.0
C      1  0.5266920000000  0.4001380000000  0.5259530000000 1.0
C      1  0.4713030000000  0.4014230000000  0.4708720000000 1.0
C      1  0.5208100000000  0.5349310000000  0.3968210000000 1.0
C      1  0.4738830000000  0.4719170000000  0.4009920000000 1.0
C      1  0.5302900000000  0.4722090000000  0.5980530000000 1.0
C      1  0.3998730000000  0.4761920000000  0.4712600000000 1.0
C      1  0.5990850000000  0.5259560000000  0.4703080000000 1.0
C      1  0.4003490000000  0.5240590000000  0.5343880000000 1.0
C      1  0.6051600000000  0.5434980000000  0.4920060000000 1.0
C      1  0.4881830000000  0.6090830000000  0.5376870000000 1.0
C      1  0.5450470000000  0.4935490000000  0.6099360000000 1.0
C      1  0.3934360000000  0.5434130000000  0.5157760000000 1.0
C      1  0.6120270000000  0.4606340000000  0.5142270000000 1.0
C      1  0.3872440000000  0.4611410000000  0.4918830000000 1.0
C      1  0.5052690000000  0.6119590000000  0.4642570000000 1.0
C      1  0.4962040000000  0.3958130000000  0.4580670000000 1.0
C      1  0.5033250000000  0.3939330000000  0.5403130000000 1.0
C      1  0.4592200000000  0.4948160000000  0.3921190000000 1.0
C      1  0.5380440000000  0.5142170000000  0.3889500000000 1.0
C      1  0.4492080000000  0.5027290000000  0.6187390000000 1.0
C      1  0.5536080000000  0.5233240000000  0.4311850000000 1.0
C      1  0.4317570000000  0.5521490000000  0.5227720000000 1.0
C      1  0.5323260000000  0.4397150000000  0.5622940000000 1.0
C      1  0.4500000000000  0.5202390000000  0.5699790000000 1.0
C      1  0.5690870000000  0.4725760000000  0.5671480000000 1.0
C      1  0.4368250000000  0.4704340000000  0.4317770000000 1.0
C      1  0.5593630000000  0.5573050000000  0.4723410000000 1.0
C      1  0.4366450000000  0.4347160000000  0.4708390000000 1.0
C      1  0.5660190000000  0.4317980000000  0.5144950000000 1.0
C      1  0.4682820000000  0.4328500000000  0.4335070000000 1.0
C      1  0.5202450000000  0.5727040000000  0.4374960000000 1.0
C      1  0.4789360000000  0.5708190000000  0.5541990000000 1.0
C      1  0.4888690000000  0.5220380000000  0.5608960000000 1.0
C      1  0.5602830000000  0.4870060000000  0.5215440000000 1.0
C      1  0.5232710000000  0.5623380000000  0.4880450000000 1.0
C      1  0.5116010000000  0.5221540000000  0.4360610000000 1.0
C      1  0.4837010000000  0.4802650000000  0.4388340000000 1.0
C      1  0.5132640000000  0.4816160000000  0.5589480000000 1.0
C      1  0.4379710000000  0.4849380000000  0.4791060000000 1.0
C      1  0.5635340000000  0.5106510000000  0.4800470000000 1.0
C      1  0.4365870000000  0.5125500000000  0.5200590000000 1.0
C      1  0.4811710000000  0.5615350000000  0.5134370000000 1.0
C      1  0.5159100000000  0.4380130000000  0.5196480000000 1.0
C      1  0.4801300000000  0.4391480000000  0.4883120000000 1.0
C      1  0.5055440000000  0.5036200000000  0.5815960000000 1.0
C      1  0.4945770000000  0.5017440000000  0.4176360000000 1.0
C      1  0.5825450000000  0.5001320000000  0.5030040000000 1.0
C      1  0.5001020000000  0.5805730000000  0.5002730000000 1.0
C      1  0.4180120000000  0.4972270000000  0.4999630000000 1.0
C      1  0.4991770000000  0.4170100000000  0.5023290000000 1.0
C      1  0.5639030000000  0.5626700000000  0.5651750000000 1.0
C      1  0.4381920000000  0.5657430000000  0.4355810000000 1.0
C      1  0.5658700000000  0.4435820000000  0.4435070000000 1.0
C      1  0.4368620000000  0.4437650000000  0.5584970000000 1.0
END
