TITL C-2782240-8521-1306 -0.00309548210951358 125000 -148.193158970978 0 0 31 (C1) n - 1
REM
REM in /home/nfs/bkarasulu/CARBON/AIRSS/Generating-Clusters/REBO/Higher-Symm/SD-CG/HFTN-CG
REM
REM
REM
REM
REM
REM ./C.cell (12c818d87b63d06a65506943cc24bca4)
REM
REM compiler GCC version 9.2.1 20190827 (Red Hat 9.2.1-1)
REM options -cpp -mtune=generic -march=x86-64 -g -O0 -fpre-include=/usr/include/finclude/math-vector-fortran.h
REM seed 291080654 785343084 -202994597 343772089 1330457492 -1329359469 -97950977 -205705972 -6325291 728669889 1127241209 1594297893 -1320000385 -1983677539 1800021418 -1807140091 1844877560 1495463856 -1599369004 121565625 -1461283934 -1059215606 1860008383 -106965393 -1820538893 1978261825 -1790605464 470076471 -59756343 -1632292594 -496197366 -1307953882 417046855
REM
CELL 1.54180   50.00000   50.00000   50.00000   90.00000   90.00000   90.00000
LATT -1
SFAC C  
C      1  0.4835930000000  0.5329500000000  0.4736190000000 1.0
C      1  0.5204800000000  0.4629710000000  0.4785980000000 1.0
C      1  0.5172050000000  0.5304680000000  0.5279390000000 1.0
C      1  0.4770900000000  0.4621330000000  0.5253510000000 1.0
C      1  0.5399300000000  0.4861620000000  0.4741200000000 1.0
C      1  0.4624120000000  0.5105230000000  0.4741470000000 1.0
C      1  0.5395520000000  0.5094490000000  0.5276120000000 1.0
C      1  0.4567170000000  0.4844030000000  0.5285140000000 1.0
C      1  0.5295690000000  0.4345500000000  0.4948820000000 1.0
C      1  0.4751790000000  0.5624550000000  0.4882900000000 1.0
C      1  0.4741790000000  0.4310500000000  0.5121220000000 1.0
C      1  0.5254450000000  0.5612180000000  0.5159380000000 1.0
C      1  0.4301550000000  0.5207130000000  0.4779540000000 1.0
C      1  0.5738890000000  0.4849230000000  0.4756290000000 1.0
C      1  0.4232950000000  0.4849080000000  0.5228790000000 1.0
C      1  0.5717830000000  0.5195360000000  0.5234330000000 1.0
C      1  0.4721370000000  0.5098940000000  0.5439250000000 1.0
C      1  0.5327820000000  0.4819600000000  0.5412550000000 1.0
C      1  0.5257920000000  0.5095950000000  0.4556520000000 1.0
C      1  0.4669760000000  0.4838690000000  0.4573410000000 1.0
C      1  0.5074660000000  0.4737530000000  0.5353770000000 1.0
C      1  0.4940780000000  0.5285480000000  0.5501120000000 1.0
C      1  0.5069650000000  0.5318130000000  0.4519160000000 1.0
C      1  0.4919820000000  0.4694420000000  0.4614320000000 1.0
C      1  0.4443910000000  0.5005750000000  0.5012530000000 1.0
C      1  0.5560360000000  0.5013880000000  0.4994270000000 1.0
C      1  0.5002670000000  0.5435820000000  0.5013980000000 1.0
C      1  0.5008000000000  0.4504690000000  0.5035820000000 1.0
C      1  0.4937440000000  0.4983100000000  0.5241110000000 1.0
C      1  0.5017680000000  0.4974110000000  0.4714260000000 1.0
C      1  0.4968810000000  0.5039760000000  0.4976490000000 1.0
END
