TITL C-2782234-8014-1302 -2.09586178007058e-08 125000 -58.1311935959945 0 0 10 (D10) n - 1
REM
REM in /home/nfs/bkarasulu/CARBON/AIRSS/Generating-Clusters/REBO/Higher-Symm/SD-CG/HFTN-CG
REM
REM
REM
REM
REM
REM ./C.cell (12c818d87b63d06a65506943cc24bca4)
REM
REM compiler GCC version 9.2.1 20190827 (Red Hat 9.2.1-1)
REM options -cpp -mtune=generic -march=x86-64 -g -O0 -fpre-include=/usr/include/finclude/math-vector-fortran.h
REM seed -1009733712 -342264642 47233402 1771143719 -1785936731 -24268293 704650729 -1461140982 789987189 22046974 -1920403199 -1907926735 976640208 -894895490 -1470405798 1613746208 910179579 1138646109 1823186444 -877570123 -104779342 1730698446 -410572706 -672610195 1655819223 1427363618 496901524 1485191703 -429288782 -1898308580 57275723 -1783786150 642669184
REM
CELL 1.54180   50.00000   50.00000   50.00000   90.00000   90.00000   90.00000
LATT -1
SFAC C  
C      1  0.4583860000000  0.5135210000000  0.5000000000000 1.0
C      1  0.4742810000000  0.4646010000000  0.5000000000000 1.0
C      1  0.5257190000000  0.4646010000000  0.5000000000000 1.0
C      1  0.5416140000000  0.5135210000000  0.5000000000000 1.0
C      1  0.5000000000000  0.5437560000000  0.5000000000000 1.0
C      1  0.4583860000000  0.4864790000000  0.5000000000000 1.0
C      1  0.4742810000000  0.5353990000000  0.5000000000000 1.0
C      1  0.5257190000000  0.5353990000000  0.5000000000000 1.0
C      1  0.5416140000000  0.4864790000000  0.5000000000000 1.0
C      1  0.5000000000000  0.4562440000000  0.5000000000000 1.0
END
