TITL C-2782229-3092-751 -3.42866802541181e-07 125000 -137.568645260448 0 0 24 (Oh) n - 1
REM
REM in /home/nfs/bkarasulu/CARBON/AIRSS/Generating-Clusters/REBO/Higher-Symm/SD-CG/HFTN-CG
REM
REM
REM
REM
REM
REM ./C.cell (12c818d87b63d06a65506943cc24bca4)
REM
REM compiler GCC version 9.2.1 20190827 (Red Hat 9.2.1-1)
REM options -cpp -mtune=generic -march=x86-64 -g -O0 -fpre-include=/usr/include/finclude/math-vector-fortran.h
REM seed -320724954 -1791109094 1163641331 -1428765230 521535826 1718986189 1357427479 911441560 -432712712 -249479307 -1224998015 712401661 -319652320 723243160 1556111862 1938718708 -1750013139 -381001500 -2008315288 2029858608 -1321761595 2066110034 758357952 453184771 -135754571 -1425951751 -1527720163 1648586538 -1459869749 -2080568650 -1542767021 -856690965 674223125
REM
CELL 1.54180   50.00000   50.00000   50.00000   90.00000   90.00000   90.00000
LATT -1
SFAC C  
C      1  0.5138540000000  0.5368150000000  0.4631880000000 1.0
C      1  0.5368130000000  0.4631850000000  0.5138520000000 1.0
C      1  0.4631850000000  0.5138520000000  0.5368140000000 1.0
C      1  0.5138500000000  0.4631840000000  0.5368130000000 1.0
C      1  0.4861480000000  0.5368130000000  0.5368150000000 1.0
C      1  0.4861480000000  0.4631880000000  0.4631840000000 1.0
C      1  0.5368150000000  0.5368140000000  0.4861500000000 1.0
C      1  0.4631850000000  0.4631870000000  0.4861460000000 1.0
C      1  0.4631860000000  0.5368140000000  0.5138530000000 1.0
C      1  0.4631860000000  0.4861500000000  0.4631850000000 1.0
C      1  0.5368150000000  0.5138530000000  0.4631870000000 1.0
C      1  0.5368130000000  0.4861460000000  0.5368140000000 1.0
C      1  0.4861500000000  0.5368160000000  0.4631870000000 1.0
C      1  0.4631850000000  0.4631860000000  0.5138500000000 1.0
C      1  0.5368140000000  0.5138500000000  0.5368150000000 1.0
C      1  0.4861460000000  0.4631850000000  0.5368120000000 1.0
C      1  0.5138520000000  0.5368120000000  0.5368160000000 1.0
C      1  0.5138520000000  0.4631870000000  0.4631850000000 1.0
C      1  0.4631870000000  0.5368150000000  0.4861480000000 1.0
C      1  0.5368140000000  0.4631860000000  0.4861470000000 1.0
C      1  0.5368150000000  0.5368130000000  0.5138540000000 1.0
C      1  0.5368150000000  0.4861480000000  0.4631860000000 1.0
C      1  0.4631870000000  0.5138540000000  0.4631860000000 1.0
C      1  0.4631850000000  0.4861470000000  0.5368130000000 1.0
END
