TITL C-2782234-8014-351 0.000441265170336552 125000 -1122.15329877752 0 0 190 (C1) n - 1
REM
REM in /home/nfs/bkarasulu/CARBON/AIRSS/Generating-Clusters/REBO/Higher-Symm/SD-CG/HFTN-CG
REM
REM
REM
REM
REM
REM ./C.cell (12c818d87b63d06a65506943cc24bca4)
REM
REM compiler GCC version 9.2.1 20190827 (Red Hat 9.2.1-1)
REM options -cpp -mtune=generic -march=x86-64 -g -O0 -fpre-include=/usr/include/finclude/math-vector-fortran.h
REM seed -2063659478 -894984961 -887814521 -97750879 1056617260 -353814588 -1899126757 54749762 754397773 1261611869 1601653052 1245889475 1930322705 1320982842 -1707016311 770682045 -1735408653 1258015778 128846422 1804345704 -1192534801 157227595 -1600342859 -740555190 -1564338397 -1548269747 736569754 131173453 -2080293892 703636276 -1059022777 1891787231 1403356731
REM
CELL 1.54180   50.00000   50.00000   50.00000   90.00000   90.00000   90.00000
LATT -1
SFAC C  
C      1  0.5171020000000  0.4655260000000  0.4693490000000 1.0
C      1  0.5298370000000  0.4640120000000  0.5160630000000 1.0
C      1  0.4893910000000  0.4591550000000  0.5314090000000 1.0
C      1  0.4670510000000  0.4675040000000  0.4838740000000 1.0
C      1  0.5150270000000  0.5367090000000  0.4644300000000 1.0
C      1  0.5301200000000  0.5351710000000  0.5139980000000 1.0
C      1  0.4810480000000  0.5363240000000  0.5317550000000 1.0
C      1  0.4691130000000  0.5343060000000  0.4883530000000 1.0
C      1  0.5482870000000  0.5455570000000  0.4200670000000 1.0
C      1  0.5751590000000  0.5482760000000  0.5474400000000 1.0
C      1  0.4526680000000  0.5439660000000  0.5790040000000 1.0
C      1  0.4257100000000  0.5510900000000  0.4533960000000 1.0
C      1  0.5462840000000  0.4573160000000  0.4223960000000 1.0
C      1  0.5750620000000  0.4513740000000  0.5469240000000 1.0
C      1  0.4523030000000  0.4556760000000  0.5770440000000 1.0
C      1  0.4221350000000  0.4519330000000  0.4550420000000 1.0
C      1  0.6069300000000  0.4878300000000  0.5311090000000 1.0
C      1  0.4770230000000  0.4780960000000  0.6168820000000 1.0
C      1  0.3913850000000  0.4891400000000  0.4694860000000 1.0
C      1  0.5224480000000  0.4928700000000  0.3882540000000 1.0
C      1  0.6097370000000  0.5172740000000  0.5368380000000 1.0
C      1  0.4768460000000  0.5080480000000  0.6105750000000 1.0
C      1  0.3908740000000  0.5186950000000  0.4650610000000 1.0
C      1  0.5246940000000  0.5226970000000  0.3794430000000 1.0
C      1  0.5234710000000  0.5236130000000  0.4270610000000 1.0
C      1  0.5753670000000  0.5222930000000  0.5170410000000 1.0
C      1  0.4741680000000  0.5201830000000  0.5675470000000 1.0
C      1  0.4296690000000  0.5257840000000  0.4757460000000 1.0
C      1  0.5246870000000  0.4809370000000  0.4332600000000 1.0
C      1  0.5669500000000  0.4762560000000  0.5251890000000 1.0
C      1  0.4767220000000  0.4776300000000  0.5702820000000 1.0
C      1  0.4289530000000  0.4773680000000  0.4769190000000 1.0
C      1  0.5601840000000  0.5903290000000  0.5051840000000 1.0
C      1  0.4924740000000  0.5875130000000  0.5574470000000 1.0
C      1  0.4410080000000  0.5942960000000  0.4927650000000 1.0
C      1  0.5078610000000  0.5909700000000  0.4388570000000 1.0
C      1  0.5582750000000  0.4068970000000  0.5073020000000 1.0
C      1  0.4935490000000  0.4100450000000  0.5623680000000 1.0
C      1  0.4406610000000  0.4091400000000  0.4945040000000 1.0
C      1  0.5076610000000  0.4122570000000  0.4419450000000 1.0
C      1  0.4657790000000  0.4268710000000  0.5656820000000 1.0
C      1  0.4405130000000  0.4266050000000  0.4670240000000 1.0
C      1  0.5344870000000  0.4288760000000  0.4354320000000 1.0
C      1  0.5600490000000  0.4241270000000  0.5349250000000 1.0
C      1  0.4654180000000  0.5722800000000  0.5661930000000 1.0
C      1  0.4419380000000  0.5765780000000  0.4661180000000 1.0
C      1  0.5359720000000  0.5740310000000  0.4341100000000 1.0
C      1  0.5595230000000  0.5728750000000  0.5321260000000 1.0
C      1  0.5963030000000  0.4555450000000  0.4875390000000 1.0
C      1  0.5218280000000  0.4564900000000  0.5977150000000 1.0
C      1  0.4056810000000  0.4579210000000  0.5193360000000 1.0
C      1  0.4820630000000  0.4578920000000  0.4036470000000 1.0
C      1  0.5963740000000  0.5410530000000  0.4835320000000 1.0
C      1  0.5220620000000  0.5418280000000  0.5940790000000 1.0
C      1  0.4028570000000  0.5457480000000  0.5132970000000 1.0
C      1  0.4788280000000  0.5433000000000  0.4052950000000 1.0
C      1  0.4685970000000  0.5113670000000  0.5128800000000 1.0
C      1  0.4882060000000  0.5167840000000  0.4692730000000 1.0
C      1  0.5238110000000  0.5176170000000  0.4872560000000 1.0
C      1  0.5066480000000  0.5173180000000  0.5232370000000 1.0
C      1  0.4714120000000  0.4796710000000  0.5139470000000 1.0
C      1  0.4904120000000  0.4854310000000  0.4756740000000 1.0
C      1  0.5269520000000  0.4872270000000  0.4914780000000 1.0
C      1  0.5084600000000  0.4867600000000  0.5268990000000 1.0
C      1  0.5032800000000  0.5136590000000  0.5559030000000 1.0
C      1  0.4371130000000  0.5176250000000  0.5056060000000 1.0
C      1  0.4952420000000  0.5165640000000  0.4361730000000 1.0
C      1  0.5561800000000  0.5145010000000  0.4918920000000 1.0
C      1  0.5054050000000  0.4828130000000  0.5592740000000 1.0
C      1  0.4389690000000  0.4855560000000  0.5058550000000 1.0
C      1  0.4948400000000  0.4867050000000  0.4437880000000 1.0
C      1  0.5585060000000  0.4830040000000  0.4957350000000 1.0
C      1  0.4163250000000  0.5153280000000  0.4224510000000 1.0
C      1  0.5750200000000  0.5161860000000  0.4181750000000 1.0
C      1  0.5833620000000  0.5145140000000  0.5786030000000 1.0
C      1  0.4254420000000  0.5158820000000  0.5724880000000 1.0
C      1  0.4143580000000  0.4866680000000  0.4237280000000 1.0
C      1  0.5740470000000  0.4853540000000  0.4247810000000 1.0
C      1  0.5853240000000  0.4860090000000  0.5776440000000 1.0
C      1  0.4247020000000  0.4843620000000  0.5775410000000 1.0
C      1  0.5112960000000  0.5718100000000  0.5815280000000 1.0
C      1  0.4172720000000  0.5766050000000  0.5100850000000 1.0
C      1  0.4884940000000  0.5746440000000  0.4155400000000 1.0
C      1  0.5826750000000  0.5723730000000  0.4866480000000 1.0
C      1  0.5132280000000  0.4256120000000  0.5857100000000 1.0
C      1  0.4180690000000  0.4266280000000  0.5131060000000 1.0
C      1  0.4880130000000  0.4278440000000  0.4186370000000 1.0
C      1  0.5830850000000  0.4242080000000  0.4913250000000 1.0
C      1  0.5027570000000  0.5617330000000  0.5247180000000 1.0
C      1  0.4773400000000  0.5637340000000  0.5033040000000 1.0
C      1  0.4939430000000  0.5618200000000  0.4737050000000 1.0
C      1  0.5199210000000  0.5616370000000  0.4951070000000 1.0
C      1  0.5059460000000  0.4337380000000  0.5257720000000 1.0
C      1  0.4710970000000  0.4395870000000  0.5018440000000 1.0
C      1  0.4960520000000  0.4407710000000  0.4784860000000 1.0
C      1  0.5228720000000  0.4370240000000  0.4967130000000 1.0
C      1  0.4373740000000  0.5297450000000  0.4096310000000 1.0
C      1  0.5900670000000  0.5336500000000  0.4356260000000 1.0
C      1  0.5633150000000  0.5291830000000  0.5922050000000 1.0
C      1  0.4108190000000  0.5334200000000  0.5546900000000 1.0
C      1  0.4342530000000  0.4699580000000  0.4117820000000 1.0
C      1  0.5896040000000  0.4729160000000  0.4463220000000 1.0
C      1  0.5666100000000  0.4695410000000  0.5916980000000 1.0
C      1  0.4080610000000  0.4676030000000  0.5605430000000 1.0
C      1  0.5441300000000  0.5791400000000  0.4788320000000 1.0
C      1  0.5223470000000  0.5801230000000  0.5443460000000 1.0
C      1  0.4551490000000  0.5832180000000  0.5202060000000 1.0
C      1  0.4790990000000  0.5824330000000  0.4532890000000 1.0
C      1  0.5457210000000  0.4190740000000  0.4789280000000 1.0
C      1  0.5236630000000  0.4156590000000  0.5486590000000 1.0
C      1  0.4555990000000  0.4183290000000  0.5236510000000 1.0
C      1  0.4791000000000  0.4207080000000  0.4567290000000 1.0
C      1  0.4912860000000  0.4482500000000  0.5732940000000 1.0
C      1  0.4334170000000  0.4482510000000  0.4926700000000 1.0
C      1  0.5085010000000  0.4510400000000  0.4327190000000 1.0
C      1  0.5647380000000  0.4461380000000  0.5091790000000 1.0
C      1  0.4905550000000  0.5491980000000  0.5684100000000 1.0
C      1  0.4351080000000  0.5548890000000  0.4917370000000 1.0
C      1  0.5100080000000  0.5527560000000  0.4282850000000 1.0
C      1  0.5659260000000  0.5509440000000  0.5070330000000 1.0
C      1  0.6069010000000  0.4840930000000  0.4972260000000 1.0
C      1  0.5087870000000  0.4841270000000  0.6125060000000 1.0
C      1  0.3927750000000  0.4845670000000  0.5025630000000 1.0
C      1  0.4911630000000  0.4866160000000  0.3902620000000 1.0
C      1  0.6052010000000  0.5173830000000  0.5043640000000 1.0
C      1  0.5061610000000  0.5182390000000  0.6104800000000 1.0
C      1  0.3919460000000  0.5182350000000  0.4968870000000 1.0
C      1  0.4936290000000  0.5203320000000  0.3860310000000 1.0
C      1  0.4729060000000  0.5967040000000  0.4812150000000 1.0
C      1  0.5168870000000  0.5943190000000  0.4713090000000 1.0
C      1  0.5286680000000  0.5942330000000  0.5164840000000 1.0
C      1  0.4831700000000  0.5962340000000  0.5274790000000 1.0
C      1  0.4736630000000  0.4090030000000  0.4869900000000 1.0
C      1  0.5170760000000  0.4058770000000  0.4724730000000 1.0
C      1  0.5289040000000  0.4015000000000  0.5205970000000 1.0
C      1  0.4851770000000  0.4083390000000  0.5293320000000 1.0
C      1  0.4604160000000  0.4524990000000  0.5438550000000 1.0
C      1  0.4562150000000  0.4554260000000  0.4578590000000 1.0
C      1  0.5428780000000  0.4541950000000  0.4565940000000 1.0
C      1  0.5410460000000  0.4513820000000  0.5424730000000 1.0
C      1  0.4557360000000  0.5474930000000  0.5449390000000 1.0
C      1  0.4591200000000  0.5477590000000  0.4602270000000 1.0
C      1  0.5420570000000  0.5468520000000  0.4537580000000 1.0
C      1  0.5419850000000  0.5452770000000  0.5400980000000 1.0
C      1  0.4586290000000  0.4822550000000  0.3992320000000 1.0
C      1  0.5998940000000  0.4923890000000  0.4650000000000 1.0
C      1  0.5423850000000  0.4822670000000  0.6060560000000 1.0
C      1  0.3945080000000  0.4845370000000  0.5367180000000 1.0
C      1  0.4621790000000  0.5142050000000  0.3975680000000 1.0
C      1  0.5988560000000  0.5207310000000  0.4590630000000 1.0
C      1  0.5391390000000  0.5140290000000  0.6051030000000 1.0
C      1  0.3965360000000  0.5167670000000  0.5307530000000 1.0
C      1  0.5224780000000  0.5390380000000  0.5615370000000 1.0
C      1  0.4350710000000  0.5437490000000  0.5241980000000 1.0
C      1  0.4786320000000  0.5440530000000  0.4392290000000 1.0
C      1  0.5631590000000  0.5402190000000  0.4741070000000 1.0
C      1  0.5231410000000  0.4579690000000  0.5647250000000 1.0
C      1  0.4393920000000  0.4582810000000  0.5247420000000 1.0
C      1  0.4760390000000  0.4612750000000  0.4367760000000 1.0
C      1  0.5640350000000  0.4584900000000  0.4771660000000 1.0
C      1  0.4392840000000  0.4429310000000  0.4201810000000 1.0
C      1  0.5857680000000  0.4445390000000  0.4466840000000 1.0
C      1  0.5617520000000  0.4425660000000  0.5835090000000 1.0
C      1  0.4157060000000  0.4415230000000  0.5595430000000 1.0
C      1  0.4414710000000  0.5569530000000  0.4171610000000 1.0
C      1  0.5808620000000  0.5604240000000  0.4378920000000 1.0
C      1  0.5587630000000  0.5556840000000  0.5831280000000 1.0
C      1  0.4171670000000  0.5599520000000  0.5560630000000 1.0
C      1  0.4053290000000  0.5299040000000  0.4443310000000 1.0
C      1  0.5501330000000  0.5198270000000  0.3976720000000 1.0
C      1  0.5929450000000  0.5290610000000  0.5558980000000 1.0
C      1  0.4485390000000  0.5159340000000  0.5979060000000 1.0
C      1  0.4023510000000  0.4748450000000  0.4473440000000 1.0
C      1  0.5495240000000  0.4834200000000  0.4006590000000 1.0
C      1  0.5952620000000  0.4740620000000  0.5532190000000 1.0
C      1  0.4497710000000  0.4810920000000  0.5996110000000 1.0
C      1  0.4288350000000  0.4245830000000  0.5433390000000 1.0
C      1  0.4578020000000  0.4262050000000  0.4307780000000 1.0
C      1  0.5737700000000  0.4239270000000  0.4601560000000 1.0
C      1  0.5440230000000  0.4250480000000  0.5732280000000 1.0
C      1  0.4281320000000  0.5793740000000  0.5405140000000 1.0
C      1  0.4578250000000  0.5758800000000  0.4275220000000 1.0
C      1  0.5695720000000  0.5756750000000  0.4570050000000 1.0
C      1  0.5421430000000  0.5725650000000  0.5704910000000 1.0
C      1  0.4529890000000  0.4971680000000  0.5632220000000 1.0
C      1  0.5701110000000  0.5023000000000  0.5368850000000 1.0
C      1  0.4286210000000  0.5013480000000  0.4617320000000 1.0
C      1  0.5467550000000  0.5040850000000  0.4342350000000 1.0
C      1  0.5004570000000  0.6000070000000  0.4996950000000 1.0
C      1  0.5024830000000  0.3998860000000  0.5010820000000 1.0
END
