TITL C-2782227-3064-1260 0.00612943620773815 125000 -654.549497347367 0 0 113 (C1) n - 1
REM
REM in /home/nfs/bkarasulu/CARBON/AIRSS/Generating-Clusters/REBO/Higher-Symm/SD-CG/HFTN-CG
REM
REM
REM
REM
REM
REM ./C.cell (12c818d87b63d06a65506943cc24bca4)
REM
REM compiler GCC version 9.2.1 20190827 (Red Hat 9.2.1-1)
REM options -cpp -mtune=generic -march=x86-64 -g -O0 -fpre-include=/usr/include/finclude/math-vector-fortran.h
REM seed -1235953807 -918779164 -1927606719 -76820240 -1093629484 292745118 -376160228 -1388992305 -134658008 784608469 2030861347 -990768549 -630808649 -60091672 1731376712 -656442758 1828887302 158642768 193147298 397991194 -1015112122 -387750390 5210054 -2026553921 -831168640 451333431 -287539157 -1718362642 -259303631 -119457340 1247451866 1241167629 -680200322
REM
CELL 1.54180   50.00000   50.00000   50.00000   90.00000   90.00000   90.00000
LATT -1
SFAC C  
C      1  0.4975270000000  0.4691310000000  0.5416170000000 1.0
C      1  0.4755440000000  0.5123150000000  0.5474940000000 1.0
C      1  0.5249880000000  0.5125440000000  0.5466510000000 1.0
C      1  0.4996870000000  0.4739010000000  0.4552210000000 1.0
C      1  0.4716510000000  0.5167860000000  0.4534500000000 1.0
C      1  0.5299550000000  0.5159890000000  0.4565160000000 1.0
C      1  0.4851790000000  0.5849890000000  0.5184400000000 1.0
C      1  0.5726130000000  0.4676870000000  0.5149390000000 1.0
C      1  0.4323420000000  0.4433930000000  0.5202030000000 1.0
C      1  0.4889900000000  0.5802510000000  0.4841960000000 1.0
C      1  0.5787950000000  0.4711260000000  0.4812180000000 1.0
C      1  0.4351530000000  0.4529940000000  0.4872100000000 1.0
C      1  0.5746430000000  0.5179510000000  0.5237150000000 1.0
C      1  0.4691270000000  0.4205140000000  0.5293810000000 1.0
C      1  0.4494810000000  0.5530660000000  0.5222630000000 1.0
C      1  0.5786090000000  0.5158740000000  0.4739740000000 1.0
C      1  0.4759520000000  0.4266710000000  0.4778600000000 1.0
C      1  0.4434280000000  0.5626710000000  0.4722740000000 1.0
C      1  0.4442450000000  0.4527270000000  0.5494980000000 1.0
C      1  0.4909390000000  0.5676690000000  0.5472880000000 1.0
C      1  0.5570880000000  0.4730110000000  0.5448720000000 1.0
C      1  0.4464160000000  0.4631690000000  0.4567080000000 1.0
C      1  0.4924650000000  0.5683430000000  0.4523670000000 1.0
C      1  0.5648770000000  0.4725510000000  0.4501980000000 1.0
C      1  0.4771770000000  0.4710770000000  0.4880460000000 1.0
C      1  0.4891060000000  0.5405220000000  0.4799420000000 1.0
C      1  0.5462850000000  0.4965890000000  0.4873760000000 1.0
C      1  0.4657680000000  0.4652370000000  0.5182700000000 1.0
C      1  0.4976790000000  0.5421870000000  0.5128150000000 1.0
C      1  0.5366010000000  0.4847200000000  0.5158080000000 1.0
C      1  0.4789920000000  0.5036230000000  0.4835230000000 1.0
C      1  0.5138360000000  0.5192500000000  0.4846160000000 1.0
C      1  0.5141280000000  0.4852910000000  0.4828870000000 1.0
C      1  0.4717740000000  0.4982750000000  0.5167000000000 1.0
C      1  0.5199850000000  0.5210370000000  0.5167340000000 1.0
C      1  0.5059750000000  0.4770730000000  0.5149110000000 1.0
C      1  0.5632580000000  0.5498810000000  0.4567260000000 1.0
C      1  0.5104120000000  0.4165610000000  0.4607360000000 1.0
C      1  0.4240940000000  0.5309900000000  0.4578900000000 1.0
C      1  0.5746250000000  0.5564250000000  0.5431380000000 1.0
C      1  0.5088350000000  0.4229990000000  0.5440340000000 1.0
C      1  0.4150120000000  0.5251260000000  0.5381750000000 1.0
C      1  0.4841140000000  0.5287810000000  0.4095270000000 1.0
C      1  0.5295350000000  0.4972970000000  0.4131400000000 1.0
C      1  0.4841230000000  0.4745120000000  0.4136340000000 1.0
C      1  0.4836490000000  0.5303810000000  0.5821430000000 1.0
C      1  0.5459000000000  0.5048800000000  0.5933340000000 1.0
C      1  0.4797320000000  0.4782720000000  0.5868980000000 1.0
C      1  0.5205870000000  0.4756540000000  0.4298880000000 1.0
C      1  0.4698190000000  0.4955770000000  0.4265940000000 1.0
C      1  0.5083800000000  0.5271650000000  0.4289500000000 1.0
C      1  0.5395890000000  0.4781200000000  0.5896120000000 1.0
C      1  0.4635190000000  0.4932880000000  0.5705170000000 1.0
C      1  0.5073560000000  0.5322240000000  0.5680740000000 1.0
C      1  0.4689370000000  0.5458440000000  0.5484810000000 1.0
C      1  0.5563160000000  0.5043510000000  0.5461610000000 1.0
C      1  0.4751670000000  0.4450710000000  0.5510610000000 1.0
C      1  0.4652560000000  0.5501780000000  0.4493640000000 1.0
C      1  0.5611070000000  0.5045050000000  0.4507990000000 1.0
C      1  0.4751580000000  0.4501320000000  0.4543440000000 1.0
C      1  0.5442600000000  0.4123460000000  0.4807150000000 1.0
C      1  0.4070580000000  0.4961350000000  0.4885300000000 1.0
C      1  0.5622010000000  0.5813720000000  0.4955350000000 1.0
C      1  0.5355860000000  0.4062130000000  0.5040890000000 1.0
C      1  0.3966840000000  0.4878310000000  0.5096890000000 1.0
C      1  0.5583730000000  0.5849030000000  0.5203510000000 1.0
C      1  0.5433040000000  0.4572210000000  0.4382810000000 1.0
C      1  0.4437640000000  0.4876220000000  0.4417960000000 1.0
C      1  0.5157260000000  0.5557660000000  0.4401140000000 1.0
C      1  0.5390940000000  0.4608390000000  0.5663040000000 1.0
C      1  0.4356010000000  0.4816740000000  0.5591620000000 1.0
C      1  0.5220800000000  0.5607350000000  0.5593400000000 1.0
C      1  0.5375890000000  0.5656090000000  0.5313390000000 1.0
C      1  0.5226300000000  0.4312150000000  0.5171480000000 1.0
C      1  0.4124670000000  0.4929810000000  0.5368840000000 1.0
C      1  0.5462220000000  0.5578840000000  0.4819330000000 1.0
C      1  0.5307820000000  0.4413370000000  0.4726010000000 1.0
C      1  0.4346940000000  0.5112050000000  0.4809780000000 1.0
C      1  0.5129170000000  0.5698650000000  0.5143690000000 1.0
C      1  0.5423010000000  0.4519280000000  0.5150270000000 1.0
C      1  0.4336820000000  0.4764420000000  0.5195560000000 1.0
C      1  0.5166160000000  0.5610180000000  0.4831590000000 1.0
C      1  0.5473950000000  0.4626630000000  0.4844680000000 1.0
C      1  0.4452420000000  0.4844050000000  0.4902020000000 1.0
C      1  0.4215330000000  0.5425570000000  0.5165840000000 1.0
C      1  0.5829930000000  0.5490930000000  0.5130640000000 1.0
C      1  0.4955670000000  0.4023800000000  0.5201000000000 1.0
C      1  0.4173530000000  0.5465490000000  0.4873770000000 1.0
C      1  0.5849050000000  0.5480960000000  0.4830110000000 1.0
C      1  0.4983250000000  0.4048970000000  0.4896990000000 1.0
C      1  0.5540270000000  0.5493320000000  0.5636570000000 1.0
C      1  0.5154850000000  0.4421900000000  0.5650560000000 1.0
C      1  0.4313670000000  0.5155470000000  0.5634610000000 1.0
C      1  0.5456730000000  0.5452320000000  0.4344250000000 1.0
C      1  0.5166080000000  0.4363620000000  0.4358170000000 1.0
C      1  0.4366130000000  0.5182690000000  0.4343720000000 1.0
C      1  0.5488140000000  0.5173610000000  0.4220490000000 1.0
C      1  0.4912190000000  0.4488350000000  0.4256740000000 1.0
C      1  0.4589260000000  0.5349060000000  0.4205490000000 1.0
C      1  0.5543430000000  0.5218220000000  0.5721080000000 1.0
C      1  0.4907270000000  0.4538300000000  0.5778100000000 1.0
C      1  0.4528770000000  0.5315970000000  0.5737750000000 1.0
C      1  0.5523110000000  0.5272670000000  0.4918860000000 1.0
C      1  0.5014540000000  0.4474060000000  0.4842520000000 1.0
C      1  0.4555080000000  0.5352100000000  0.4847920000000 1.0
C      1  0.5464600000000  0.5367190000000  0.5230500000000 1.0
C      1  0.4897750000000  0.4412880000000  0.5141000000000 1.0
C      1  0.4693510000000  0.5295540000000  0.5123570000000 1.0
C      1  0.4543920000000  0.4285620000000  0.4997300000000 1.0
C      1  0.5832500000000  0.4974740000000  0.5022300000000 1.0
C      1  0.4595160000000  0.5737780000000  0.4993540000000 1.0
C      1  0.5006640000000  0.4944620000000  0.5560510000000 1.0
C      1  0.5008980000000  0.5040000000000  0.4500740000000 1.0
END
