TITL C-2782229-3092-793 -0.00125238567744235 125000 -1122.00842726239 0 0 190 (C1) n - 1
REM
REM in /home/nfs/bkarasulu/CARBON/AIRSS/Generating-Clusters/REBO/Higher-Symm/SD-CG/HFTN-CG
REM
REM
REM
REM
REM
REM ./C.cell (12c818d87b63d06a65506943cc24bca4)
REM
REM compiler GCC version 9.2.1 20190827 (Red Hat 9.2.1-1)
REM options -cpp -mtune=generic -march=x86-64 -g -O0 -fpre-include=/usr/include/finclude/math-vector-fortran.h
REM seed -514797454 1493350409 1866715156 70647191 -1043399803 -716271976 -679151471 -30455928 -1854922828 1417828308 250494477 14955453 1892343028 -479242930 -812128679 -1857821434 101099164 1231190108 2054597677 888863971 -371945306 1280593512 160141674 -1788584571 1673376636 1553002327 -1540852380 -1116932011 -2021866246 1571832762 334681581 -1239186422 -636766993
REM
CELL 1.54180   50.00000   50.00000   50.00000   90.00000   90.00000   90.00000
LATT -1
SFAC C  
C      1  0.4408440000000  0.4077450000000  0.4824180000000 1.0
C      1  0.4045670000000  0.5301610000000  0.4830530000000 1.0
C      1  0.5038430000000  0.5969050000000  0.4792090000000 1.0
C      1  0.6080130000000  0.5388800000000  0.4774440000000 1.0
C      1  0.5644960000000  0.4178450000000  0.4819300000000 1.0
C      1  0.5720870000000  0.4317960000000  0.5075230000000 1.0
C      1  0.4569210000000  0.3917840000000  0.5074330000000 1.0
C      1  0.4078170000000  0.5108690000000  0.5062090000000 1.0
C      1  0.4829300000000  0.6033700000000  0.5018230000000 1.0
C      1  0.5876750000000  0.5554100000000  0.4973730000000 1.0
C      1  0.5384510000000  0.4762030000000  0.4609920000000 1.0
C      1  0.4865520000000  0.4529370000000  0.4534490000000 1.0
C      1  0.4497540000000  0.4921890000000  0.4475820000000 1.0
C      1  0.4833690000000  0.5398760000000  0.4412730000000 1.0
C      1  0.5311490000000  0.5274130000000  0.4511270000000 1.0
C      1  0.5762840000000  0.5685110000000  0.5420930000000 1.0
C      1  0.5854770000000  0.4633880000000  0.5387200000000 1.0
C      1  0.4765990000000  0.3958470000000  0.5329820000000 1.0
C      1  0.4007390000000  0.4874490000000  0.5375310000000 1.0
C      1  0.4615760000000  0.5900450000000  0.5344700000000 1.0
C      1  0.4707980000000  0.5082140000000  0.5608190000000 1.0
C      1  0.4961360000000  0.5301010000000  0.5669110000000 1.0
C      1  0.5275790000000  0.5169990000000  0.5691670000000 1.0
C      1  0.5214420000000  0.4844400000000  0.5660620000000 1.0
C      1  0.4888260000000  0.4816260000000  0.5674800000000 1.0
C      1  0.4720940000000  0.4000630000000  0.4454530000000 1.0
C      1  0.3963420000000  0.4978170000000  0.4460920000000 1.0
C      1  0.4595580000000  0.5905850000000  0.4563120000000 1.0
C      1  0.5718840000000  0.5646730000000  0.4547250000000 1.0
C      1  0.5844970000000  0.4565870000000  0.4612150000000 1.0
C      1  0.5251430000000  0.4812390000000  0.4319210000000 1.0
C      1  0.4953220000000  0.4676100000000  0.4284840000000 1.0
C      1  0.4711170000000  0.4908130000000  0.4252410000000 1.0
C      1  0.4883980000000  0.5189780000000  0.4198140000000 1.0
C      1  0.5208880000000  0.5128850000000  0.4257700000000 1.0
C      1  0.4909380000000  0.5279110000000  0.5332130000000 1.0
C      1  0.5232770000000  0.5256620000000  0.5379650000000 1.0
C      1  0.5321120000000  0.4930050000000  0.5375850000000 1.0
C      1  0.4977990000000  0.4678350000000  0.5386400000000 1.0
C      1  0.4792540000000  0.4956190000000  0.5313890000000 1.0
C      1  0.5225890000000  0.4443410000000  0.5969020000000 1.0
C      1  0.4584460000000  0.4563240000000  0.5957390000000 1.0
C      1  0.4515350000000  0.5254920000000  0.5911960000000 1.0
C      1  0.5109250000000  0.5538700000000  0.5966110000000 1.0
C      1  0.5563370000000  0.5080770000000  0.5954500000000 1.0
C      1  0.5616860000000  0.5051290000000  0.5398570000000 1.0
C      1  0.5232280000000  0.4470060000000  0.5470510000000 1.0
C      1  0.4500660000000  0.4457170000000  0.5470260000000 1.0
C      1  0.4414990000000  0.5340170000000  0.5379260000000 1.0
C      1  0.5172860000000  0.5668980000000  0.5462820000000 1.0
C      1  0.4686930000000  0.5616780000000  0.4629310000000 1.0
C      1  0.5528280000000  0.5422470000000  0.4667220000000 1.0
C      1  0.5652760000000  0.4786130000000  0.4768420000000 1.0
C      1  0.4907450000000  0.4203030000000  0.4621840000000 1.0
C      1  0.4183820000000  0.4817620000000  0.4555880000000 1.0
C      1  0.4873200000000  0.5220210000000  0.3858610000000 1.0
C      1  0.5165470000000  0.5138930000000  0.3920580000000 1.0
C      1  0.5174140000000  0.4834890000000  0.3992970000000 1.0
C      1  0.4892490000000  0.4720850000000  0.3952650000000 1.0
C      1  0.4705680000000  0.4967710000000  0.3917520000000 1.0
C      1  0.5223510000000  0.4819470000000  0.5106460000000 1.0
C      1  0.4926890000000  0.4682630000000  0.5056500000000 1.0
C      1  0.4608500000000  0.4961790000000  0.5047590000000 1.0
C      1  0.4845240000000  0.5202530000000  0.5006760000000 1.0
C      1  0.5176270000000  0.5144710000000  0.5071200000000 1.0
C      1  0.4996840000000  0.5656420000000  0.4706560000000 1.0
C      1  0.5806640000000  0.5250910000000  0.4656250000000 1.0
C      1  0.5317270000000  0.4383880000000  0.4717270000000 1.0
C      1  0.4615250000000  0.4312930000000  0.4757410000000 1.0
C      1  0.4303780000000  0.5338830000000  0.4666560000000 1.0
C      1  0.4496850000000  0.3936010000000  0.4552110000000 1.0
C      1  0.3859230000000  0.5185820000000  0.4608360000000 1.0
C      1  0.4794370000000  0.6086960000000  0.4615180000000 1.0
C      1  0.5969400000000  0.5618840000000  0.4569430000000 1.0
C      1  0.5761680000000  0.4298470000000  0.4605780000000 1.0
C      1  0.5246780000000  0.4242370000000  0.4414410000000 1.0
C      1  0.4278880000000  0.4455260000000  0.4370240000000 1.0
C      1  0.4278690000000  0.5496440000000  0.4365980000000 1.0
C      1  0.5271020000000  0.5832580000000  0.4314610000000 1.0
C      1  0.5825400000000  0.5099480000000  0.4375140000000 1.0
C      1  0.5654920000000  0.6019190000000  0.4871900000000 1.0
C      1  0.5958710000000  0.4806720000000  0.4909600000000 1.0
C      1  0.5065700000000  0.4037500000000  0.4814410000000 1.0
C      1  0.4101590000000  0.4666840000000  0.4778910000000 1.0
C      1  0.4331910000000  0.5839960000000  0.4968560000000 1.0
C      1  0.5594290000000  0.6189620000000  0.4390210000000 1.0
C      1  0.6075360000000  0.4686610000000  0.4507450000000 1.0
C      1  0.5289810000000  0.3729340000000  0.4377870000000 1.0
C      1  0.3817020000000  0.4324560000000  0.4436870000000 1.0
C      1  0.4317440000000  0.5943350000000  0.4546210000000 1.0
C      1  0.4291070000000  0.4014240000000  0.5200570000000 1.0
C      1  0.3950820000000  0.5252570000000  0.5307140000000 1.0
C      1  0.4962710000000  0.6081820000000  0.5262810000000 1.0
C      1  0.5950440000000  0.5504520000000  0.5274250000000 1.0
C      1  0.5661400000000  0.4132410000000  0.5310630000000 1.0
C      1  0.6136160000000  0.5082720000000  0.4804920000000 1.0
C      1  0.5404820000000  0.4003290000000  0.4805310000000 1.0
C      1  0.4143770000000  0.4240310000000  0.4787030000000 1.0
C      1  0.4094810000000  0.5622030000000  0.4854450000000 1.0
C      1  0.5327390000000  0.6036820000000  0.4795670000000 1.0
C      1  0.4736360000000  0.5731530000000  0.4215670000000 1.0
C      1  0.5568330000000  0.5478040000000  0.4115280000000 1.0
C      1  0.5682850000000  0.4591980000000  0.4247500000000 1.0
C      1  0.4764440000000  0.4315630000000  0.4212890000000 1.0
C      1  0.4237220000000  0.4935590000000  0.4173040000000 1.0
C      1  0.6107090000000  0.5012580000000  0.5120450000000 1.0
C      1  0.5244200000000  0.3930460000000  0.5085150000000 1.0
C      1  0.4059700000000  0.4445000000000  0.5020970000000 1.0
C      1  0.4090630000000  0.5720420000000  0.5177070000000 1.0
C      1  0.5445930000000  0.6036410000000  0.5117010000000 1.0
C      1  0.4558870000000  0.5466040000000  0.5097850000000 1.0
C      1  0.5266240000000  0.5595290000000  0.5173200000000 1.0
C      1  0.5619590000000  0.4936370000000  0.5076410000000 1.0
C      1  0.5137780000000  0.4370350000000  0.5188040000000 1.0
C      1  0.4412240000000  0.4562010000000  0.5167030000000 1.0
C      1  0.6030900000000  0.5245880000000  0.5345150000000 1.0
C      1  0.5427420000000  0.4001730000000  0.5346960000000 1.0
C      1  0.4225790000000  0.4281220000000  0.5243980000000 1.0
C      1  0.3932890000000  0.5502390000000  0.5328310000000 1.0
C      1  0.5219480000000  0.6047970000000  0.5343720000000 1.0
C      1  0.3958580000000  0.4827170000000  0.4979340000000 1.0
C      1  0.4560330000000  0.5969900000000  0.4956150000000 1.0
C      1  0.5862270000000  0.5847670000000  0.4879020000000 1.0
C      1  0.5958550000000  0.4532470000000  0.5015360000000 1.0
C      1  0.4871710000000  0.3854590000000  0.4960660000000 1.0
C      1  0.4711380000000  0.4243890000000  0.5468460000000 1.0
C      1  0.4288470000000  0.5063750000000  0.5406750000000 1.0
C      1  0.4876060000000  0.5729740000000  0.5470780000000 1.0
C      1  0.5616500000000  0.5352990000000  0.5428010000000 1.0
C      1  0.5526300000000  0.4558420000000  0.5446280000000 1.0
C      1  0.5045190000000  0.3895080000000  0.5346800000000 1.0
C      1  0.4005730000000  0.4601940000000  0.5318500000000 1.0
C      1  0.4335090000000  0.5860600000000  0.5367680000000 1.0
C      1  0.5583150000000  0.5899490000000  0.5390360000000 1.0
C      1  0.6021930000000  0.4849020000000  0.5381420000000 1.0
C      1  0.4761700000000  0.5083360000000  0.5944100000000 1.0
C      1  0.5036190000000  0.5236530000000  0.6000900000000 1.0
C      1  0.5273530000000  0.5028230000000  0.6008170000000 1.0
C      1  0.5143920000000  0.4720250000000  0.5965900000000 1.0
C      1  0.4807590000000  0.4766400000000  0.5985310000000 1.0
C      1  0.5318340000000  0.5606290000000  0.5755170000000 1.0
C      1  0.5698270000000  0.4951080000000  0.5711900000000 1.0
C      1  0.5153330000000  0.4275320000000  0.5709660000000 1.0
C      1  0.4383060000000  0.4630670000000  0.5727340000000 1.0
C      1  0.4507380000000  0.5463790000000  0.5686100000000 1.0
C      1  0.4670830000000  0.4973020000000  0.4723500000000 1.0
C      1  0.4838200000000  0.5251080000000  0.4684980000000 1.0
C      1  0.5139370000000  0.5178590000000  0.4739000000000 1.0
C      1  0.5165030000000  0.4862080000000  0.4790430000000 1.0
C      1  0.4875120000000  0.4737380000000  0.4747380000000 1.0
C      1  0.4161970000000  0.5717260000000  0.4563200000000 1.0
C      1  0.5393230000000  0.6023040000000  0.4484460000000 1.0
C      1  0.6081140000000  0.4959090000000  0.4521070000000 1.0
C      1  0.5309520000000  0.3955160000000  0.4508210000000 1.0
C      1  0.4075980000000  0.4327550000000  0.4521530000000 1.0
C      1  0.5576880000000  0.5278530000000  0.4298330000000 1.0
C      1  0.5460360000000  0.4491080000000  0.4427320000000 1.0
C      1  0.4559200000000  0.4405470000000  0.4447890000000 1.0
C      1  0.4304830000000  0.5169810000000  0.4383010000000 1.0
C      1  0.5016390000000  0.5687280000000  0.4382850000000 1.0
C      1  0.5757150000000  0.5426670000000  0.5906060000000 1.0
C      1  0.5691480000000  0.4494600000000  0.5928840000000 1.0
C      1  0.4688240000000  0.4308140000000  0.5946710000000 1.0
C      1  0.4177860000000  0.5044220000000  0.5902460000000 1.0
C      1  0.4880860000000  0.5689430000000  0.5951220000000 1.0
C      1  0.4732740000000  0.5658400000000  0.5726150000000 1.0
C      1  0.5572350000000  0.5450240000000  0.5719110000000 1.0
C      1  0.5646820000000  0.4652960000000  0.5723930000000 1.0
C      1  0.4846900000000  0.4240560000000  0.5735330000000 1.0
C      1  0.4295180000000  0.4922360000000  0.5697710000000 1.0
C      1  0.5564330000000  0.4612930000000  0.5116920000000 1.0
C      1  0.4862540000000  0.4315440000000  0.5192940000000 1.0
C      1  0.4324250000000  0.4878980000000  0.5131790000000 1.0
C      1  0.4783120000000  0.5665880000000  0.5168320000000 1.0
C      1  0.5577710000000  0.5481800000000  0.5131630000000 1.0
C      1  0.5006780000000  0.4271420000000  0.4233470000000 1.0
C      1  0.4231730000000  0.4665460000000  0.4189490000000 1.0
C      1  0.4509640000000  0.5633350000000  0.4211290000000 1.0
C      1  0.5431090000000  0.5713690000000  0.4115000000000 1.0
C      1  0.5801360000000  0.4809220000000  0.4243090000000 1.0
C      1  0.4267230000000  0.5606460000000  0.5516690000000 1.0
C      1  0.5349520000000  0.5908180000000  0.5615270000000 1.0
C      1  0.5967980000000  0.5062300000000  0.5587700000000 1.0
C      1  0.5230640000000  0.4005260000000  0.5576070000000 1.0
C      1  0.4173630000000  0.4435680000000  0.5542520000000 1.0
C      1  0.4666190000000  0.4478600000000  0.5000820000000 1.0
C      1  0.4515890000000  0.5461630000000  0.4832390000000 1.0
C      1  0.5048550000000  0.5634360000000  0.5010110000000 1.0
C      1  0.5614700000000  0.5225150000000  0.4930060000000 1.0
C      1  0.5318660000000  0.4443680000000  0.4985030000000 1.0
END
