TITL C-2782231-7322-1133 0.000354394650083688 125000 -394.481646476356 0 0 69 (C1) n - 1
REM
REM in /home/nfs/bkarasulu/CARBON/AIRSS/Generating-Clusters/REBO/Higher-Symm/SD-CG/HFTN-CG
REM
REM
REM
REM
REM
REM ./C.cell (12c818d87b63d06a65506943cc24bca4)
REM
REM compiler GCC version 9.2.1 20190827 (Red Hat 9.2.1-1)
REM options -cpp -mtune=generic -march=x86-64 -g -O0 -fpre-include=/usr/include/finclude/math-vector-fortran.h
REM seed 830082941 -964258819 -1452193 -1713043966 -1210875131 172117319 1437091482 1395319196 692213047 -392060039 2056208260 -895887561 823420934 -608000336 -2069097530 -1795730114 -103918169 -140890465 -1226535035 1030094244 2126445164 1034524097 1424721390 2024999513 -2008198190 527139670 -1697527290 475304494 -215049528 -384646931 793355788 -642122436 -1215128609
REM
CELL 1.54180   50.00000   50.00000   50.00000   90.00000   90.00000   90.00000
LATT -1
SFAC C  
C      1  0.4434420000000  0.5546420000000  0.4943890000000 1.0
C      1  0.5753530000000  0.5199260000000  0.4936820000000 1.0
C      1  0.4833060000000  0.4260230000000  0.4977120000000 1.0
C      1  0.5254520000000  0.4317190000000  0.4664420000000 1.0
C      1  0.4290300000000  0.5121840000000  0.4669040000000 1.0
C      1  0.5463480000000  0.5547840000000  0.4676380000000 1.0
C      1  0.4698450000000  0.5126380000000  0.5395890000000 1.0
C      1  0.5261810000000  0.5189950000000  0.5346780000000 1.0
C      1  0.5000860000000  0.4618430000000  0.5497800000000 1.0
C      1  0.4444170000000  0.4917590000000  0.5467370000000 1.0
C      1  0.5201810000000  0.5507730000000  0.5468060000000 1.0
C      1  0.5319310000000  0.4540910000000  0.5488820000000 1.0
C      1  0.4948870000000  0.4454610000000  0.4604050000000 1.0
C      1  0.4562970000000  0.5315710000000  0.4606840000000 1.0
C      1  0.5487600000000  0.5214870000000  0.4610760000000 1.0
C      1  0.4304800000000  0.5167580000000  0.5354730000000 1.0
C      1  0.5496250000000  0.5510160000000  0.5364740000000 1.0
C      1  0.5201760000000  0.4306280000000  0.5336850000000 1.0
C      1  0.4686280000000  0.4484340000000  0.5497580000000 1.0
C      1  0.4702190000000  0.5587910000000  0.5500550000000 1.0
C      1  0.5619140000000  0.4948690000000  0.5513800000000 1.0
C      1  0.5144560000000  0.5592740000000  0.4567090000000 1.0
C      1  0.5433440000000  0.4577690000000  0.4537970000000 1.0
C      1  0.4419510000000  0.4824520000000  0.4565530000000 1.0
C      1  0.5005720000000  0.4846530000000  0.5694750000000 1.0
C      1  0.4862640000000  0.5125790000000  0.5645470000000 1.0
C      1  0.5177250000000  0.5103660000000  0.5626900000000 1.0
C      1  0.4951290000000  0.5591340000000  0.5361640000000 1.0
C      1  0.5494040000000  0.4734170000000  0.5370590000000 1.0
C      1  0.4506650000000  0.4660070000000  0.5358400000000 1.0
C      1  0.5023570000000  0.4130950000000  0.4823880000000 1.0
C      1  0.4232590000000  0.5423480000000  0.4801520000000 1.0
C      1  0.5749890000000  0.5441780000000  0.4806660000000 1.0
C      1  0.5147850000000  0.4912780000000  0.5085660000000 1.0
C      1  0.4811740000000  0.4932260000000  0.5139890000000 1.0
C      1  0.5002870000000  0.5216600000000  0.5138490000000 1.0
C      1  0.4628020000000  0.4561610000000  0.4562870000000 1.0
C      1  0.4815000000000  0.5539470000000  0.4555010000000 1.0
C      1  0.5550860000000  0.4885290000000  0.4552110000000 1.0
C      1  0.5469170000000  0.5530090000000  0.5075750000000 1.0
C      1  0.5251280000000  0.4351800000000  0.5062290000000 1.0
C      1  0.4301030000000  0.5137150000000  0.5068450000000 1.0
C      1  0.5625900000000  0.4935150000000  0.4859750000000 1.0
C      1  0.4657550000000  0.4482410000000  0.4875120000000 1.0
C      1  0.4721850000000  0.5577650000000  0.4861980000000 1.0
C      1  0.5430160000000  0.4784090000000  0.5064720000000 1.0
C      1  0.4578940000000  0.4717220000000  0.5051410000000 1.0
C      1  0.4955210000000  0.5522440000000  0.5048050000000 1.0
C      1  0.5534420000000  0.5152140000000  0.5181350000000 1.0
C      1  0.4913110000000  0.4529480000000  0.5178020000000 1.0
C      1  0.4603020000000  0.5369780000000  0.5181620000000 1.0
C      1  0.4798320000000  0.5240520000000  0.4385280000000 1.0
C      1  0.5320340000000  0.5060470000000  0.4366030000000 1.0
C      1  0.4887770000000  0.4687560000000  0.4375020000000 1.0
C      1  0.5643430000000  0.5252640000000  0.5477310000000 1.0
C      1  0.4897590000000  0.4251350000000  0.5394020000000 1.0
C      1  0.4444640000000  0.5425970000000  0.5471090000000 1.0
C      1  0.5106790000000  0.5286640000000  0.4458570000000 1.0
C      1  0.5197660000000  0.4766540000000  0.4412980000000 1.0
C      1  0.4706380000000  0.4935370000000  0.4451220000000 1.0
C      1  0.5208590000000  0.5617650000000  0.4895480000000 1.0
C      1  0.5451270000000  0.4516090000000  0.4864590000000 1.0
C      1  0.4359510000000  0.4869020000000  0.4891000000000 1.0
C      1  0.5064650000000  0.4822480000000  0.4707370000000 1.0
C      1  0.4809720000000  0.5036270000000  0.4750340000000 1.0
C      1  0.5121300000000  0.5145570000000  0.4753600000000 1.0
C      1  0.5058680000000  0.4577200000000  0.4893200000000 1.0
C      1  0.4600170000000  0.5186030000000  0.4910520000000 1.0
C      1  0.5358490000000  0.5248570000000  0.4917120000000 1.0
END
