TITL C-2782229-3092-527 -0.00256032643196521 125000 -791.350547280281 0 0 136 (C1) n - 1
REM
REM in /home/nfs/bkarasulu/CARBON/AIRSS/Generating-Clusters/REBO/Higher-Symm/SD-CG/HFTN-CG
REM
REM
REM
REM
REM
REM ./C.cell (12c818d87b63d06a65506943cc24bca4)
REM
REM compiler GCC version 9.2.1 20190827 (Red Hat 9.2.1-1)
REM options -cpp -mtune=generic -march=x86-64 -g -O0 -fpre-include=/usr/include/finclude/math-vector-fortran.h
REM seed 934476550 -988284347 7029994 -1697305503 324155566 -1333642353 60724041 1997370618 -328586862 -762874117 -1907733379 1795207932 -1928544195 -1220046404 -1941290931 -1735859031 -2064969992 -1141143377 -487949919 -254602353 -181573732 270510942 1374609246 -674426656 1043120508 -1983193512 -1128001584 2005842263 1660135434 25771361 1824416614 1283943876 -399410783
REM
CELL 1.54180   50.00000   50.00000   50.00000   90.00000   90.00000   90.00000
LATT -1
SFAC C  
C      1  0.4487490000000  0.4518160000000  0.5613260000000 1.0
C      1  0.4687830000000  0.5224260000000  0.5952070000000 1.0
C      1  0.4825900000000  0.5482660000000  0.4980300000000 1.0
C      1  0.5029200000000  0.3918590000000  0.4823010000000 1.0
C      1  0.4618120000000  0.4777770000000  0.5659510000000 1.0
C      1  0.6008820000000  0.5090330000000  0.4902680000000 1.0
C      1  0.4050380000000  0.5212570000000  0.5085820000000 1.0
C      1  0.4236520000000  0.5068750000000  0.4762460000000 1.0
C      1  0.3987110000000  0.4964560000000  0.4932820000000 1.0
C      1  0.4762390000000  0.5729430000000  0.5555510000000 1.0
C      1  0.5481550000000  0.4705750000000  0.5236910000000 1.0
C      1  0.5536170000000  0.4803380000000  0.4328870000000 1.0
C      1  0.5062780000000  0.4817900000000  0.5896770000000 1.0
C      1  0.5020510000000  0.5468050000000  0.5181590000000 1.0
C      1  0.4288070000000  0.5612730000000  0.5308250000000 1.0
C      1  0.5090740000000  0.4279780000000  0.4501270000000 1.0
C      1  0.4297660000000  0.4549900000000  0.5399740000000 1.0
C      1  0.4651550000000  0.5720610000000  0.5010710000000 1.0
C      1  0.4718630000000  0.5262590000000  0.4825540000000 1.0
C      1  0.5563610000000  0.5742850000000  0.5238250000000 1.0
C      1  0.4840950000000  0.5718480000000  0.4657830000000 1.0
C      1  0.5421100000000  0.4774380000000  0.4849390000000 1.0
C      1  0.5784320000000  0.4924890000000  0.4381080000000 1.0
C      1  0.3851300000000  0.4507860000000  0.5054800000000 1.0
C      1  0.4669470000000  0.4245620000000  0.5640650000000 1.0
C      1  0.4097190000000  0.5437700000000  0.4915840000000 1.0
C      1  0.4919800000000  0.4183010000000  0.4303220000000 1.0
C      1  0.3981460000000  0.4740420000000  0.5102900000000 1.0
C      1  0.4219740000000  0.5119930000000  0.5354020000000 1.0
C      1  0.5699630000000  0.4832620000000  0.5569100000000 1.0
C      1  0.4848120000000  0.4417490000000  0.5329370000000 1.0
C      1  0.5587190000000  0.5246820000000  0.5720740000000 1.0
C      1  0.5280480000000  0.6032090000000  0.4665190000000 1.0
C      1  0.5989290000000  0.4746620000000  0.5187260000000 1.0
C      1  0.4887940000000  0.6184530000000  0.5325800000000 1.0
C      1  0.4267550000000  0.4805310000000  0.4312050000000 1.0
C      1  0.4984530000000  0.3957680000000  0.5108460000000 1.0
C      1  0.5122140000000  0.4509940000000  0.5909350000000 1.0
C      1  0.4550580000000  0.5498800000000  0.5697400000000 1.0
C      1  0.5089190000000  0.4826370000000  0.4063220000000 1.0
C      1  0.4421940000000  0.5293590000000  0.4162240000000 1.0
C      1  0.4327630000000  0.5396320000000  0.5521330000000 1.0
C      1  0.5216370000000  0.5352770000000  0.4710610000000 1.0
C      1  0.5289430000000  0.4398240000000  0.5760320000000 1.0
C      1  0.4622380000000  0.5567910000000  0.5313640000000 1.0
C      1  0.5725940000000  0.4936920000000  0.5186370000000 1.0
C      1  0.5606020000000  0.5033850000000  0.4898830000000 1.0
C      1  0.4360080000000  0.4167720000000  0.4891590000000 1.0
C      1  0.4958170000000  0.4786870000000  0.4744880000000 1.0
C      1  0.5033560000000  0.5074840000000  0.4639520000000 1.0
C      1  0.4523780000000  0.5043550000000  0.4921730000000 1.0
C      1  0.5313460000000  0.5680260000000  0.5014460000000 1.0
C      1  0.4606040000000  0.4210890000000  0.5308140000000 1.0
C      1  0.5306680000000  0.5896580000000  0.5379060000000 1.0
C      1  0.4983690000000  0.5195460000000  0.5364490000000 1.0
C      1  0.4687970000000  0.4327770000000  0.4729670000000 1.0
C      1  0.5320360000000  0.5238510000000  0.4189360000000 1.0
C      1  0.4462980000000  0.4762990000000  0.4065860000000 1.0
C      1  0.4870090000000  0.5065470000000  0.3957130000000 1.0
C      1  0.5421090000000  0.4638480000000  0.4550660000000 1.0
C      1  0.5343890000000  0.4920420000000  0.4155900000000 1.0
C      1  0.4759090000000  0.4815520000000  0.4131910000000 1.0
C      1  0.5627160000000  0.5755600000000  0.4334030000000 1.0
C      1  0.5343590000000  0.5342740000000  0.4983150000000 1.0
C      1  0.5008750000000  0.5719730000000  0.5773110000000 1.0
C      1  0.4868590000000  0.5437570000000  0.5807540000000 1.0
C      1  0.4677880000000  0.5260820000000  0.5383980000000 1.0
C      1  0.5736820000000  0.5455050000000  0.5302890000000 1.0
C      1  0.4445120000000  0.4983960000000  0.5953310000000 1.0
C      1  0.5025790000000  0.5763320000000  0.4167280000000 1.0
C      1  0.5418310000000  0.4774590000000  0.5720420000000 1.0
C      1  0.4641130000000  0.4756970000000  0.4801120000000 1.0
C      1  0.5216270000000  0.4097000000000  0.4696210000000 1.0
C      1  0.5478080000000  0.5492900000000  0.4176860000000 1.0
C      1  0.4778560000000  0.4896350000000  0.5919730000000 1.0
C      1  0.5276000000000  0.5163410000000  0.5197780000000 1.0
C      1  0.5162530000000  0.4168680000000  0.5267510000000 1.0
C      1  0.4826910000000  0.5642570000000  0.4086190000000 1.0
C      1  0.5286350000000  0.5724090000000  0.4319090000000 1.0
C      1  0.4364840000000  0.4359390000000  0.5172990000000 1.0
C      1  0.4310430000000  0.5412490000000  0.4394660000000 1.0
C      1  0.4779420000000  0.5202940000000  0.4508290000000 1.0
C      1  0.4628270000000  0.4975160000000  0.4383990000000 1.0
C      1  0.6013020000000  0.4593090000000  0.4943890000000 1.0
C      1  0.4698420000000  0.4862220000000  0.5367250000000 1.0
C      1  0.5051160000000  0.5213530000000  0.5678800000000 1.0
C      1  0.5324660000000  0.5138380000000  0.4489310000000 1.0
C      1  0.4603380000000  0.4074880000000  0.5849160000000 1.0
C      1  0.4193350000000  0.5671940000000  0.5045950000000 1.0
C      1  0.5161090000000  0.4697370000000  0.4997830000000 1.0
C      1  0.5231060000000  0.5638910000000  0.4623030000000 1.0
C      1  0.4196470000000  0.5359430000000  0.4644470000000 1.0
C      1  0.4990380000000  0.5941640000000  0.5417490000000 1.0
C      1  0.5228600000000  0.5507930000000  0.5401850000000 1.0
C      1  0.5363220000000  0.4949260000000  0.5985410000000 1.0
C      1  0.5150890000000  0.4902110000000  0.5578210000000 1.0
C      1  0.4703950000000  0.5344450000000  0.4059940000000 1.0
C      1  0.5640850000000  0.4350300000000  0.5313840000000 1.0
C      1  0.5459570000000  0.4196960000000  0.5142500000000 1.0
C      1  0.4768650000000  0.5523300000000  0.4527080000000 1.0
C      1  0.5111650000000  0.4393700000000  0.5031370000000 1.0
C      1  0.4996880000000  0.4239410000000  0.5541700000000 1.0
C      1  0.5518430000000  0.5842240000000  0.4621220000000 1.0
C      1  0.5570220000000  0.4423250000000  0.4742050000000 1.0
C      1  0.4759200000000  0.4092090000000  0.4117140000000 1.0
C      1  0.5441130000000  0.4197770000000  0.4850210000000 1.0
C      1  0.4568720000000  0.5106920000000  0.5653050000000 1.0
C      1  0.5042870000000  0.5307400000000  0.4089360000000 1.0
C      1  0.4848210000000  0.4677480000000  0.5243230000000 1.0
C      1  0.4403820000000  0.5811920000000  0.4909780000000 1.0
C      1  0.4554100000000  0.3955330000000  0.4897590000000 1.0
C      1  0.4700630000000  0.3974510000000  0.5151690000000 1.0
C      1  0.5637840000000  0.5450120000000  0.4980570000000 1.0
C      1  0.5349610000000  0.5242830000000  0.5517220000000 1.0
C      1  0.4919460000000  0.4307040000000  0.4861150000000 1.0
C      1  0.5628120000000  0.5768220000000  0.4901300000000 1.0
C      1  0.5075080000000  0.5842380000000  0.4842190000000 1.0
C      1  0.5460350000000  0.4517510000000  0.5520180000000 1.0
C      1  0.4403370000000  0.4864140000000  0.4586220000000 1.0
C      1  0.4158140000000  0.4785020000000  0.5326870000000 1.0
C      1  0.5728880000000  0.5146750000000  0.5437230000000 1.0
C      1  0.5855780000000  0.5534070000000  0.4332090000000 1.0
C      1  0.5520370000000  0.5171530000000  0.5973170000000 1.0
C      1  0.5902110000000  0.5273930000000  0.5063750000000 1.0
C      1  0.5596760000000  0.5159310000000  0.4642780000000 1.0
C      1  0.4761900000000  0.3875470000000  0.4705640000000 1.0
C      1  0.5201380000000  0.4862730000000  0.5271430000000 1.0
C      1  0.5682190000000  0.4598560000000  0.4979840000000 1.0
C      1  0.5829280000000  0.4618000000000  0.5409800000000 1.0
C      1  0.5839590000000  0.5258690000000  0.4441380000000 1.0
C      1  0.5246570000000  0.5717120000000  0.5625370000000 1.0
C      1  0.4303080000000  0.5041990000000  0.4091240000000 1.0
C      1  0.4502680000000  0.5050410000000  0.5218350000000 1.0
C      1  0.4454140000000  0.4495640000000  0.4875480000000 1.0
C      1  0.5120020000000  0.4561920000000  0.4555220000000 1.0
C      1  0.5970330000000  0.5017450000000  0.4636320000000 1.0
END
