TITL C-2782230-7391-825 -0.00038012832160491 125000 -678.835674897611 0 0 116 (C1) n - 1
REM
REM in /home/nfs/bkarasulu/CARBON/AIRSS/Generating-Clusters/REBO/Higher-Symm/SD-CG/HFTN-CG
REM
REM
REM
REM
REM
REM ./C.cell (12c818d87b63d06a65506943cc24bca4)
REM
REM compiler GCC version 9.2.1 20190827 (Red Hat 9.2.1-1)
REM options -cpp -mtune=generic -march=x86-64 -g -O0 -fpre-include=/usr/include/finclude/math-vector-fortran.h
REM seed -2012824401 364173899 952291667 793357364 -2138659188 449045836 1837467299 442912810 617454098 -738158143 1115903011 1463793041 -1624070154 -1149624573 -1061687435 1740241790 1542185961 851136730 675858887 1411772496 1940775574 226788717 1340814036 818271507 1540236426 -1713369479 1186494402 -2065400996 913176116 -1539129795 -1926393447 -1429052348 -429649272
REM
CELL 1.54180   50.00000   50.00000   50.00000   90.00000   90.00000   90.00000
LATT -1
SFAC C  
C      1  0.5190940000000  0.5382400000000  0.4304530000000 1.0
C      1  0.5128780000000  0.5342120000000  0.5713100000000 1.0
C      1  0.4781660000000  0.4886060000000  0.4035550000000 1.0
C      1  0.4791050000000  0.4845860000000  0.5887010000000 1.0
C      1  0.5009930000000  0.4639180000000  0.4468760000000 1.0
C      1  0.5012710000000  0.4716510000000  0.5407870000000 1.0
C      1  0.5782410000000  0.4945290000000  0.5433560000000 1.0
C      1  0.5800220000000  0.4968950000000  0.4538560000000 1.0
C      1  0.5738520000000  0.4948670000000  0.5111740000000 1.0
C      1  0.5741440000000  0.4955160000000  0.4860250000000 1.0
C      1  0.4633420000000  0.5911120000000  0.4877610000000 1.0
C      1  0.4616770000000  0.5883350000000  0.5163870000000 1.0
C      1  0.4242350000000  0.5092370000000  0.5191680000000 1.0
C      1  0.4303640000000  0.5037980000000  0.4889290000000 1.0
C      1  0.4733710000000  0.4185950000000  0.5558810000000 1.0
C      1  0.4720400000000  0.4135960000000  0.4436000000000 1.0
C      1  0.4819300000000  0.5559990000000  0.4846030000000 1.0
C      1  0.4814010000000  0.5540850000000  0.5115710000000 1.0
C      1  0.5107290000000  0.4517840000000  0.3958380000000 1.0
C      1  0.5280110000000  0.5010150000000  0.6015550000000 1.0
C      1  0.5751300000000  0.4406830000000  0.5313990000000 1.0
C      1  0.5759870000000  0.4425540000000  0.4653660000000 1.0
C      1  0.4794820000000  0.5065500000000  0.4456270000000 1.0
C      1  0.4803260000000  0.5171570000000  0.5560980000000 1.0
C      1  0.4303430000000  0.4755010000000  0.5177340000000 1.0
C      1  0.4332000000000  0.4714350000000  0.4836990000000 1.0
C      1  0.4241290000000  0.5540960000000  0.4833140000000 1.0
C      1  0.4216140000000  0.5559800000000  0.5116080000000 1.0
C      1  0.5353180000000  0.5890450000000  0.5173880000000 1.0
C      1  0.5393860000000  0.5897580000000  0.4874420000000 1.0
C      1  0.4964530000000  0.4683700000000  0.4128310000000 1.0
C      1  0.5050850000000  0.4862890000000  0.6001020000000 1.0
C      1  0.5538290000000  0.4606760000000  0.5146330000000 1.0
C      1  0.5544270000000  0.4609050000000  0.4836780000000 1.0
C      1  0.4791470000000  0.4758710000000  0.4873340000000 1.0
C      1  0.4778990000000  0.4788500000000  0.5187380000000 1.0
C      1  0.5480630000000  0.5283340000000  0.4266310000000 1.0
C      1  0.5400130000000  0.5211480000000  0.5799540000000 1.0
C      1  0.5111450000000  0.5124330000000  0.4492190000000 1.0
C      1  0.5108970000000  0.5097970000000  0.5473890000000 1.0
C      1  0.5684540000000  0.4629320000000  0.5517820000000 1.0
C      1  0.5679240000000  0.4656680000000  0.4463620000000 1.0
C      1  0.4587330000000  0.4455310000000  0.5497230000000 1.0
C      1  0.4548520000000  0.4389950000000  0.4495400000000 1.0
C      1  0.4514000000000  0.5653490000000  0.4727540000000 1.0
C      1  0.4505340000000  0.5583120000000  0.5238070000000 1.0
C      1  0.4731920000000  0.5585790000000  0.4401740000000 1.0
C      1  0.4675150000000  0.5572580000000  0.5673070000000 1.0
C      1  0.4885380000000  0.5949990000000  0.4736990000000 1.0
C      1  0.4838810000000  0.5937240000000  0.5337810000000 1.0
C      1  0.4419780000000  0.5146540000000  0.4346160000000 1.0
C      1  0.4376890000000  0.5142300000000  0.5687010000000 1.0
C      1  0.4703980000000  0.4606420000000  0.4414410000000 1.0
C      1  0.4754460000000  0.4683420000000  0.5590180000000 1.0
C      1  0.4507490000000  0.5378500000000  0.4532850000000 1.0
C      1  0.4428010000000  0.5455320000000  0.5589360000000 1.0
C      1  0.4828280000000  0.5036420000000  0.4760170000000 1.0
C      1  0.4782400000000  0.5105520000000  0.5243670000000 1.0
C      1  0.4595860000000  0.4933690000000  0.5550780000000 1.0
C      1  0.4582980000000  0.4859180000000  0.4380880000000 1.0
C      1  0.5110390000000  0.6034590000000  0.4894240000000 1.0
C      1  0.5077640000000  0.6036870000000  0.5211920000000 1.0
C      1  0.5362910000000  0.5606800000000  0.5277710000000 1.0
C      1  0.5398020000000  0.5621970000000  0.4751410000000 1.0
C      1  0.5643480000000  0.5365780000000  0.5646670000000 1.0
C      1  0.5686020000000  0.5424010000000  0.4392200000000 1.0
C      1  0.5484380000000  0.5007410000000  0.5570300000000 1.0
C      1  0.5504190000000  0.5006440000000  0.4383520000000 1.0
C      1  0.5490060000000  0.4273840000000  0.5139500000000 1.0
C      1  0.5497190000000  0.4274180000000  0.4809600000000 1.0
C      1  0.5172100000000  0.4730570000000  0.4759530000000 1.0
C      1  0.5166300000000  0.4741310000000  0.5100240000000 1.0
C      1  0.4921990000000  0.5770980000000  0.4514600000000 1.0
C      1  0.4869060000000  0.5742820000000  0.5546770000000 1.0
C      1  0.4700780000000  0.4201470000000  0.5225770000000 1.0
C      1  0.4716570000000  0.4163970000000  0.4766430000000 1.0
C      1  0.5191390000000  0.4420670000000  0.5209740000000 1.0
C      1  0.5194720000000  0.4406990000000  0.4736610000000 1.0
C      1  0.5107750000000  0.5170350000000  0.4830810000000 1.0
C      1  0.5102290000000  0.5158170000000  0.5138830000000 1.0
C      1  0.4573620000000  0.5218160000000  0.4805010000000 1.0
C      1  0.4532970000000  0.5258300000000  0.5130480000000 1.0
C      1  0.5614960000000  0.5423530000000  0.4873370000000 1.0
C      1  0.5597440000000  0.5420490000000  0.5167560000000 1.0
C      1  0.5295290000000  0.4323900000000  0.5635650000000 1.0
C      1  0.5272210000000  0.4343430000000  0.4351570000000 1.0
C      1  0.5203450000000  0.4125220000000  0.5374360000000 1.0
C      1  0.5207750000000  0.4105470000000  0.4592930000000 1.0
C      1  0.5432300000000  0.4890760000000  0.5253900000000 1.0
C      1  0.5448270000000  0.4887530000000  0.4699310000000 1.0
C      1  0.4992080000000  0.4150470000000  0.4340960000000 1.0
C      1  0.5004620000000  0.4163280000000  0.5639420000000 1.0
C      1  0.5208530000000  0.5639060000000  0.4477580000000 1.0
C      1  0.5140110000000  0.5584420000000  0.5529390000000 1.0
C      1  0.4862220000000  0.5332640000000  0.4260400000000 1.0
C      1  0.4825350000000  0.5349690000000  0.5842470000000 1.0
C      1  0.5715770000000  0.5276140000000  0.5388390000000 1.0
C      1  0.5755040000000  0.5292870000000  0.4647780000000 1.0
C      1  0.4284200000000  0.4870380000000  0.5498720000000 1.0
C      1  0.4308490000000  0.4883560000000  0.4540220000000 1.0
C      1  0.4489490000000  0.4412660000000  0.4832450000000 1.0
C      1  0.4482160000000  0.4464200000000  0.5171200000000 1.0
C      1  0.5070240000000  0.5455540000000  0.5237230000000 1.0
C      1  0.5090790000000  0.5475670000000  0.4743550000000 1.0
C      1  0.5006230000000  0.4077930000000  0.4860280000000 1.0
C      1  0.4993850000000  0.4083650000000  0.5132390000000 1.0
C      1  0.5412890000000  0.4592900000000  0.4360250000000 1.0
C      1  0.5426830000000  0.4571370000000  0.5633670000000 1.0
C      1  0.5226580000000  0.4854880000000  0.4371030000000 1.0
C      1  0.5237190000000  0.4805110000000  0.5591270000000 1.0
C      1  0.4886460000000  0.4455650000000  0.4810290000000 1.0
C      1  0.4878750000000  0.4466490000000  0.5128870000000 1.0
C      1  0.4650400000000  0.5125960000000  0.4092810000000 1.0
C      1  0.4629870000000  0.5094880000000  0.5911400000000 1.0
C      1  0.4076340000000  0.5351320000000  0.5234680000000 1.0
C      1  0.4172230000000  0.5292400000000  0.4732300000000 1.0
END
