TITL C-2782226-7400-799 0.000927216248139691 125000 -717.231069709246 0 0 121 (C1) n - 1
REM
REM in /home/nfs/bkarasulu/CARBON/AIRSS/Generating-Clusters/REBO/Higher-Symm/SD-CG/HFTN-CG
REM
REM
REM
REM
REM
REM ./C.cell (12c818d87b63d06a65506943cc24bca4)
REM
REM compiler GCC version 9.2.1 20190827 (Red Hat 9.2.1-1)
REM options -cpp -mtune=generic -march=x86-64 -g -O0 -fpre-include=/usr/include/finclude/math-vector-fortran.h
REM seed -165072919 1176314094 -21501370 -1539132571 -2125202827 1125120656 2027804561 -155497909 -452259879 427305529 -173916332 1366500769 -1040779323 855896599 -467813993 -1326114499 1711126448 1000119655 -749227612 203026296 145889516 1651472364 1565674876 -1807960736 -1478092247 -1771937816 -738285888 1812080436 411042542 -552006168 34387121 -1190220413 807494766
REM
CELL 1.54180   50.00000   50.00000   50.00000   90.00000   90.00000   90.00000
LATT -1
SFAC C  
C      1  0.5191160000000  0.5794840000000  0.4542130000000 1.0
C      1  0.4898380000000  0.5669940000000  0.5708730000000 1.0
C      1  0.6032180000000  0.4718140000000  0.5291100000000 1.0
C      1  0.4025840000000  0.4606330000000  0.5048050000000 1.0
C      1  0.5867890000000  0.5525950000000  0.5199120000000 1.0
C      1  0.4717920000000  0.4517490000000  0.4253260000000 1.0
C      1  0.4939880000000  0.5369920000000  0.5314840000000 1.0
C      1  0.4320410000000  0.4403320000000  0.4881710000000 1.0
C      1  0.4704920000000  0.4913810000000  0.5268580000000 1.0
C      1  0.5886090000000  0.5014030000000  0.5289010000000 1.0
C      1  0.4629820000000  0.4618460000000  0.5668100000000 1.0
C      1  0.4423450000000  0.4678760000000  0.4798570000000 1.0
C      1  0.5335510000000  0.5805980000000  0.5019770000000 1.0
C      1  0.4680780000000  0.4619600000000  0.5339300000000 1.0
C      1  0.5687140000000  0.5119090000000  0.5772570000000 1.0
C      1  0.5341440000000  0.4084980000000  0.5246340000000 1.0
C      1  0.5387670000000  0.5154680000000  0.5855310000000 1.0
C      1  0.4866180000000  0.4311080000000  0.4425330000000 1.0
C      1  0.4473280000000  0.4938250000000  0.4118530000000 1.0
C      1  0.5080240000000  0.4488630000000  0.5189050000000 1.0
C      1  0.5544040000000  0.5642880000000  0.4845630000000 1.0
C      1  0.5268820000000  0.5540200000000  0.5634350000000 1.0
C      1  0.4894430000000  0.4718870000000  0.4123290000000 1.0
C      1  0.5855810000000  0.4490520000000  0.5332920000000 1.0
C      1  0.4481140000000  0.5197130000000  0.4692840000000 1.0
C      1  0.4279450000000  0.5304890000000  0.4483510000000 1.0
C      1  0.4717660000000  0.5460970000000  0.4336900000000 1.0
C      1  0.4746260000000  0.5470080000000  0.4980310000000 1.0
C      1  0.5018080000000  0.4129070000000  0.5150030000000 1.0
C      1  0.4599890000000  0.4902200000000  0.5816310000000 1.0
C      1  0.4713120000000  0.5860520000000  0.4874950000000 1.0
C      1  0.4274380000000  0.5587770000000  0.4941930000000 1.0
C      1  0.5651930000000  0.4745530000000  0.4668810000000 1.0
C      1  0.5429770000000  0.5563900000000  0.4582820000000 1.0
C      1  0.5067130000000  0.4769900000000  0.4609870000000 1.0
C      1  0.4754430000000  0.4965550000000  0.4070040000000 1.0
C      1  0.4510760000000  0.4218300000000  0.5085890000000 1.0
C      1  0.4159960000000  0.4761250000000  0.5305720000000 1.0
C      1  0.5644730000000  0.5538830000000  0.5528830000000 1.0
C      1  0.5692730000000  0.4888330000000  0.5539750000000 1.0
C      1  0.5703570000000  0.4550590000000  0.4871890000000 1.0
C      1  0.5049740000000  0.5286730000000  0.4770040000000 1.0
C      1  0.4851370000000  0.4574670000000  0.4879230000000 1.0
C      1  0.4831580000000  0.5824560000000  0.5157570000000 1.0
C      1  0.5289190000000  0.5254540000000  0.4569850000000 1.0
C      1  0.4886330000000  0.5356360000000  0.5852480000000 1.0
C      1  0.4053350000000  0.4810380000000  0.4776750000000 1.0
C      1  0.5235970000000  0.5548210000000  0.4305290000000 1.0
C      1  0.5139010000000  0.4452960000000  0.4506460000000 1.0
C      1  0.4205850000000  0.4352260000000  0.4420460000000 1.0
C      1  0.5394090000000  0.5373180000000  0.5395940000000 1.0
C      1  0.5119050000000  0.3882680000000  0.4982780000000 1.0
C      1  0.5485310000000  0.5252310000000  0.5096470000000 1.0
C      1  0.4357670000000  0.5298630000000  0.5720660000000 1.0
C      1  0.4420880000000  0.5054330000000  0.5228980000000 1.0
C      1  0.5601160000000  0.5038730000000  0.4221740000000 1.0
C      1  0.5825460000000  0.5064660000000  0.4979790000000 1.0
C      1  0.4601620000000  0.5510380000000  0.5747240000000 1.0
C      1  0.5408880000000  0.4980160000000  0.4707910000000 1.0
C      1  0.4470560000000  0.4928710000000  0.4401920000000 1.0
C      1  0.4434180000000  0.5219930000000  0.4948450000000 1.0
C      1  0.4178090000000  0.4998070000000  0.4526840000000 1.0
C      1  0.5801570000000  0.5112280000000  0.4717190000000 1.0
C      1  0.5690520000000  0.5441030000000  0.4987950000000 1.0
C      1  0.4944550000000  0.4738620000000  0.5722670000000 1.0
C      1  0.4131700000000  0.4984610000000  0.5053590000000 1.0
C      1  0.5219930000000  0.4695440000000  0.5673760000000 1.0
C      1  0.5734390000000  0.5084210000000  0.4455890000000 1.0
C      1  0.4864910000000  0.5066370000000  0.5747720000000 1.0
C      1  0.5567980000000  0.4086620000000  0.5018270000000 1.0
C      1  0.5203220000000  0.5367000000000  0.5846390000000 1.0
C      1  0.4721820000000  0.4086840000000  0.4639020000000 1.0
C      1  0.5133080000000  0.4719860000000  0.4943980000000 1.0
C      1  0.4911770000000  0.5563280000000  0.4708240000000 1.0
C      1  0.4520370000000  0.5579930000000  0.5115720000000 1.0
C      1  0.5486400000000  0.5922920000000  0.5263420000000 1.0
C      1  0.5661200000000  0.4578250000000  0.5524320000000 1.0
C      1  0.5308820000000  0.4967890000000  0.5033920000000 1.0
C      1  0.5191160000000  0.5349330000000  0.5028040000000 1.0
C      1  0.5235640000000  0.5076010000000  0.5349260000000 1.0
C      1  0.4838770000000  0.5046130000000  0.4787240000000 1.0
C      1  0.4866880000000  0.4328940000000  0.4766470000000 1.0
C      1  0.4381390000000  0.5059610000000  0.5850100000000 1.0
C      1  0.4473080000000  0.5547070000000  0.5433440000000 1.0
C      1  0.4274540000000  0.5295340000000  0.5414630000000 1.0
C      1  0.4811130000000  0.5169960000000  0.5071330000000 1.0
C      1  0.4238320000000  0.4386790000000  0.5204280000000 1.0
C      1  0.4783700000000  0.5627970000000  0.5411760000000 1.0
C      1  0.4175940000000  0.4672890000000  0.4486280000000 1.0
C      1  0.5168590000000  0.5241970000000  0.4261870000000 1.0
C      1  0.5940300000000  0.5310020000000  0.5386630000000 1.0
C      1  0.4669610000000  0.4773420000000  0.4823920000000 1.0
C      1  0.4770870000000  0.4342840000000  0.5193790000000 1.0
C      1  0.4925810000000  0.5073050000000  0.5439570000000 1.0
C      1  0.5827350000000  0.5348830000000  0.5667750000000 1.0
C      1  0.4480980000000  0.5533380000000  0.4478550000000 1.0
C      1  0.5336640000000  0.4790530000000  0.4431240000000 1.0
C      1  0.5055260000000  0.5849480000000  0.4829910000000 1.0
C      1  0.5095230000000  0.5630910000000  0.5161030000000 1.0
C      1  0.4150000000000  0.5319850000000  0.5106600000000 1.0
C      1  0.5365200000000  0.3848180000000  0.4926580000000 1.0
C      1  0.5592430000000  0.4595770000000  0.4404470000000 1.0
C      1  0.5393000000000  0.4492540000000  0.5569000000000 1.0
C      1  0.5543140000000  0.4300400000000  0.4776060000000 1.0
C      1  0.5312090000000  0.5999400000000  0.5477740000000 1.0
C      1  0.5720360000000  0.5768540000000  0.5342440000000 1.0
C      1  0.4372200000000  0.4567440000000  0.5450660000000 1.0
C      1  0.5177320000000  0.4770780000000  0.4143060000000 1.0
C      1  0.4491720000000  0.5697490000000  0.4735130000000 1.0
C      1  0.4798250000000  0.4942860000000  0.4487200000000 1.0
C      1  0.5415210000000  0.4373350000000  0.4524410000000 1.0
C      1  0.4440870000000  0.4541510000000  0.4309920000000 1.0
C      1  0.5762580000000  0.4352890000000  0.5100990000000 1.0
C      1  0.5277100000000  0.4342870000000  0.5365540000000 1.0
C      1  0.5333300000000  0.5035860000000  0.4118820000000 1.0
C      1  0.5172440000000  0.5817720000000  0.5639720000000 1.0
C      1  0.4246110000000  0.4199560000000  0.4650180000000 1.0
C      1  0.4482520000000  0.4054010000000  0.4787960000000 1.0
C      1  0.5371520000000  0.4949230000000  0.5602110000000 1.0
C      1  0.4866640000000  0.5192310000000  0.4265980000000 1.0
C      1  0.4935000000000  0.5664790000000  0.4383430000000 1.0
END
