TITL C-2782229-3092-1388 0.00142915236394688 125000 -220.891594531351 0 0 36 (C1) n - 1
REM
REM in /home/nfs/bkarasulu/CARBON/AIRSS/Generating-Clusters/REBO/Higher-Symm/SD-CG/HFTN-CG
REM
REM
REM
REM
REM
REM ./C.cell (12c818d87b63d06a65506943cc24bca4)
REM
REM compiler GCC version 9.2.1 20190827 (Red Hat 9.2.1-1)
REM options -cpp -mtune=generic -march=x86-64 -g -O0 -fpre-include=/usr/include/finclude/math-vector-fortran.h
REM seed -1933936888 1467940960 -1700700891 715176828 -872318300 260150544 -775487241 -1688003722 490469839 123782454 -561030960 731379238 -431116215 -1087717621 1964983366 -1155412488 -1632623907 1060306589 -1160423542 -460003271 631099073 -323795661 -1016761895 -1731803631 82871147 1111296757 1524898857 -238633240 -1548843286 -27512069 693707776 -1949504595 -113391282
REM
CELL 1.54180   50.00000   50.00000   50.00000   90.00000   90.00000   90.00000
LATT -1
SFAC C  
C      1  0.4851710000000  0.5245280000000  0.5259120000000 1.0
C      1  0.5283910000000  0.4989820000000  0.5290220000000 1.0
C      1  0.4854950000000  0.4742880000000  0.5259310000000 1.0
C      1  0.4850420000000  0.4755590000000  0.4737930000000 1.0
C      1  0.5277280000000  0.5009340000000  0.4748520000000 1.0
C      1  0.4834940000000  0.5254870000000  0.4723840000000 1.0
C      1  0.5142700000000  0.4759980000000  0.4744130000000 1.0
C      1  0.4696540000000  0.4999070000000  0.4733440000000 1.0
C      1  0.5114890000000  0.5253860000000  0.4717830000000 1.0
C      1  0.5140860000000  0.5237360000000  0.5279770000000 1.0
C      1  0.4708910000000  0.4995560000000  0.5257560000000 1.0
C      1  0.5141860000000  0.4738400000000  0.5269430000000 1.0
C      1  0.5576940000000  0.4514130000000  0.5228550000000 1.0
C      1  0.4289300000000  0.4739940000000  0.5240450000000 1.0
C      1  0.5166200000000  0.5718250000000  0.5215500000000 1.0
C      1  0.5604880000000  0.5540810000000  0.4720610000000 1.0
C      1  0.4273230000000  0.5245900000000  0.4773090000000 1.0
C      1  0.5140790000000  0.4268820000000  0.4751600000000 1.0
C      1  0.4408100000000  0.5488190000000  0.4777230000000 1.0
C      1  0.5724910000000  0.5296780000000  0.4756380000000 1.0
C      1  0.4863470000000  0.4265000000000  0.4749880000000 1.0
C      1  0.4429150000000  0.4500470000000  0.5235020000000 1.0
C      1  0.5709000000000  0.4757630000000  0.5238410000000 1.0
C      1  0.4889530000000  0.5733890000000  0.5217300000000 1.0
C      1  0.4698070000000  0.4523220000000  0.5138700000000 1.0
C      1  0.4751200000000  0.5495750000000  0.5138040000000 1.0
C      1  0.5550630000000  0.4983990000000  0.5173280000000 1.0
C      1  0.4683070000000  0.5469780000000  0.4854960000000 1.0
C      1  0.4741420000000  0.4504220000000  0.4849890000000 1.0
C      1  0.5542850000000  0.5084790000000  0.4893860000000 1.0
C      1  0.5355940000000  0.5396970000000  0.4873360000000 1.0
C      1  0.5255850000000  0.4510610000000  0.4853610000000 1.0
C      1  0.4429810000000  0.5021450000000  0.4858280000000 1.0
C      1  0.5304450000000  0.4528100000000  0.5141100000000 1.0
C      1  0.5274790000000  0.5463310000000  0.5154740000000 1.0
C      1  0.4437440000000  0.4965990000000  0.5145070000000 1.0
END
