TITL C-2782235-7892-828 0.00242735789590489 125000 -612.939404811664 0 0 105 (C1) n - 1
REM
REM in /home/nfs/bkarasulu/CARBON/AIRSS/Generating-Clusters/REBO/Higher-Symm/SD-CG/HFTN-CG
REM
REM
REM
REM
REM
REM ./C.cell (12c818d87b63d06a65506943cc24bca4)
REM
REM compiler GCC version 9.2.1 20190827 (Red Hat 9.2.1-1)
REM options -cpp -mtune=generic -march=x86-64 -g -O0 -fpre-include=/usr/include/finclude/math-vector-fortran.h
REM seed 1371736958 1128197390 1741950967 398598052 -405097685 1328112759 261590064 -434732429 748908977 394810648 525380493 -134379274 -2143907157 1561795771 379963265 -2099459170 -1786914637 -244007466 -1684580481 -1176519254 -1439462320 408381016 1138143898 1459132010 -1226779247 1181068921 2122252259 1844935630 240702395 553969387 -1459999504 -1647681919 -353833901
REM
CELL 1.54180   50.00000   50.00000   50.00000   90.00000   90.00000   90.00000
LATT -1
SFAC C  
C      1  0.4475130000000  0.4762930000000  0.4713640000000 1.0
C      1  0.5092890000000  0.4416410000000  0.4693820000000 1.0
C      1  0.5579080000000  0.4901420000000  0.4707570000000 1.0
C      1  0.5268580000000  0.5515830000000  0.4691810000000 1.0
C      1  0.4585850000000  0.5407820000000  0.4701040000000 1.0
C      1  0.5162850000000  0.5087390000000  0.5428420000000 1.0
C      1  0.4951020000000  0.5279160000000  0.5543960000000 1.0
C      1  0.4765130000000  0.5051900000000  0.5443200000000 1.0
C      1  0.4818340000000  0.4784610000000  0.5587890000000 1.0
C      1  0.5090410000000  0.4820980000000  0.5447680000000 1.0
C      1  0.5236260000000  0.5590080000000  0.5256940000000 1.0
C      1  0.4533540000000  0.5426210000000  0.5262280000000 1.0
C      1  0.4483980000000  0.4671410000000  0.5277830000000 1.0
C      1  0.5153020000000  0.4359030000000  0.5268680000000 1.0
C      1  0.5633530000000  0.4947950000000  0.5265850000000 1.0
C      1  0.4273750000000  0.4769840000000  0.4369000000000 1.0
C      1  0.4977360000000  0.4256400000000  0.4346280000000 1.0
C      1  0.5719670000000  0.4758360000000  0.4362330000000 1.0
C      1  0.5462300000000  0.5598580000000  0.4352290000000 1.0
C      1  0.4564140000000  0.5610590000000  0.4357140000000 1.0
C      1  0.4662570000000  0.4545010000000  0.4551500000000 1.0
C      1  0.5364550000000  0.4535290000000  0.4560350000000 1.0
C      1  0.5557110000000  0.5192890000000  0.4557910000000 1.0
C      1  0.4989220000000  0.5590580000000  0.4544590000000 1.0
C      1  0.4422530000000  0.5171910000000  0.4542180000000 1.0
C      1  0.5517010000000  0.5718520000000  0.4624500000000 1.0
C      1  0.4467810000000  0.5705310000000  0.4627440000000 1.0
C      1  0.4157420000000  0.4722240000000  0.4650710000000 1.0
C      1  0.5064610000000  0.4112730000000  0.4596010000000 1.0
C      1  0.5850800000000  0.4733180000000  0.4637790000000 1.0
C      1  0.4718110000000  0.5450350000000  0.4997410000000 1.0
C      1  0.4484520000000  0.4897420000000  0.5021430000000 1.0
C      1  0.4960130000000  0.4448400000000  0.5002970000000 1.0
C      1  0.5489480000000  0.4798920000000  0.5014810000000 1.0
C      1  0.5311500000000  0.5416450000000  0.5006220000000 1.0
C      1  0.5098260000000  0.5246560000000  0.4714000000000 1.0
C      1  0.4803550000000  0.5164700000000  0.4651200000000 1.0
C      1  0.4773500000000  0.4874010000000  0.4748000000000 1.0
C      1  0.5067650000000  0.4736600000000  0.4731250000000 1.0
C      1  0.5271270000000  0.4980850000000  0.4733970000000 1.0
C      1  0.4127720000000  0.4823550000000  0.5179800000000 1.0
C      1  0.4959480000000  0.4059510000000  0.5089380000000 1.0
C      1  0.5801650000000  0.4594010000000  0.5150040000000 1.0
C      1  0.5611650000000  0.5647470000000  0.5132840000000 1.0
C      1  0.4562710000000  0.5801930000000  0.5131340000000 1.0
C      1  0.5212730000000  0.5190430000000  0.5838380000000 1.0
C      1  0.4903370000000  0.5300700000000  0.5871070000000 1.0
C      1  0.4722030000000  0.5033170000000  0.5885710000000 1.0
C      1  0.4935150000000  0.4805680000000  0.5876990000000 1.0
C      1  0.5220310000000  0.4897930000000  0.5849300000000 1.0
C      1  0.5594110000000  0.5294900000000  0.4856530000000 1.0
C      1  0.4908610000000  0.5680630000000  0.4831270000000 1.0
C      1  0.4325530000000  0.5134790000000  0.4833700000000 1.0
C      1  0.4671390000000  0.4403460000000  0.4820400000000 1.0
C      1  0.5494190000000  0.4513960000000  0.4828900000000 1.0
C      1  0.4473780000000  0.4978160000000  0.4348100000000 1.0
C      1  0.4848820000000  0.4512370000000  0.4349400000000 1.0
C      1  0.5434760000000  0.4713540000000  0.4355990000000 1.0
C      1  0.5415540000000  0.5315770000000  0.4351340000000 1.0
C      1  0.4823190000000  0.5488950000000  0.4347180000000 1.0
C      1  0.4675630000000  0.4172350000000  0.5050300000000 1.0
C      1  0.5764200000000  0.4333300000000  0.5058450000000 1.0
C      1  0.5833740000000  0.5431280000000  0.5051200000000 1.0
C      1  0.4830430000000  0.5923970000000  0.5040930000000 1.0
C      1  0.4104750000000  0.5109950000000  0.5079620000000 1.0
C      1  0.5397470000000  0.5325030000000  0.5682970000000 1.0
C      1  0.4794070000000  0.5567770000000  0.5715680000000 1.0
C      1  0.4488320000000  0.5003600000000  0.5724320000000 1.0
C      1  0.4780620000000  0.4253650000000  0.5701960000000 1.0
C      1  0.5400840000000  0.4740030000000  0.5685050000000 1.0
C      1  0.4936960000000  0.5235380000000  0.5018950000000 1.0
C      1  0.4750010000000  0.5028510000000  0.5150340000000 1.0
C      1  0.4849270000000  0.4743820000000  0.5059230000000 1.0
C      1  0.5175590000000  0.4778490000000  0.5060220000000 1.0
C      1  0.5241910000000  0.5108350000000  0.5057080000000 1.0
C      1  0.5083320000000  0.5898260000000  0.5260970000000 1.0
C      1  0.4197570000000  0.5356650000000  0.5283480000000 1.0
C      1  0.4468260000000  0.4326410000000  0.5256670000000 1.0
C      1  0.5351100000000  0.4160180000000  0.5222310000000 1.0
C      1  0.5875550000000  0.5190360000000  0.5284510000000 1.0
C      1  0.4315390000000  0.4871190000000  0.5460460000000 1.0
C      1  0.4890700000000  0.4224540000000  0.5381430000000 1.0
C      1  0.5598970000000  0.4672170000000  0.5413640000000 1.0
C      1  0.5490690000000  0.5530340000000  0.5428230000000 1.0
C      1  0.4640340000000  0.5667630000000  0.5429120000000 1.0
C      1  0.4258770000000  0.5428220000000  0.4973400000000 1.0
C      1  0.4385970000000  0.4435570000000  0.4972340000000 1.0
C      1  0.5477350000000  0.4201800000000  0.4935380000000 1.0
C      1  0.5850910000000  0.5097710000000  0.4968710000000 1.0
C      1  0.5179360000000  0.5844590000000  0.4955520000000 1.0
C      1  0.5463790000000  0.5776500000000  0.4921820000000 1.0
C      1  0.4399330000000  0.5680700000000  0.4925320000000 1.0
C      1  0.4182540000000  0.4635290000000  0.4953020000000 1.0
C      1  0.5165810000000  0.4071210000000  0.4881690000000 1.0
C      1  0.5882140000000  0.4794330000000  0.4942930000000 1.0
C      1  0.4907730000000  0.5235670000000  0.4240040000000 1.0
C      1  0.4744970000000  0.4987210000000  0.4239020000000 1.0
C      1  0.4936460000000  0.4760300000000  0.4235830000000 1.0
C      1  0.5213600000000  0.4864960000000  0.4243970000000 1.0
C      1  0.5195970000000  0.5160780000000  0.4244150000000 1.0
C      1  0.4656260000000  0.4456360000000  0.5482110000000 1.0
C      1  0.5274680000000  0.4580230000000  0.5412280000000 1.0
C      1  0.5611660000000  0.5220250000000  0.5464710000000 1.0
C      1  0.4973570000000  0.5670430000000  0.5457870000000 1.0
C      1  0.4398340000000  0.5194950000000  0.5473250000000 1.0
END
