TITL C-2782234-8014-1044 -0.00388853079905855 125000 -555.773581154302 0 0 97 (C1) n - 1
REM
REM in /home/nfs/bkarasulu/CARBON/AIRSS/Generating-Clusters/REBO/Higher-Symm/SD-CG/HFTN-CG
REM
REM
REM
REM
REM
REM ./C.cell (12c818d87b63d06a65506943cc24bca4)
REM
REM compiler GCC version 9.2.1 20190827 (Red Hat 9.2.1-1)
REM options -cpp -mtune=generic -march=x86-64 -g -O0 -fpre-include=/usr/include/finclude/math-vector-fortran.h
REM seed -1387586215 1032157142 -887406332 668947299 -443946314 1441680304 1828926570 1301639911 -534558935 -209598843 821294390 7876607 -547283031 818842789 -1890070286 -1141239916 359537095 491127617 -1552909926 305903525 -924357125 201184296 -858493491 -1558700346 -837625824 -1884378883 353165491 1915300753 1677126472 -2143603347 1893476744 64205546 -1431408601
REM
CELL 1.54180   50.00000   50.00000   50.00000   90.00000   90.00000   90.00000
LATT -1
SFAC C  
C      1  0.4786580000000  0.4248950000000  0.4648220000000 1.0
C      1  0.5883730000000  0.4907720000000  0.5397210000000 1.0
C      1  0.5083860000000  0.5900630000000  0.4572250000000 1.0
C      1  0.4196680000000  0.5130440000000  0.5407200000000 1.0
C      1  0.4729030000000  0.4424670000000  0.4378370000000 1.0
C      1  0.5662790000000  0.4732950000000  0.5538830000000 1.0
C      1  0.5205230000000  0.5670390000000  0.4376470000000 1.0
C      1  0.4450960000000  0.5231360000000  0.5563790000000 1.0
C      1  0.4839040000000  0.5097730000000  0.4763020000000 1.0
C      1  0.4964530000000  0.4746210000000  0.5180040000000 1.0
C      1  0.5211400000000  0.4978460000000  0.4682890000000 1.0
C      1  0.5058230000000  0.5182890000000  0.5265080000000 1.0
C      1  0.5454830000000  0.4914490000000  0.5357790000000 1.0
C      1  0.5011350000000  0.5507810000000  0.4574460000000 1.0
C      1  0.4590560000000  0.5038330000000  0.5340840000000 1.0
C      1  0.4855840000000  0.4658420000000  0.4587130000000 1.0
C      1  0.4653560000000  0.4890240000000  0.4635060000000 1.0
C      1  0.5156190000000  0.4571370000000  0.5356920000000 1.0
C      1  0.5467580000000  0.5159320000000  0.4625840000000 1.0
C      1  0.4919770000000  0.5423540000000  0.5415150000000 1.0
C      1  0.5006210000000  0.5153380000000  0.4260050000000 1.0
C      1  0.4899070000000  0.4875680000000  0.5701180000000 1.0
C      1  0.5175670000000  0.4817050000000  0.4144040000000 1.0
C      1  0.5213260000000  0.5068090000000  0.5835320000000 1.0
C      1  0.4403700000000  0.5597380000000  0.4893350000000 1.0
C      1  0.4343340000000  0.4406370000000  0.5083860000000 1.0
C      1  0.5592330000000  0.4351780000000  0.4975900000000 1.0
C      1  0.5545990000000  0.5591380000000  0.5060460000000 1.0
C      1  0.5372130000000  0.4246770000000  0.5215210000000 1.0
C      1  0.5645600000000  0.5390250000000  0.4803660000000 1.0
C      1  0.4562280000000  0.5696760000000  0.5179830000000 1.0
C      1  0.4268320000000  0.4593170000000  0.4807580000000 1.0
C      1  0.4367680000000  0.5056670000000  0.4631200000000 1.0
C      1  0.4884270000000  0.4286280000000  0.5424430000000 1.0
C      1  0.5631760000000  0.4874240000000  0.4852560000000 1.0
C      1  0.5044920000000  0.5682720000000  0.5295320000000 1.0
C      1  0.5307370000000  0.5112780000000  0.4171600000000 1.0
C      1  0.4897720000000  0.5174620000000  0.5864640000000 1.0
C      1  0.4842270000000  0.4872130000000  0.4161090000000 1.0
C      1  0.5198590000000  0.4734670000000  0.5772210000000 1.0
C      1  0.4183020000000  0.4812020000000  0.5365160000000 1.0
C      1  0.5124170000000  0.4212360000000  0.4665470000000 1.0
C      1  0.5805860000000  0.5216610000000  0.5373440000000 1.0
C      1  0.4765730000000  0.5872190000000  0.4618430000000 1.0
C      1  0.4540320000000  0.5365850000000  0.5087030000000 1.0
C      1  0.4609170000000  0.4408750000000  0.4890090000000 1.0
C      1  0.5453600000000  0.4613150000000  0.5094680000000 1.0
C      1  0.5272670000000  0.5508340000000  0.4876640000000 1.0
C      1  0.4951730000000  0.5248970000000  0.4515770000000 1.0
C      1  0.4817670000000  0.4896420000000  0.5410350000000 1.0
C      1  0.5100850000000  0.4828610000000  0.4479160000000 1.0
C      1  0.5230210000000  0.5036940000000  0.5493930000000 1.0
C      1  0.5602790000000  0.4589800000000  0.4726090000000 1.0
C      1  0.5351170000000  0.5617750000000  0.5341880000000 1.0
C      1  0.4379090000000  0.5382570000000  0.4629280000000 1.0
C      1  0.4563340000000  0.4329530000000  0.5336650000000 1.0
C      1  0.4977110000000  0.4540040000000  0.4840270000000 1.0
C      1  0.5488880000000  0.5007960000000  0.5091660000000 1.0
C      1  0.4983830000000  0.5615670000000  0.4858720000000 1.0
C      1  0.4460880000000  0.4933430000000  0.5105500000000 1.0
C      1  0.5322740000000  0.4404310000000  0.4694190000000 1.0
C      1  0.5568800000000  0.5358810000000  0.5301460000000 1.0
C      1  0.4611530000000  0.5630000000000  0.4632910000000 1.0
C      1  0.4392090000000  0.4616560000000  0.5337670000000 1.0
C      1  0.5247680000000  0.4645070000000  0.4899630000000 1.0
C      1  0.5314790000000  0.5269980000000  0.5085080000000 1.0
C      1  0.4736100000000  0.5383700000000  0.4836610000000 1.0
C      1  0.4652760000000  0.4655110000000  0.5109610000000 1.0
C      1  0.4951410000000  0.4218330000000  0.4947660000000 1.0
C      1  0.5957430000000  0.5091760000000  0.5126630000000 1.0
C      1  0.4949920000000  0.5952920000000  0.4885940000000 1.0
C      1  0.4133450000000  0.5005910000000  0.5093020000000 1.0
C      1  0.4966880000000  0.4558010000000  0.4217080000000 1.0
C      1  0.5498720000000  0.4900480000000  0.5754020000000 1.0
C      1  0.4946780000000  0.5557050000000  0.4184690000000 1.0
C      1  0.4603150000000  0.5034180000000  0.5763290000000 1.0
C      1  0.4523880000000  0.5254570000000  0.4361210000000 1.0
C      1  0.4679130000000  0.4508210000000  0.5603860000000 1.0
C      1  0.5465190000000  0.4667250000000  0.4430300000000 1.0
C      1  0.5344400000000  0.5427400000000  0.5624010000000 1.0
C      1  0.5080870000000  0.4198350000000  0.5213520000000 1.0
C      1  0.5809880000000  0.5115220000000  0.4879810000000 1.0
C      1  0.4846450000000  0.5831810000000  0.5162740000000 1.0
C      1  0.4199800000000  0.4877200000000  0.4809870000000 1.0
C      1  0.5052660000000  0.5397850000000  0.5690120000000 1.0
C      1  0.4601540000000  0.4960070000000  0.4326950000000 1.0
C      1  0.5015660000000  0.4500330000000  0.5641360000000 1.0
C      1  0.5469300000000  0.4952450000000  0.4379160000000 1.0
C      1  0.4487560000000  0.4506640000000  0.4595680000000 1.0
C      1  0.5480950000000  0.4518100000000  0.5397520000000 1.0
C      1  0.5409350000000  0.5487730000000  0.4572790000000 1.0
C      1  0.4618700000000  0.5433790000000  0.5391060000000 1.0
C      1  0.5286870000000  0.4478830000000  0.4306920000000 1.0
C      1  0.5536890000000  0.5232080000000  0.5679470000000 1.0
C      1  0.4727700000000  0.5438540000000  0.4228230000000 1.0
C      1  0.4532080000000  0.4724450000000  0.5719070000000 1.0
C      1  0.5050410000000  0.4989250000000  0.4982480000000 1.0
END
