TITL C-2782235-7892-1090 0.00448813545108099 125000 -824.133483885133 0 0 141 (C1) n - 1
REM
REM in /home/nfs/bkarasulu/CARBON/AIRSS/Generating-Clusters/REBO/Higher-Symm/SD-CG/HFTN-CG
REM
REM
REM
REM
REM
REM ./C.cell (12c818d87b63d06a65506943cc24bca4)
REM
REM compiler GCC version 9.2.1 20190827 (Red Hat 9.2.1-1)
REM options -cpp -mtune=generic -march=x86-64 -g -O0 -fpre-include=/usr/include/finclude/math-vector-fortran.h
REM seed -1933447151 -914791475 761388867 -998036996 731149441 1431019131 -1067760584 -593151172 561224004 -790783099 -1946538080 -1548579258 -1748022851 2126901573 -631846940 -1315356652 -1737663335 -1710655407 -1284260356 979113786 -1781850592 860017063 -212543700 -91630210 -2095801100 502024460 -1610124369 -2142485409 -110351852 2057405950 2050408776 -32458867 2102720021
REM
CELL 1.54180   50.00000   50.00000   50.00000   90.00000   90.00000   90.00000
LATT -1
SFAC C  
C      1  0.5688010000000  0.4834820000000  0.5704140000000 1.0
C      1  0.5567370000000  0.5587660000000  0.5478980000000 1.0
C      1  0.5623590000000  0.5567930000000  0.4538690000000 1.0
C      1  0.5661690000000  0.4707070000000  0.4327000000000 1.0
C      1  0.5610280000000  0.4255670000000  0.5019090000000 1.0
C      1  0.5423400000000  0.5949990000000  0.4975640000000 1.0
C      1  0.5482700000000  0.5217980000000  0.4136350000000 1.0
C      1  0.5494780000000  0.4238310000000  0.4520380000000 1.0
C      1  0.5415210000000  0.4276910000000  0.5724940000000 1.0
C      1  0.5481430000000  0.5304320000000  0.5838850000000 1.0
C      1  0.4667370000000  0.4575740000000  0.4752120000000 1.0
C      1  0.4546110000000  0.4691400000000  0.5257680000000 1.0
C      1  0.4548990000000  0.5109630000000  0.5395880000000 1.0
C      1  0.4594460000000  0.5414750000000  0.4926210000000 1.0
C      1  0.4592990000000  0.5108920000000  0.4586370000000 1.0
C      1  0.5958230000000  0.4698010000000  0.4768720000000 1.0
C      1  0.6012450000000  0.4667030000000  0.5339830000000 1.0
C      1  0.6043660000000  0.5161290000000  0.5432320000000 1.0
C      1  0.5919630000000  0.5400070000000  0.4918810000000 1.0
C      1  0.5925030000000  0.5122470000000  0.4487610000000 1.0
C      1  0.4528070000000  0.4623960000000  0.5593030000000 1.0
C      1  0.4543370000000  0.5424760000000  0.5463900000000 1.0
C      1  0.4546410000000  0.5627130000000  0.4694200000000 1.0
C      1  0.4506180000000  0.4946340000000  0.4318260000000 1.0
C      1  0.4507700000000  0.4312170000000  0.4797970000000 1.0
C      1  0.5038470000000  0.4349010000000  0.5348350000000 1.0
C      1  0.5011780000000  0.5160200000000  0.5942050000000 1.0
C      1  0.5050080000000  0.5975460000000  0.5113110000000 1.0
C      1  0.5045170000000  0.5281870000000  0.4207220000000 1.0
C      1  0.5023280000000  0.4415930000000  0.4467450000000 1.0
C      1  0.5087850000000  0.5699190000000  0.4917630000000 1.0
C      1  0.5099040000000  0.4980040000000  0.4344100000000 1.0
C      1  0.5055900000000  0.4404060000000  0.4808350000000 1.0
C      1  0.5103370000000  0.4644300000000  0.5517380000000 1.0
C      1  0.5094250000000  0.5221280000000  0.5614910000000 1.0
C      1  0.4632830000000  0.4924430000000  0.5606370000000 1.0
C      1  0.4596890000000  0.5564010000000  0.5199150000000 1.0
C      1  0.4617730000000  0.5398830000000  0.4492130000000 1.0
C      1  0.4619420000000  0.4706360000000  0.4511800000000 1.0
C      1  0.4557110000000  0.4415490000000  0.5099340000000 1.0
C      1  0.5967150000000  0.4914630000000  0.5525500000000 1.0
C      1  0.5987160000000  0.5337860000000  0.5173530000000 1.0
C      1  0.5884700000000  0.5362370000000  0.4613330000000 1.0
C      1  0.5900730000000  0.4823720000000  0.4538400000000 1.0
C      1  0.6031590000000  0.4614140000000  0.5070960000000 1.0
C      1  0.4870810000000  0.4743820000000  0.4326920000000 1.0
C      1  0.4871920000000  0.4313910000000  0.5074750000000 1.0
C      1  0.4953810000000  0.4911840000000  0.5636480000000 1.0
C      1  0.4892790000000  0.5701260000000  0.5202800000000 1.0
C      1  0.4826020000000  0.5507700000000  0.4270590000000 1.0
C      1  0.5170160000000  0.4844960000000  0.4811100000000 1.0
C      1  0.5157520000000  0.4715260000000  0.5101020000000 1.0
C      1  0.5144730000000  0.4978430000000  0.5292780000000 1.0
C      1  0.5133460000000  0.5255630000000  0.5137410000000 1.0
C      1  0.5161180000000  0.5163330000000  0.4836050000000 1.0
C      1  0.4284180000000  0.4747000000000  0.5042460000000 1.0
C      1  0.4286560000000  0.4994170000000  0.5260460000000 1.0
C      1  0.4349030000000  0.5261630000000  0.5087160000000 1.0
C      1  0.4321710000000  0.5171030000000  0.4767210000000 1.0
C      1  0.4176050000000  0.4902100000000  0.4759740000000 1.0
C      1  0.4954320000000  0.5002350000000  0.4035240000000 1.0
C      1  0.4951770000000  0.4130190000000  0.4639560000000 1.0
C      1  0.4964270000000  0.4385030000000  0.5672980000000 1.0
C      1  0.4944980000000  0.5459040000000  0.5793800000000 1.0
C      1  0.4928090000000  0.5970830000000  0.4790160000000 1.0
C      1  0.5415720000000  0.4673230000000  0.5573310000000 1.0
C      1  0.5318220000000  0.5353020000000  0.5477650000000 1.0
C      1  0.5319820000000  0.5612450000000  0.4692940000000 1.0
C      1  0.5386800000000  0.4898960000000  0.4392380000000 1.0
C      1  0.5338210000000  0.4422710000000  0.4897970000000 1.0
C      1  0.4808300000000  0.4909890000000  0.5959230000000 1.0
C      1  0.4727040000000  0.5817920000000  0.5475430000000 1.0
C      1  0.4611000000000  0.5758070000000  0.4323270000000 1.0
C      1  0.4628360000000  0.4620480000000  0.4122330000000 1.0
C      1  0.4672870000000  0.4039770000000  0.5039700000000 1.0
C      1  0.4824840000000  0.4855620000000  0.5262290000000 1.0
C      1  0.4810730000000  0.5180090000000  0.5208410000000 1.0
C      1  0.4831110000000  0.5234690000000  0.4881350000000 1.0
C      1  0.4847330000000  0.4941700000000  0.4737870000000 1.0
C      1  0.4840000000000  0.4698730000000  0.4974350000000 1.0
C      1  0.5399560000000  0.4963210000000  0.5458660000000 1.0
C      1  0.5307330000000  0.5508720000000  0.5188920000000 1.0
C      1  0.5353620000000  0.5309110000000  0.4676290000000 1.0
C      1  0.5392620000000  0.4730370000000  0.4649150000000 1.0
C      1  0.5372830000000  0.4507310000000  0.5212210000000 1.0
C      1  0.4288470000000  0.5200110000000  0.5827030000000 1.0
C      1  0.4353180000000  0.5767020000000  0.5113870000000 1.0
C      1  0.4192400000000  0.5303820000000  0.4225720000000 1.0
C      1  0.4238100000000  0.4389620000000  0.4407880000000 1.0
C      1  0.4319940000000  0.4309330000000  0.5301080000000 1.0
C      1  0.4441350000000  0.4048360000000  0.5206580000000 1.0
C      1  0.4502630000000  0.5038350000000  0.5880910000000 1.0
C      1  0.4474350000000  0.5911170000000  0.5355120000000 1.0
C      1  0.4386800000000  0.5506930000000  0.4274820000000 1.0
C      1  0.4408430000000  0.4470830000000  0.4211080000000 1.0
C      1  0.5851420000000  0.4406620000000  0.4886840000000 1.0
C      1  0.5794660000000  0.4563380000000  0.5527230000000 1.0
C      1  0.5829600000000  0.5410270000000  0.5455240000000 1.0
C      1  0.5673000000000  0.5569260000000  0.4875000000000 1.0
C      1  0.5732390000000  0.5029170000000  0.4242850000000 1.0
C      1  0.4259140000000  0.5332070000000  0.5574680000000 1.0
C      1  0.4282790000000  0.5672010000000  0.4849720000000 1.0
C      1  0.4211680000000  0.5025030000000  0.4299300000000 1.0
C      1  0.4236030000000  0.4369040000000  0.4689630000000 1.0
C      1  0.4258070000000  0.4523240000000  0.5477150000000 1.0
C      1  0.4104790000000  0.4528210000000  0.4872590000000 1.0
C      1  0.4113820000000  0.4750010000000  0.5402960000000 1.0
C      1  0.4119460000000  0.5350950000000  0.5323200000000 1.0
C      1  0.4117010000000  0.5438860000000  0.4819900000000 1.0
C      1  0.4068300000000  0.4880440000000  0.4505400000000 1.0
C      1  0.5333200000000  0.5545860000000  0.5827260000000 1.0
C      1  0.5318330000000  0.6033410000000  0.4737790000000 1.0
C      1  0.5348510000000  0.4963160000000  0.3993010000000 1.0
C      1  0.5342520000000  0.4048050000000  0.4662000000000 1.0
C      1  0.5286460000000  0.4388750000000  0.5907270000000 1.0
C      1  0.5148210000000  0.4027200000000  0.4897610000000 1.0
C      1  0.5089260000000  0.4628830000000  0.5915990000000 1.0
C      1  0.5131480000000  0.5706210000000  0.5651220000000 1.0
C      1  0.5127830000000  0.5838650000000  0.4545650000000 1.0
C      1  0.5167150000000  0.4731920000000  0.4042110000000 1.0
C      1  0.4672660000000  0.4054620000000  0.4728120000000 1.0
C      1  0.4763550000000  0.4607300000000  0.5811570000000 1.0
C      1  0.4700290000000  0.5591370000000  0.5671610000000 1.0
C      1  0.4683920000000  0.5893840000000  0.4601700000000 1.0
C      1  0.4665100000000  0.4925490000000  0.4038060000000 1.0
C      1  0.5471760000000  0.4459290000000  0.4317380000000 1.0
C      1  0.5484040000000  0.4092330000000  0.5206580000000 1.0
C      1  0.5475430000000  0.5000700000000  0.5872620000000 1.0
C      1  0.5476100000000  0.5838960000000  0.5418490000000 1.0
C      1  0.5438710000000  0.5511360000000  0.4279330000000 1.0
C      1  0.5600710000000  0.5198280000000  0.5549030000000 1.0
C      1  0.5482890000000  0.5682840000000  0.5050530000000 1.0
C      1  0.5520630000000  0.5177820000000  0.4477310000000 1.0
C      1  0.5591340000000  0.4489040000000  0.4697670000000 1.0
C      1  0.5541520000000  0.4395620000000  0.5457660000000 1.0
C      1  0.5213370000000  0.4902030000000  0.5940170000000 1.0
C      1  0.5183040000000  0.5878520000000  0.5412630000000 1.0
C      1  0.5139020000000  0.5589460000000  0.4330810000000 1.0
C      1  0.5197060000000  0.4525280000000  0.4252930000000 1.0
C      1  0.5198010000000  0.4104710000000  0.5170560000000 1.0
C      1  0.3967370000000  0.5380340000000  0.5061880000000 1.0
END
