TITL C-2782239-8622-1455 -0.000959787705566879 125000 -460.257676132904 0 0 82 (C2) n - 1
REM
REM in /home/nfs/bkarasulu/CARBON/AIRSS/Generating-Clusters/REBO/Higher-Symm/SD-CG/HFTN-CG
REM
REM
REM
REM
REM
REM ./C.cell (12c818d87b63d06a65506943cc24bca4)
REM
REM compiler GCC version 9.2.1 20190827 (Red Hat 9.2.1-1)
REM options -cpp -mtune=generic -march=x86-64 -g -O0 -fpre-include=/usr/include/finclude/math-vector-fortran.h
REM seed 1540475136 2073674146 -1794842618 -277948698 1964425065 467439274 -1687906621 -2074478169 573545162 1806568176 758743457 1217287879 -1522461903 -2018101734 630770127 -567155542 1695087386 -631167361 345536984 -2031449938 -1762862568 1686260773 466835140 1484294190 2071859736 1193806628 1338997988 1709508919 463792449 1818743895 -62359390 -1393324398 92642453
REM
CELL 1.54180   50.00000   50.00000   50.00000   90.00000   90.00000   90.00000
LATT -1
SFAC C  
C      1  0.5624320000000  0.4322840000000  0.4907650000000 1.0
C      1  0.5622880000000  0.5630000000000  0.5170510000000 1.0
C      1  0.4384260000000  0.5628930000000  0.4829490000000 1.0
C      1  0.4385070000000  0.4321780000000  0.5092360000000 1.0
C      1  0.5396950000000  0.5802090000000  0.5043170000000 1.0
C      1  0.5356330000000  0.4178740000000  0.4993650000000 1.0
C      1  0.4653310000000  0.4178130000000  0.5006360000000 1.0
C      1  0.4609890000000  0.5801410000000  0.4956830000000 1.0
C      1  0.4876100000000  0.4297280000000  0.5193920000000 1.0
C      1  0.4926830000000  0.5745090000000  0.4847060000000 1.0
C      1  0.5080110000000  0.5745230000000  0.5152940000000 1.0
C      1  0.5133340000000  0.4297500000000  0.4806090000000 1.0
C      1  0.5271440000000  0.4939390000000  0.4256360000000 1.0
C      1  0.5320810000000  0.5059730000000  0.5713760000000 1.0
C      1  0.4687310000000  0.5059180000000  0.4286240000000 1.0
C      1  0.4736890000000  0.4938930000000  0.5743640000000 1.0
C      1  0.5534470000000  0.5216670000000  0.4904680000000 1.0
C      1  0.5526750000000  0.4746820000000  0.5150260000000 1.0
C      1  0.4481910000000  0.4745920000000  0.4849740000000 1.0
C      1  0.4473380000000  0.5215750000000  0.5095310000000 1.0
C      1  0.4322870000000  0.4583520000000  0.5077030000000 1.0
C      1  0.4331750000000  0.5366600000000  0.4847180000000 1.0
C      1  0.5675840000000  0.5367760000000  0.5152820000000 1.0
C      1  0.5686070000000  0.4584690000000  0.4922980000000 1.0
C      1  0.5197220000000  0.5597000000000  0.5425710000000 1.0
C      1  0.5269930000000  0.4458030000000  0.4553760000000 1.0
C      1  0.4739230000000  0.4457570000000  0.5446240000000 1.0
C      1  0.4809970000000  0.5596670000000  0.4574280000000 1.0
C      1  0.4787860000000  0.5154590000000  0.5574590000000 1.0
C      1  0.4797140000000  0.4849120000000  0.4432990000000 1.0
C      1  0.5211340000000  0.4849480000000  0.5567010000000 1.0
C      1  0.5220090000000  0.5154960000000  0.4425410000000 1.0
C      1  0.4869820000000  0.4856750000000  0.6234830000000 1.0
C      1  0.4718890000000  0.5124240000000  0.3780600000000 1.0
C      1  0.5289120000000  0.5124740000000  0.6219400000000 1.0
C      1  0.5138650000000  0.4856970000000  0.3765170000000 1.0
C      1  0.5371500000000  0.3905450000000  0.5042340000000 1.0
C      1  0.5468230000000  0.6090890000000  0.4987950000000 1.0
C      1  0.4538120000000  0.6090090000000  0.5012050000000 1.0
C      1  0.4638610000000  0.3904820000000  0.4957670000000 1.0
C      1  0.4749810000000  0.4835350000000  0.5992690000000 1.0
C      1  0.4640180000000  0.5157650000000  0.4038600000000 1.0
C      1  0.5367770000000  0.5158280000000  0.5961400000000 1.0
C      1  0.5258690000000  0.4835780000000  0.4007310000000 1.0
C      1  0.4949650000000  0.4869200000000  0.4703930000000 1.0
C      1  0.4931290000000  0.5142540000000  0.5300280000000 1.0
C      1  0.5076690000000  0.5142660000000  0.4699720000000 1.0
C      1  0.5058800000000  0.4869300000000  0.5296070000000 1.0
C      1  0.4793870000000  0.4592060000000  0.4320370000000 1.0
C      1  0.4744060000000  0.5413310000000  0.5673130000000 1.0
C      1  0.5263450000000  0.5413760000000  0.4326870000000 1.0
C      1  0.5215060000000  0.4592430000000  0.5679630000000 1.0
C      1  0.5235570000000  0.4667580000000  0.5111600000000 1.0
C      1  0.5249970000000  0.5328260000000  0.4903490000000 1.0
C      1  0.4757680000000  0.5327840000000  0.5096510000000 1.0
C      1  0.4773220000000  0.4667180000000  0.4888400000000 1.0
C      1  0.4761010000000  0.5633020000000  0.5188970000000 1.0
C      1  0.4819240000000  0.4361910000000  0.4804130000000 1.0
C      1  0.5190080000000  0.4362230000000  0.5195880000000 1.0
C      1  0.5246130000000  0.5633430000000  0.4811030000000 1.0
C      1  0.5452920000000  0.5624100000000  0.5530870000000 1.0
C      1  0.5532010000000  0.4464840000000  0.4468980000000 1.0
C      1  0.4477140000000  0.4463940000000  0.5531030000000 1.0
C      1  0.4554230000000  0.5623330000000  0.4469120000000 1.0
C      1  0.5694570000000  0.4918780000000  0.4869290000000 1.0
C      1  0.5683350000000  0.5039210000000  0.5192820000000 1.0
C      1  0.4324810000000  0.5038040000000  0.4807180000000 1.0
C      1  0.4313790000000  0.4917590000000  0.5130710000000 1.0
C      1  0.4845990000000  0.4663570000000  0.5199260000000 1.0
C      1  0.4865940000000  0.5356150000000  0.4796690000000 1.0
C      1  0.5141670000000  0.5356390000000  0.5203300000000 1.0
C      1  0.5162810000000  0.4663840000000  0.4800750000000 1.0
C      1  0.5235070000000  0.4327660000000  0.5499260000000 1.0
C      1  0.5312410000000  0.5666870000000  0.4517420000000 1.0
C      1  0.4694660000000  0.5666340000000  0.5482580000000 1.0
C      1  0.4774310000000  0.4327260000000  0.4500750000000 1.0
C      1  0.5032730000000  0.5632490000000  0.4368110000000 1.0
C      1  0.4960960000000  0.4397540000000  0.5652620000000 1.0
C      1  0.5048300000000  0.4397610000000  0.4347390000000 1.0
C      1  0.4974400000000  0.5632450000000  0.5631890000000 1.0
C      1  0.4922210000000  0.4986360000000  0.3662110000000 1.0
C      1  0.5086030000000  0.4986510000000  0.6337890000000 1.0
END
