TITL C-2782225-7408-675 -0.000442754953315775 125000 -275.563437212989 0 0 52 (C1) n - 1
REM
REM in /home/nfs/bkarasulu/CARBON/AIRSS/Generating-Clusters/REBO/Higher-Symm/SD-CG/HFTN-CG
REM
REM
REM
REM
REM
REM ./C.cell (12c818d87b63d06a65506943cc24bca4)
REM
REM compiler GCC version 9.2.1 20190827 (Red Hat 9.2.1-1)
REM options -cpp -mtune=generic -march=x86-64 -g -O0 -fpre-include=/usr/include/finclude/math-vector-fortran.h
REM seed -741257908 -469950517 1484431606 -254935126 -518218773 129027311 2037511278 590195796 1676411908 -1836917033 -39265150 1028069257 -1208359334 82444260 337915480 -1663547711 -1394669613 -218474462 -715196571 -1100784485 -1860711830 -1718270515 -419093020 -1708240416 1429382343 174741311 -1906175526 -1047020151 1976751280 -2116388512 1062819960 -56265089 1336368737
REM
CELL 1.54180   50.00000   50.00000   50.00000   90.00000   90.00000   90.00000
LATT -1
SFAC C  
C      1  0.5323580000000  0.4393490000000  0.5310710000000 1.0
C      1  0.5671990000000  0.5081810000000  0.5156660000000 1.0
C      1  0.5054690000000  0.5617190000000  0.5260180000000 1.0
C      1  0.4333970000000  0.5217980000000  0.5261930000000 1.0
C      1  0.4590520000000  0.4492350000000  0.5254070000000 1.0
C      1  0.5436940000000  0.4914330000000  0.4561340000000 1.0
C      1  0.5154560000000  0.5341500000000  0.4607630000000 1.0
C      1  0.4667400000000  0.5315150000000  0.4563720000000 1.0
C      1  0.4557090000000  0.4818530000000  0.4627970000000 1.0
C      1  0.5043640000000  0.4608330000000  0.4626550000000 1.0
C      1  0.4797410000000  0.5236020000000  0.5387710000000 1.0
C      1  0.4776540000000  0.4934580000000  0.5392010000000 1.0
C      1  0.5031040000000  0.4777830000000  0.5451430000000 1.0
C      1  0.5308850000000  0.4918280000000  0.5448930000000 1.0
C      1  0.5296110000000  0.5224880000000  0.5462400000000 1.0
C      1  0.5619830000000  0.5356090000000  0.4740180000000 1.0
C      1  0.4883430000000  0.5743650000000  0.4651820000000 1.0
C      1  0.4244680000000  0.5039080000000  0.4511890000000 1.0
C      1  0.4663930000000  0.4299850000000  0.4631600000000 1.0
C      1  0.5517120000000  0.4440170000000  0.4582610000000 1.0
C      1  0.4344530000000  0.4980950000000  0.5106970000000 1.0
C      1  0.4837500000000  0.4390070000000  0.5175900000000 1.0
C      1  0.5499080000000  0.4552630000000  0.5155610000000 1.0
C      1  0.5601450000000  0.5321410000000  0.5196030000000 1.0
C      1  0.4806200000000  0.5617470000000  0.5269000000000 1.0
C      1  0.5283130000000  0.5420810000000  0.5209900000000 1.0
C      1  0.4590310000000  0.5391420000000  0.5188480000000 1.0
C      1  0.4579460000000  0.4797180000000  0.5172650000000 1.0
C      1  0.5054780000000  0.4477010000000  0.5334110000000 1.0
C      1  0.5478040000000  0.4845260000000  0.5200350000000 1.0
C      1  0.4543500000000  0.5095160000000  0.4442370000000 1.0
C      1  0.4735380000000  0.4581030000000  0.4526720000000 1.0
C      1  0.5338510000000  0.4655780000000  0.4491330000000 1.0
C      1  0.5439820000000  0.5214200000000  0.4545310000000 1.0
C      1  0.4891340000000  0.5477440000000  0.4501120000000 1.0
C      1  0.4616080000000  0.5303100000000  0.4888760000000 1.0
C      1  0.4740470000000  0.4746850000000  0.4897420000000 1.0
C      1  0.5257360000000  0.4708220000000  0.4878440000000 1.0
C      1  0.5388280000000  0.5010060000000  0.4884790000000 1.0
C      1  0.4938440000000  0.5229270000000  0.4845050000000 1.0
C      1  0.4401110000000  0.5057680000000  0.4813440000000 1.0
C      1  0.4866570000000  0.4434960000000  0.4870950000000 1.0
C      1  0.5504810000000  0.4487640000000  0.4869840000000 1.0
C      1  0.5322110000000  0.5319170000000  0.4910720000000 1.0
C      1  0.4917340000000  0.5566140000000  0.4888860000000 1.0
C      1  0.4939680000000  0.5377360000000  0.5559710000000 1.0
C      1  0.4528390000000  0.4832370000000  0.5567440000000 1.0
C      1  0.4997670000000  0.4593340000000  0.5711760000000 1.0
C      1  0.5450730000000  0.4824980000000  0.5683400000000 1.0
C      1  0.5310420000000  0.5338270000000  0.5703070000000 1.0
C      1  0.5044180000000  0.4981230000000  0.4553810000000 1.0
C      1  0.4991060000000  0.4919640000000  0.4870000000000 1.0
END
