TITL C-2782225-7408-711 -0.00678237672480894 125000 -1053.82065209344 0 0 187 (C1) n - 1
REM
REM in /home/nfs/bkarasulu/CARBON/AIRSS/Generating-Clusters/REBO/Higher-Symm/SD-CG/HFTN-CG
REM
REM
REM
REM
REM
REM ./C.cell (12c818d87b63d06a65506943cc24bca4)
REM
REM compiler GCC version 9.2.1 20190827 (Red Hat 9.2.1-1)
REM options -cpp -mtune=generic -march=x86-64 -g -O0 -fpre-include=/usr/include/finclude/math-vector-fortran.h
REM seed -1268957601 666776416 578909290 -429013692 1457524330 -429634748 1518135797 -692697238 -149699682 1128401707 -2139805163 -25699255 -28205215 -1112614982 -609776065 1616778588 2015024382 1413733822 986327299 -1565219165 -1864399380 65213128 -1252492876 -973481441 1292666748 -257354129 -1530250192 -1445795839 -923074947 245250073 -508453438 -1190905487 -912133479
REM
CELL 1.54180   50.00000   50.00000   50.00000   90.00000   90.00000   90.00000
LATT -1
SFAC C  
C      1  0.5340430000000  0.4674840000000  0.4631300000000 1.0
C      1  0.5604620000000  0.4647910000000  0.4795240000000 1.0
C      1  0.5677480000000  0.4689570000000  0.5105030000000 1.0
C      1  0.5478870000000  0.4721360000000  0.5356570000000 1.0
C      1  0.5169400000000  0.4736450000000  0.5451870000000 1.0
C      1  0.4832170000000  0.4714910000000  0.5411420000000 1.0
C      1  0.4502440000000  0.4646870000000  0.5357290000000 1.0
C      1  0.4391430000000  0.4649450000000  0.5057340000000 1.0
C      1  0.4414700000000  0.4670480000000  0.4738180000000 1.0
C      1  0.4680610000000  0.4685030000000  0.4563670000000 1.0
C      1  0.5012430000000  0.4713590000000  0.4555950000000 1.0
C      1  0.5302700000000  0.5231800000000  0.5374510000000 1.0
C      1  0.4997430000000  0.5218490000000  0.5387320000000 1.0
C      1  0.4757370000000  0.5040940000000  0.5340090000000 1.0
C      1  0.4529190000000  0.5200920000000  0.5215810000000 1.0
C      1  0.4446570000000  0.5231110000000  0.4919590000000 1.0
C      1  0.4558960000000  0.5257220000000  0.4634930000000 1.0
C      1  0.4875670000000  0.5222700000000  0.4610210000000 1.0
C      1  0.5113220000000  0.5035880000000  0.4625390000000 1.0
C      1  0.5372360000000  0.5196370000000  0.4673080000000 1.0
C      1  0.5612950000000  0.5234250000000  0.4882380000000 1.0
C      1  0.5539290000000  0.5244300000000  0.5178970000000 1.0
C      1  0.5062340000000  0.5548230000000  0.5391780000000 1.0
C      1  0.4787610000000  0.5545620000000  0.5479190000000 1.0
C      1  0.4566980000000  0.5504790000000  0.5319870000000 1.0
C      1  0.4471440000000  0.5553440000000  0.5043940000000 1.0
C      1  0.4555720000000  0.5577750000000  0.4761620000000 1.0
C      1  0.4814510000000  0.5560790000000  0.4635740000000 1.0
C      1  0.5067770000000  0.5556680000000  0.4506730000000 1.0
C      1  0.5320760000000  0.5501710000000  0.4585020000000 1.0
C      1  0.5522760000000  0.5544980000000  0.4794370000000 1.0
C      1  0.5531120000000  0.5565540000000  0.5086610000000 1.0
C      1  0.5338830000000  0.5560400000000  0.5308000000000 1.0
C      1  0.4204860000000  0.5755050000000  0.4828680000000 1.0
C      1  0.4420360000000  0.5847310000000  0.4505170000000 1.0
C      1  0.4805220000000  0.5757300000000  0.4281370000000 1.0
C      1  0.5274730000000  0.5756710000000  0.4230990000000 1.0
C      1  0.5665190000000  0.5760260000000  0.4493820000000 1.0
C      1  0.5797830000000  0.5808990000000  0.4915110000000 1.0
C      1  0.5699660000000  0.5778960000000  0.5376460000000 1.0
C      1  0.5386550000000  0.5740470000000  0.5660810000000 1.0
C      1  0.4936440000000  0.5756090000000  0.5789220000000 1.0
C      1  0.4483350000000  0.5743570000000  0.5642800000000 1.0
C      1  0.4239980000000  0.5757580000000  0.5298620000000 1.0
C      1  0.5722670000000  0.5410640000000  0.4476800000000 1.0
C      1  0.6050450000000  0.5506190000000  0.4934780000000 1.0
C      1  0.5816430000000  0.5442250000000  0.5387680000000 1.0
C      1  0.5448570000000  0.5407030000000  0.5759740000000 1.0
C      1  0.4927740000000  0.5412090000000  0.5838380000000 1.0
C      1  0.4470910000000  0.5392550000000  0.5690800000000 1.0
C      1  0.4096780000000  0.5386340000000  0.5329880000000 1.0
C      1  0.4108960000000  0.5412420000000  0.4811280000000 1.0
C      1  0.4322200000000  0.5373640000000  0.4334300000000 1.0
C      1  0.4752260000000  0.5424370000000  0.4191210000000 1.0
C      1  0.5273830000000  0.5405490000000  0.4199620000000 1.0
C      1  0.4017090000000  0.4868940000000  0.4191280000000 1.0
C      1  0.4557960000000  0.4781110000000  0.3795070000000 1.0
C      1  0.5178410000000  0.4808910000000  0.3739990000000 1.0
C      1  0.5781780000000  0.4801970000000  0.4076520000000 1.0
C      1  0.6204070000000  0.4567320000000  0.4756600000000 1.0
C      1  0.6216410000000  0.4666790000000  0.5387280000000 1.0
C      1  0.5680120000000  0.4806170000000  0.6022240000000 1.0
C      1  0.5104540000000  0.4649130000000  0.6220180000000 1.0
C      1  0.4482680000000  0.4686620000000  0.6130370000000 1.0
C      1  0.3858140000000  0.4866780000000  0.5589250000000 1.0
C      1  0.3667390000000  0.4799230000000  0.4965480000000 1.0
C      1  0.4168970000000  0.4857620000000  0.5099470000000 1.0
C      1  0.4226080000000  0.4890320000000  0.4632920000000 1.0
C      1  0.4605320000000  0.4867290000000  0.4331200000000 1.0
C      1  0.4998530000000  0.4897180000000  0.4268190000000 1.0
C      1  0.5406840000000  0.4877670000000  0.4404770000000 1.0
C      1  0.5790290000000  0.4829500000000  0.4639370000000 1.0
C      1  0.5882200000000  0.4932610000000  0.5115450000000 1.0
C      1  0.5630440000000  0.4918500000000  0.5541720000000 1.0
C      1  0.5166770000000  0.4934630000000  0.5695510000000 1.0
C      1  0.4763140000000  0.4876980000000  0.5703930000000 1.0
C      1  0.4345870000000  0.4853390000000  0.5515580000000 1.0
C      1  0.5220500000000  0.5143740000000  0.4309300000000 1.0
C      1  0.5637420000000  0.5098530000000  0.4508170000000 1.0
C      1  0.5844420000000  0.5060660000000  0.4846880000000 1.0
C      1  0.5760220000000  0.5110940000000  0.5334940000000 1.0
C      1  0.5415460000000  0.5122090000000  0.5641270000000 1.0
C      1  0.4930530000000  0.5158730000000  0.5693130000000 1.0
C      1  0.4543430000000  0.5116580000000  0.5603920000000 1.0
C      1  0.4256850000000  0.5090330000000  0.5309150000000 1.0
C      1  0.4179870000000  0.5084750000000  0.4871600000000 1.0
C      1  0.4403980000000  0.5068880000000  0.4454300000000 1.0
C      1  0.4777710000000  0.5152340000000  0.4316020000000 1.0
C      1  0.6152360000000  0.5238710000000  0.5026850000000 1.0
C      1  0.5994340000000  0.5090530000000  0.5654530000000 1.0
C      1  0.5435190000000  0.5124340000000  0.6038230000000 1.0
C      1  0.4853530000000  0.5105450000000  0.6081460000000 1.0
C      1  0.4257740000000  0.5095730000000  0.5879170000000 1.0
C      1  0.3865340000000  0.5162630000000  0.5322840000000 1.0
C      1  0.3861510000000  0.5151750000000  0.4641920000000 1.0
C      1  0.4265520000000  0.5163660000000  0.4093670000000 1.0
C      1  0.4867050000000  0.5146840000000  0.3927400000000 1.0
C      1  0.5507940000000  0.5138300000000  0.4016780000000 1.0
C      1  0.6010650000000  0.5155430000000  0.4379150000000 1.0
C      1  0.4218580000000  0.5576350000000  0.4547540000000 1.0
C      1  0.4501180000000  0.5628870000000  0.4272240000000 1.0
C      1  0.5022500000000  0.5585660000000  0.4102260000000 1.0
C      1  0.5548600000000  0.5571600000000  0.4251810000000 1.0
C      1  0.5905530000000  0.5609300000000  0.4670780000000 1.0
C      1  0.5928660000000  0.5667590000000  0.5173820000000 1.0
C      1  0.5685510000000  0.5589020000000  0.5645400000000 1.0
C      1  0.5201450000000  0.5578740000000  0.5879970000000 1.0
C      1  0.4658680000000  0.5594180000000  0.5874550000000 1.0
C      1  0.4222630000000  0.5557170000000  0.5557210000000 1.0
C      1  0.4074940000000  0.5583960000000  0.5081870000000 1.0
C      1  0.5532740000000  0.5935230000000  0.4937760000000 1.0
C      1  0.5457710000000  0.5932320000000  0.5232790000000 1.0
C      1  0.5231820000000  0.5917460000000  0.5443230000000 1.0
C      1  0.4944950000000  0.5910940000000  0.5519430000000 1.0
C      1  0.4661960000000  0.5921170000000  0.5434840000000 1.0
C      1  0.4467680000000  0.5916350000000  0.5209800000000 1.0
C      1  0.4457970000000  0.5931330000000  0.4916470000000 1.0
C      1  0.4649160000000  0.5955850000000  0.4672580000000 1.0
C      1  0.4909950000000  0.5930670000000  0.4518580000000 1.0
C      1  0.5204030000000  0.5930380000000  0.4490420000000 1.0
C      1  0.5440490000000  0.5920350000000  0.4655530000000 1.0
C      1  0.5409920000000  0.4418610000000  0.5466300000000 1.0
C      1  0.5086880000000  0.4423640000000  0.5512760000000 1.0
C      1  0.4804230000000  0.4375940000000  0.5372320000000 1.0
C      1  0.4507430000000  0.4322560000000  0.5253940000000 1.0
C      1  0.4382460000000  0.4334160000000  0.4948900000000 1.0
C      1  0.4461940000000  0.4358420000000  0.4629830000000 1.0
C      1  0.4759870000000  0.4379550000000  0.4490860000000 1.0
C      1  0.5075670000000  0.4373640000000  0.4553040000000 1.0
C      1  0.5361700000000  0.4345640000000  0.4704950000000 1.0
C      1  0.5618630000000  0.4343060000000  0.4916540000000 1.0
C      1  0.5647640000000  0.4379480000000  0.5241540000000 1.0
C      1  0.6091410000000  0.4763990000000  0.5632040000000 1.0
C      1  0.5422220000000  0.4730890000000  0.6119480000000 1.0
C      1  0.4811110000000  0.4633270000000  0.6222960000000 1.0
C      1  0.4238290000000  0.4786240000000  0.6001560000000 1.0
C      1  0.3691360000000  0.4879560000000  0.5299240000000 1.0
C      1  0.3729690000000  0.4859740000000  0.4694690000000 1.0
C      1  0.4261130000000  0.4859410000000  0.3954540000000 1.0
C      1  0.4834500000000  0.4777360000000  0.3741400000000 1.0
C      1  0.5484330000000  0.4841040000000  0.3867000000000 1.0
C      1  0.5978750000000  0.4857990000000  0.4288380000000 1.0
C      1  0.6253650000000  0.4590530000000  0.5036150000000 1.0
C      1  0.4400440000000  0.3722350000000  0.5281790000000 1.0
C      1  0.4146350000000  0.3859220000000  0.4805700000000 1.0
C      1  0.4373810000000  0.3907100000000  0.4329550000000 1.0
C      1  0.4870950000000  0.3971440000000  0.4146000000000 1.0
C      1  0.5240130000000  0.3752660000000  0.4429690000000 1.0
C      1  0.5424150000000  0.3766650000000  0.4631870000000 1.0
C      1  0.5841640000000  0.3847180000000  0.4984610000000 1.0
C      1  0.5805150000000  0.3923510000000  0.5509450000000 1.0
C      1  0.5428310000000  0.4033190000000  0.5853180000000 1.0
C      1  0.4909760000000  0.4019620000000  0.5851060000000 1.0
C      1  0.4625870000000  0.3767280000000  0.5431820000000 1.0
C      1  0.5008860000000  0.4099810000000  0.5572420000000 1.0
C      1  0.4774420000000  0.4043680000000  0.5355410000000 1.0
C      1  0.4513440000000  0.4006750000000  0.5133480000000 1.0
C      1  0.4405860000000  0.4019950000000  0.4832040000000 1.0
C      1  0.4546470000000  0.4046320000000  0.4541010000000 1.0
C      1  0.4850200000000  0.4066760000000  0.4435800000000 1.0
C      1  0.5137560000000  0.4039940000000  0.4582950000000 1.0
C      1  0.5393750000000  0.4031410000000  0.4812550000000 1.0
C      1  0.5607550000000  0.4033720000000  0.5047460000000 1.0
C      1  0.5578390000000  0.4071910000000  0.5366010000000 1.0
C      1  0.5330710000000  0.4113570000000  0.5572200000000 1.0
C      1  0.6160600000000  0.4856390000000  0.5155250000000 1.0
C      1  0.5802100000000  0.4751420000000  0.5736010000000 1.0
C      1  0.5180900000000  0.4772630000000  0.5935670000000 1.0
C      1  0.4721550000000  0.4728380000000  0.5939300000000 1.0
C      1  0.4127620000000  0.4760910000000  0.5707170000000 1.0
C      1  0.3916000000000  0.4711580000000  0.5136230000000 1.0
C      1  0.3967810000000  0.4795570000000  0.4496360000000 1.0
C      1  0.4510220000000  0.4718370000000  0.4099890000000 1.0
C      1  0.4998860000000  0.4761150000000  0.4013870000000 1.0
C      1  0.5500740000000  0.4725370000000  0.4168280000000 1.0
C      1  0.6051410000000  0.4678440000000  0.4540880000000 1.0
C      1  0.6141620000000  0.5194560000000  0.5364240000000 1.0
C      1  0.5739080000000  0.5112600000000  0.5881890000000 1.0
C      1  0.5144220000000  0.5142150000000  0.6080600000000 1.0
C      1  0.4574830000000  0.5119000000000  0.6001370000000 1.0
C      1  0.4028060000000  0.5137780000000  0.5631740000000 1.0
C      1  0.3826820000000  0.5181110000000  0.4981100000000 1.0
C      1  0.4007340000000  0.5156940000000  0.4338490000000 1.0
C      1  0.4583350000000  0.5141090000000  0.3967070000000 1.0
C      1  0.5184950000000  0.5100960000000  0.3914720000000 1.0
C      1  0.5765790000000  0.5195520000000  0.4145980000000 1.0
C      1  0.6083150000000  0.5195630000000  0.4691020000000 1.0
END
