TITL C-2782230-7391-1316 -0.00233709882530048 125000 -348.919244058446 0 0 61 (C1) n - 1
REM
REM in /home/nfs/bkarasulu/CARBON/AIRSS/Generating-Clusters/REBO/Higher-Symm/SD-CG/HFTN-CG
REM
REM
REM
REM
REM
REM ./C.cell (12c818d87b63d06a65506943cc24bca4)
REM
REM compiler GCC version 9.2.1 20190827 (Red Hat 9.2.1-1)
REM options -cpp -mtune=generic -march=x86-64 -g -O0 -fpre-include=/usr/include/finclude/math-vector-fortran.h
REM seed 715887288 687713330 -148903520 716926890 -1432154293 1617778788 170623054 1440819099 1293816234 86220371 414316736 442486082 -1651808744 -420069389 289679797 313070972 -1802977746 562861203 2000343523 -804178151 -781427625 1638422359 -472384907 -1654483658 -1144986530 -320153362 -1395147019 120739794 -1685558053 -1082689181 1938143394 -1382259008 -1537383762
REM
CELL 1.54180   50.00000   50.00000   50.00000   90.00000   90.00000   90.00000
LATT -1
SFAC C  
C      1  0.5154300000000  0.4623980000000  0.5622910000000 1.0
C      1  0.4872660000000  0.5544060000000  0.4775540000000 1.0
C      1  0.5410370000000  0.5715770000000  0.4907390000000 1.0
C      1  0.4674290000000  0.4683960000000  0.4818170000000 1.0
C      1  0.5047150000000  0.5543590000000  0.4417690000000 1.0
C      1  0.5330480000000  0.4308580000000  0.4639990000000 1.0
C      1  0.4559090000000  0.4952320000000  0.4391140000000 1.0
C      1  0.5576900000000  0.4610450000000  0.5330370000000 1.0
C      1  0.4498450000000  0.4880510000000  0.4975380000000 1.0
C      1  0.5433130000000  0.5126030000000  0.4903210000000 1.0
C      1  0.4369270000000  0.5425350000000  0.5351730000000 1.0
C      1  0.4215650000000  0.5463670000000  0.4907740000000 1.0
C      1  0.4682840000000  0.5132360000000  0.5035780000000 1.0
C      1  0.4487280000000  0.4622010000000  0.5168920000000 1.0
C      1  0.5048030000000  0.4808150000000  0.4238190000000 1.0
C      1  0.4316740000000  0.4964290000000  0.4536700000000 1.0
C      1  0.5417040000000  0.4791790000000  0.4844470000000 1.0
C      1  0.5288610000000  0.4872020000000  0.4454930000000 1.0
C      1  0.5462060000000  0.5227240000000  0.5457780000000 1.0
C      1  0.5478970000000  0.4470460000000  0.5099940000000 1.0
C      1  0.4712340000000  0.4986800000000  0.5571050000000 1.0
C      1  0.4891260000000  0.5480970000000  0.5480820000000 1.0
C      1  0.4184740000000  0.5164640000000  0.5267300000000 1.0
C      1  0.5424790000000  0.4586320000000  0.5568160000000 1.0
C      1  0.5382690000000  0.5504670000000  0.5338780000000 1.0
C      1  0.5011580000000  0.4948620000000  0.4610140000000 1.0
C      1  0.4734430000000  0.4440640000000  0.5129550000000 1.0
C      1  0.5314850000000  0.5400070000000  0.4498600000000 1.0
C      1  0.5253940000000  0.5269260000000  0.5120910000000 1.0
C      1  0.4413190000000  0.4631790000000  0.5433860000000 1.0
C      1  0.4986220000000  0.4586630000000  0.5263750000000 1.0
C      1  0.5710650000000  0.4847850000000  0.5238960000000 1.0
C      1  0.4451570000000  0.5131110000000  0.5459730000000 1.0
C      1  0.4263880000000  0.4983600000000  0.4815900000000 1.0
C      1  0.4606010000000  0.4399580000000  0.4792190000000 1.0
C      1  0.5692930000000  0.5312340000000  0.5028010000000 1.0
C      1  0.4944430000000  0.4762530000000  0.4804130000000 1.0
C      1  0.5825850000000  0.5079530000000  0.4846130000000 1.0
C      1  0.4630030000000  0.4688180000000  0.5612550000000 1.0
C      1  0.5079230000000  0.5559140000000  0.5266110000000 1.0
C      1  0.4799430000000  0.5110240000000  0.4497610000000 1.0
C      1  0.5713930000000  0.4844730000000  0.4947050000000 1.0
C      1  0.5172020000000  0.4598110000000  0.4989580000000 1.0
C      1  0.5687070000000  0.5129210000000  0.5306990000000 1.0
C      1  0.4781880000000  0.5298930000000  0.5606490000000 1.0
C      1  0.4687540000000  0.5403620000000  0.4991110000000 1.0
C      1  0.5607370000000  0.5604330000000  0.5010520000000 1.0
C      1  0.5195710000000  0.5637290000000  0.4710290000000 1.0
C      1  0.5380050000000  0.5144420000000  0.4591540000000 1.0
C      1  0.4132150000000  0.5186890000000  0.4971040000000 1.0
C      1  0.5191710000000  0.5082280000000  0.5385790000000 1.0
C      1  0.5568090000000  0.4422900000000  0.4819640000000 1.0
C      1  0.5440590000000  0.4619350000000  0.4566260000000 1.0
C      1  0.4775140000000  0.4812970000000  0.4231570000000 1.0
C      1  0.4975630000000  0.5714330000000  0.5034900000000 1.0
C      1  0.4859560000000  0.4520700000000  0.5576620000000 1.0
C      1  0.4445440000000  0.5534420000000  0.5081230000000 1.0
C      1  0.4800170000000  0.5392980000000  0.4493450000000 1.0
C      1  0.4845810000000  0.4227910000000  0.4893160000000 1.0
C      1  0.5104440000000  0.4311330000000  0.4818180000000 1.0
C      1  0.4998360000000  0.4872190000000  0.5452360000000 1.0
END
