TITL C-2782229-3092-960 0.00096952217840511 125000 -564.763740564615 0 0 95 (C1) n - 1
REM
REM in /home/nfs/bkarasulu/CARBON/AIRSS/Generating-Clusters/REBO/Higher-Symm/SD-CG/HFTN-CG
REM
REM
REM
REM
REM
REM ./C.cell (12c818d87b63d06a65506943cc24bca4)
REM
REM compiler GCC version 9.2.1 20190827 (Red Hat 9.2.1-1)
REM options -cpp -mtune=generic -march=x86-64 -g -O0 -fpre-include=/usr/include/finclude/math-vector-fortran.h
REM seed -1621451637 135173862 -2014556976 -1857316221 620409194 -1968744281 441258975 1749672367 1429317553 705060239 -3192652 -379034364 128674181 -1011220427 -1831944252 -948579408 1267275170 794669083 1034080138 1977551958 1530826391 -902820911 -139485865 -1691019930 904128231 963647693 -315249209 -128275967 420798727 1803558259 -105553430 -1432616469 -475136548
REM
CELL 1.54180   50.00000   50.00000   50.00000   90.00000   90.00000   90.00000
LATT -1
SFAC C  
C      1  0.4599640000000  0.4621650000000  0.4309860000000 1.0
C      1  0.4216260000000  0.4672000000000  0.5300570000000 1.0
C      1  0.5084820000000  0.4805900000000  0.5762990000000 1.0
C      1  0.5751510000000  0.4705100000000  0.5192390000000 1.0
C      1  0.5466590000000  0.4586280000000  0.4348370000000 1.0
C      1  0.4683070000000  0.4385760000000  0.4700140000000 1.0
C      1  0.4626820000000  0.4458890000000  0.5201210000000 1.0
C      1  0.5096770000000  0.4461010000000  0.5408620000000 1.0
C      1  0.5417660000000  0.4408800000000  0.5028700000000 1.0
C      1  0.5213490000000  0.4229260000000  0.4549780000000 1.0
C      1  0.4610020000000  0.4516220000000  0.5500560000000 1.0
C      1  0.5381120000000  0.4538450000000  0.5496240000000 1.0
C      1  0.5604360000000  0.4441110000000  0.4793800000000 1.0
C      1  0.5038550000000  0.4353480000000  0.4347500000000 1.0
C      1  0.4378190000000  0.4461840000000  0.4788700000000 1.0
C      1  0.5189770000000  0.5304360000000  0.5205710000000 1.0
C      1  0.5194630000000  0.5357820000000  0.4904680000000 1.0
C      1  0.4903810000000  0.5273650000000  0.4818490000000 1.0
C      1  0.4748300000000  0.5093290000000  0.5043620000000 1.0
C      1  0.4887250000000  0.5244030000000  0.5282850000000 1.0
C      1  0.5366910000000  0.4764750000000  0.5677400000000 1.0
C      1  0.5768200000000  0.4676030000000  0.4882340000000 1.0
C      1  0.5194460000000  0.4574430000000  0.4223500000000 1.0
C      1  0.4358520000000  0.4680300000000  0.4539400000000 1.0
C      1  0.4378600000000  0.4690770000000  0.5554780000000 1.0
C      1  0.5671510000000  0.5416650000000  0.5364380000000 1.0
C      1  0.5521910000000  0.5453010000000  0.4489310000000 1.0
C      1  0.4619550000000  0.5520220000000  0.4328230000000 1.0
C      1  0.4221850000000  0.5422150000000  0.5112380000000 1.0
C      1  0.4882360000000  0.5389910000000  0.5775710000000 1.0
C      1  0.5044220000000  0.4213780000000  0.5252810000000 1.0
C      1  0.5235180000000  0.4178450000000  0.5042110000000 1.0
C      1  0.5096880000000  0.4126950000000  0.4791810000000 1.0
C      1  0.4816050000000  0.4171680000000  0.4853570000000 1.0
C      1  0.4786760000000  0.4215320000000  0.5132890000000 1.0
C      1  0.4581400000000  0.5383910000000  0.5627980000000 1.0
C      1  0.5499340000000  0.5255480000000  0.5612300000000 1.0
C      1  0.5684480000000  0.5376470000000  0.4772800000000 1.0
C      1  0.4923500000000  0.5391870000000  0.4334000000000 1.0
C      1  0.4356190000000  0.5339860000000  0.4822500000000 1.0
C      1  0.4350720000000  0.4484690000000  0.5072320000000 1.0
C      1  0.4888250000000  0.4653320000000  0.5555030000000 1.0
C      1  0.5555900000000  0.4508240000000  0.5280000000000 1.0
C      1  0.5472740000000  0.4373140000000  0.4550420000000 1.0
C      1  0.4759530000000  0.4402050000000  0.4405400000000 1.0
C      1  0.4359850000000  0.5450330000000  0.4506380000000 1.0
C      1  0.4327520000000  0.5462160000000  0.5424270000000 1.0
C      1  0.5208770000000  0.5337700000000  0.5753730000000 1.0
C      1  0.5812830000000  0.5456300000000  0.5069690000000 1.0
C      1  0.5251410000000  0.5461260000000  0.4310090000000 1.0
C      1  0.4253740000000  0.5151000000000  0.5308560000000 1.0
C      1  0.4987080000000  0.5144890000000  0.5579810000000 1.0
C      1  0.5670510000000  0.5154090000000  0.5138470000000 1.0
C      1  0.5327220000000  0.5169350000000  0.4473180000000 1.0
C      1  0.4576800000000  0.5195810000000  0.4434280000000 1.0
C      1  0.5422210000000  0.5196200000000  0.4777780000000 1.0
C      1  0.4888580000000  0.5163770000000  0.4541120000000 1.0
C      1  0.4492730000000  0.5083700000000  0.4852670000000 1.0
C      1  0.4517120000000  0.5112210000000  0.5462980000000 1.0
C      1  0.5405890000000  0.5124340000000  0.5319620000000 1.0
C      1  0.5443290000000  0.5629850000000  0.5414250000000 1.0
C      1  0.5511290000000  0.5683720000000  0.4739120000000 1.0
C      1  0.4853330000000  0.5688980000000  0.4508410000000 1.0
C      1  0.4395540000000  0.5657330000000  0.4954400000000 1.0
C      1  0.4800310000000  0.5639920000000  0.5574530000000 1.0
C      1  0.5479440000000  0.4941570000000  0.4960210000000 1.0
C      1  0.5102180000000  0.4958120000000  0.4480640000000 1.0
C      1  0.4595410000000  0.4900460000000  0.4599910000000 1.0
C      1  0.4692030000000  0.4894910000000  0.5413550000000 1.0
C      1  0.5152170000000  0.4953630000000  0.5391960000000 1.0
C      1  0.5780590000000  0.4882600000000  0.5420760000000 1.0
C      1  0.5653990000000  0.4795500000000  0.4413120000000 1.0
C      1  0.4760850000000  0.4802700000000  0.4159040000000 1.0
C      1  0.4119020000000  0.4808300000000  0.5046940000000 1.0
C      1  0.4789260000000  0.4888700000000  0.5860290000000 1.0
C      1  0.5585660000000  0.4950010000000  0.5629680000000 1.0
C      1  0.5796790000000  0.4846080000000  0.4649630000000 1.0
C      1  0.5042150000000  0.4817150000000  0.4221290000000 1.0
C      1  0.4274320000000  0.4845990000000  0.4825540000000 1.0
C      1  0.4523420000000  0.4846900000000  0.5772580000000 1.0
C      1  0.5739980000000  0.5730250000000  0.4941520000000 1.0
C      1  0.5116340000000  0.5737600000000  0.4356180000000 1.0
C      1  0.4299250000000  0.5702710000000  0.4669560000000 1.0
C      1  0.4547890000000  0.5687120000000  0.5364310000000 1.0
C      1  0.5345230000000  0.5618590000000  0.5674940000000 1.0
C      1  0.5232260000000  0.5682170000000  0.4869550000000 1.0
C      1  0.4902820000000  0.5614580000000  0.4812950000000 1.0
C      1  0.4688920000000  0.5699590000000  0.5053410000000 1.0
C      1  0.4915410000000  0.5583710000000  0.5270630000000 1.0
C      1  0.5226280000000  0.5635570000000  0.5190390000000 1.0
C      1  0.5088540000000  0.4750640000000  0.4713280000000 1.0
C      1  0.4787480000000  0.4691660000000  0.4773750000000 1.0
C      1  0.4772820000000  0.4755160000000  0.5107580000000 1.0
C      1  0.5082090000000  0.4723050000000  0.5212560000000 1.0
C      1  0.5273740000000  0.4709730000000  0.4962750000000 1.0
END
