TITL C-2782225-7408-921 0.000848874838525526 125000 -244.386274399674 0 0 44 (C1) n - 1
REM
REM in /home/nfs/bkarasulu/CARBON/AIRSS/Generating-Clusters/REBO/Higher-Symm/SD-CG/HFTN-CG
REM
REM
REM
REM
REM
REM ./C.cell (12c818d87b63d06a65506943cc24bca4)
REM
REM compiler GCC version 9.2.1 20190827 (Red Hat 9.2.1-1)
REM options -cpp -mtune=generic -march=x86-64 -g -O0 -fpre-include=/usr/include/finclude/math-vector-fortran.h
REM seed -1668160128 1839674339 -1338809583 773755712 -674447405 -1400437692 2062024478 1662942310 1969044621 557412488 1700715587 -492087287 1595756566 -20476123 309423767 1180161539 -334587802 -1440344117 -1886126000 -1163949027 2003943244 1624695473 1263296696 -1639700532 -212510722 -1554118369 1552481503 -712783230 -1124654499 -1111921040 195081111 -2000314789 -15936717
REM
CELL 1.54180   50.00000   50.00000   50.00000   90.00000   90.00000   90.00000
LATT -1
SFAC C  
C      1  0.4808460000000  0.5474250000000  0.5080950000000 1.0
C      1  0.5286180000000  0.5022820000000  0.4499250000000 1.0
C      1  0.5045050000000  0.4796550000000  0.5184800000000 1.0
C      1  0.4555820000000  0.5107660000000  0.4365930000000 1.0
C      1  0.4994700000000  0.5240470000000  0.4961010000000 1.0
C      1  0.5608230000000  0.4621900000000  0.5011710000000 1.0
C      1  0.4936580000000  0.5692800000000  0.4593570000000 1.0
C      1  0.5296710000000  0.4620160000000  0.5307420000000 1.0
C      1  0.4349990000000  0.5341980000000  0.5267890000000 1.0
C      1  0.4859130000000  0.4324580000000  0.5178870000000 1.0
C      1  0.4638460000000  0.5398440000000  0.5345690000000 1.0
C      1  0.5204290000000  0.4707040000000  0.4557570000000 1.0
C      1  0.4505460000000  0.5030840000000  0.4840720000000 1.0
C      1  0.5628220000000  0.4913650000000  0.5096430000000 1.0
C      1  0.4713760000000  0.4726330000000  0.5205090000000 1.0
C      1  0.4905800000000  0.4498510000000  0.5467790000000 1.0
C      1  0.5091390000000  0.5272790000000  0.5452200000000 1.0
C      1  0.5148330000000  0.5596350000000  0.5055200000000 1.0
C      1  0.5117830000000  0.5480720000000  0.4524650000000 1.0
C      1  0.5180100000000  0.4425420000000  0.4759590000000 1.0
C      1  0.5244440000000  0.5389380000000  0.4801780000000 1.0
C      1  0.5144080000000  0.5104790000000  0.5197610000000 1.0
C      1  0.4815510000000  0.4808820000000  0.5510850000000 1.0
C      1  0.5408280000000  0.4924110000000  0.5279790000000 1.0
C      1  0.5027500000000  0.5020800000000  0.5671890000000 1.0
C      1  0.5433860000000  0.5163830000000  0.4707370000000 1.0
C      1  0.5158290000000  0.4322340000000  0.5319870000000 1.0
C      1  0.4771620000000  0.5148460000000  0.5487290000000 1.0
C      1  0.5474320000000  0.4585280000000  0.4719830000000 1.0
C      1  0.4913670000000  0.4266480000000  0.4848240000000 1.0
C      1  0.4825120000000  0.5042470000000  0.4776880000000 1.0
C      1  0.4971960000000  0.4774040000000  0.4793430000000 1.0
C      1  0.5280840000000  0.4768530000000  0.4938010000000 1.0
C      1  0.4465130000000  0.4858640000000  0.5119210000000 1.0
C      1  0.4368410000000  0.5056270000000  0.4563120000000 1.0
C      1  0.4819470000000  0.5116900000000  0.4467910000000 1.0
C      1  0.4818350000000  0.5662670000000  0.5431660000000 1.0
C      1  0.5082210000000  0.5564290000000  0.5362270000000 1.0
C      1  0.5354740000000  0.4397790000000  0.5051720000000 1.0
C      1  0.4313180000000  0.5136260000000  0.5098070000000 1.0
C      1  0.4894030000000  0.5719380000000  0.4865820000000 1.0
C      1  0.4820340000000  0.4568580000000  0.4945630000000 1.0
C      1  0.5640260000000  0.5095530000000  0.4882930000000 1.0
C      1  0.5079910000000  0.5211080000000  0.4402470000000 1.0
END
