TITL C-2782239-8622-779 0.000134606998786315 125000 -511.616983001876 0 0 90 (C1) n - 1
REM
REM in /home/nfs/bkarasulu/CARBON/AIRSS/Generating-Clusters/REBO/Higher-Symm/SD-CG/HFTN-CG
REM
REM
REM
REM
REM
REM ./C.cell (12c818d87b63d06a65506943cc24bca4)
REM
REM compiler GCC version 9.2.1 20190827 (Red Hat 9.2.1-1)
REM options -cpp -mtune=generic -march=x86-64 -g -O0 -fpre-include=/usr/include/finclude/math-vector-fortran.h
REM seed 202536358 67257581 -1329138308 1569139903 -1591432981 -1298734854 1787224053 -641495332 1137254927 1041895525 -275812047 1630400458 858445132 -764035741 1085772027 1688588516 1399011670 1891991381 2096756410 729251706 544791846 835780179 -269625173 -268495043 92807488 -2076763561 218215276 721705980 1956260994 -2050374720 -495321921 512839524 810521158
REM
CELL 1.54180   50.00000   50.00000   50.00000   90.00000   90.00000   90.00000
LATT -1
SFAC C  
C      1  0.5454120000000  0.4213020000000  0.5159830000000 1.0
C      1  0.5431330000000  0.4175950000000  0.4824590000000 1.0
C      1  0.5333090000000  0.5726330000000  0.5779210000000 1.0
C      1  0.5394990000000  0.5752210000000  0.4214880000000 1.0
C      1  0.4775890000000  0.4557920000000  0.5261340000000 1.0
C      1  0.4729610000000  0.4527320000000  0.4927800000000 1.0
C      1  0.4289300000000  0.4836600000000  0.5233010000000 1.0
C      1  0.4342840000000  0.4829310000000  0.4766540000000 1.0
C      1  0.5160580000000  0.3989380000000  0.4812780000000 1.0
C      1  0.5181890000000  0.4075250000000  0.5117190000000 1.0
C      1  0.5644470000000  0.5036460000000  0.5157480000000 1.0
C      1  0.5638840000000  0.5046410000000  0.4867000000000 1.0
C      1  0.5145150000000  0.4418850000000  0.5317960000000 1.0
C      1  0.5061630000000  0.4487320000000  0.4708960000000 1.0
C      1  0.5549840000000  0.4757930000000  0.5314070000000 1.0
C      1  0.5531750000000  0.4767920000000  0.4701570000000 1.0
C      1  0.5560140000000  0.5517590000000  0.5182800000000 1.0
C      1  0.5552480000000  0.5542720000000  0.4878390000000 1.0
C      1  0.4886100000000  0.5409490000000  0.5804620000000 1.0
C      1  0.4943200000000  0.5445120000000  0.4156720000000 1.0
C      1  0.5793590000000  0.4666900000000  0.5124980000000 1.0
C      1  0.5780370000000  0.4669640000000  0.4874620000000 1.0
C      1  0.4842680000000  0.4724720000000  0.5842710000000 1.0
C      1  0.4668120000000  0.4614290000000  0.4221560000000 1.0
C      1  0.4763560000000  0.5612500000000  0.5238680000000 1.0
C      1  0.4774870000000  0.5656180000000  0.4698780000000 1.0
C      1  0.4850330000000  0.4808290000000  0.5455080000000 1.0
C      1  0.4859340000000  0.4937970000000  0.4334230000000 1.0
C      1  0.5310210000000  0.4671600000000  0.4458130000000 1.0
C      1  0.5332020000000  0.4668030000000  0.5565140000000 1.0
C      1  0.4718480000000  0.5349640000000  0.5091550000000 1.0
C      1  0.4733900000000  0.5376840000000  0.4808470000000 1.0
C      1  0.4324180000000  0.5337000000000  0.5155520000000 1.0
C      1  0.4335220000000  0.5345820000000  0.4815250000000 1.0
C      1  0.4671100000000  0.4212950000000  0.5475580000000 1.0
C      1  0.4588900000000  0.4274140000000  0.4653580000000 1.0
C      1  0.4610910000000  0.4767400000000  0.4801700000000 1.0
C      1  0.4550130000000  0.4773460000000  0.5195170000000 1.0
C      1  0.4359570000000  0.5094520000000  0.4368070000000 1.0
C      1  0.4412930000000  0.5088200000000  0.5617540000000 1.0
C      1  0.5119260000000  0.5471750000000  0.4835520000000 1.0
C      1  0.5105800000000  0.5436310000000  0.5133470000000 1.0
C      1  0.4466100000000  0.5539390000000  0.5333760000000 1.0
C      1  0.4461620000000  0.5566760000000  0.4598510000000 1.0
C      1  0.5644370000000  0.5308490000000  0.4730330000000 1.0
C      1  0.5630690000000  0.5277400000000  0.5316140000000 1.0
C      1  0.5638300000000  0.5335980000000  0.4448930000000 1.0
C      1  0.5592460000000  0.5276860000000  0.5596210000000 1.0
C      1  0.5220190000000  0.5249680000000  0.4198910000000 1.0
C      1  0.5141510000000  0.5185580000000  0.5781580000000 1.0
C      1  0.5122370000000  0.4929660000000  0.5627000000000 1.0
C      1  0.5197850000000  0.4966860000000  0.4331020000000 1.0
C      1  0.5196220000000  0.4938310000000  0.5303810000000 1.0
C      1  0.5203080000000  0.4988080000000  0.4675570000000 1.0
C      1  0.5397240000000  0.5282810000000  0.5786290000000 1.0
C      1  0.5466770000000  0.5359510000000  0.4238620000000 1.0
C      1  0.4790900000000  0.4417840000000  0.4528070000000 1.0
C      1  0.4919330000000  0.4330260000000  0.5556220000000 1.0
C      1  0.5228910000000  0.4712900000000  0.4847570000000 1.0
C      1  0.5255330000000  0.4674680000000  0.5160930000000 1.0
C      1  0.5065770000000  0.5685060000000  0.5326140000000 1.0
C      1  0.5086770000000  0.5720970000000  0.4642420000000 1.0
C      1  0.5042740000000  0.4551780000000  0.5708760000000 1.0
C      1  0.4991000000000  0.4626720000000  0.4344020000000 1.0
C      1  0.5111460000000  0.5598170000000  0.5627910000000 1.0
C      1  0.5160070000000  0.5628280000000  0.4348300000000 1.0
C      1  0.4275850000000  0.5099230000000  0.5345980000000 1.0
C      1  0.4296310000000  0.5089680000000  0.4655200000000 1.0
C      1  0.4618960000000  0.4892320000000  0.5678860000000 1.0
C      1  0.4543630000000  0.4897170000000  0.4266340000000 1.0
C      1  0.5351780000000  0.5791900000000  0.4833340000000 1.0
C      1  0.5348340000000  0.5750390000000  0.5150190000000 1.0
C      1  0.4960100000000  0.5379190000000  0.4480640000000 1.0
C      1  0.4930690000000  0.5343030000000  0.5480810000000 1.0
C      1  0.4666780000000  0.5494150000000  0.4355670000000 1.0
C      1  0.4630810000000  0.5457910000000  0.5581230000000 1.0
C      1  0.4338840000000  0.5270230000000  0.5807490000000 1.0
C      1  0.4271280000000  0.5299370000000  0.4211480000000 1.0
C      1  0.4928400000000  0.5108610000000  0.4585490000000 1.0
C      1  0.4925450000000  0.5106680000000  0.5329620000000 1.0
C      1  0.5275510000000  0.5188260000000  0.5155520000000 1.0
C      1  0.5276600000000  0.5214260000000  0.4852350000000 1.0
C      1  0.5379780000000  0.4401630000000  0.4653670000000 1.0
C      1  0.5462770000000  0.4396560000000  0.5402950000000 1.0
C      1  0.4932490000000  0.4234010000000  0.4851950000000 1.0
C      1  0.4913700000000  0.4264580000000  0.5163800000000 1.0
C      1  0.4532270000000  0.4171520000000  0.5236000000000 1.0
C      1  0.4550450000000  0.4251440000000  0.4962770000000 1.0
C      1  0.4746420000000  0.5050630000000  0.4817340000000 1.0
C      1  0.4699030000000  0.5023990000000  0.5132230000000 1.0
END
