TITL C-2782236-320-385 -0.00164666808216598 125000 -391.325365191836 0 0 65 (C1) n - 1
REM
REM in /home/nfs/bkarasulu/CARBON/AIRSS/Generating-Clusters/REBO/Higher-Symm/SD-CG/HFTN-CG
REM
REM
REM
REM
REM
REM ./C.cell (12c818d87b63d06a65506943cc24bca4)
REM
REM compiler GCC version 9.2.1 20190827 (Red Hat 9.2.1-1)
REM options -cpp -mtune=generic -march=x86-64 -g -O0 -fpre-include=/usr/include/finclude/math-vector-fortran.h
REM seed -2124567698 1324577402 1289920051 1530382701 -1741667745 1680132239 -43839377 -1843219982 1381066193 1901787221 761938860 580869607 -1673166041 -1624744398 1780047325 205835864 649582017 652514213 1805626680 -793915693 1552873543 -1636006972 -1154047354 1192142116 1058668008 1591245991 1372071471 1089066311 -2069754422 -1022932060 -1024241448 950241375 -448035324
REM
CELL 1.54180   50.00000   50.00000   50.00000   90.00000   90.00000   90.00000
LATT -1
SFAC C  
C      1  0.5427720000000  0.4590630000000  0.5260740000000 1.0
C      1  0.5110590000000  0.5492380000000  0.5254390000000 1.0
C      1  0.4490440000000  0.4856620000000  0.5203970000000 1.0
C      1  0.4684640000000  0.4709720000000  0.4689450000000 1.0
C      1  0.4837370000000  0.5511410000000  0.4762770000000 1.0
C      1  0.5581680000000  0.4820190000000  0.4754870000000 1.0
C      1  0.4917550000000  0.4593570000000  0.5180230000000 1.0
C      1  0.5356920000000  0.5052070000000  0.5086720000000 1.0
C      1  0.4685700000000  0.5333770000000  0.5087250000000 1.0
C      1  0.5233680000000  0.4558630000000  0.4805900000000 1.0
C      1  0.4500720000000  0.5330320000000  0.4878410000000 1.0
C      1  0.5164310000000  0.5164410000000  0.4894360000000 1.0
C      1  0.5567420000000  0.4330730000000  0.5199600000000 1.0
C      1  0.5295710000000  0.5715990000000  0.5181390000000 1.0
C      1  0.4179880000000  0.4870210000000  0.5166140000000 1.0
C      1  0.4516540000000  0.4465640000000  0.4822710000000 1.0
C      1  0.4684150000000  0.5751890000000  0.4853560000000 1.0
C      1  0.5880380000000  0.4858340000000  0.4849850000000 1.0
C      1  0.4975860000000  0.5870850000000  0.4863320000000 1.0
C      1  0.4248880000000  0.4583460000000  0.4883070000000 1.0
C      1  0.5852760000000  0.4557300000000  0.4886160000000 1.0
C      1  0.5027230000000  0.5871760000000  0.5163930000000 1.0
C      1  0.5813200000000  0.4522880000000  0.5185140000000 1.0
C      1  0.4223340000000  0.4559840000000  0.5192320000000 1.0
C      1  0.4487080000000  0.4467780000000  0.5294900000000 1.0
C      1  0.5766830000000  0.4792280000000  0.5312580000000 1.0
C      1  0.4802800000000  0.5740820000000  0.5309520000000 1.0
C      1  0.5635160000000  0.4425350000000  0.4733060000000 1.0
C      1  0.4222260000000  0.4855690000000  0.4769240000000 1.0
C      1  0.5184270000000  0.5704470000000  0.4723500000000 1.0
C      1  0.4664850000000  0.5299420000000  0.5370720000000 1.0
C      1  0.4972770000000  0.4661330000000  0.5472650000000 1.0
C      1  0.5298120000000  0.5093050000000  0.5396310000000 1.0
C      1  0.5220740000000  0.5167320000000  0.4609350000000 1.0
C      1  0.5154080000000  0.4632340000000  0.4530910000000 1.0
C      1  0.4576740000000  0.5195080000000  0.4636260000000 1.0
C      1  0.4909610000000  0.4745170000000  0.4490810000000 1.0
C      1  0.5387080000000  0.4957150000000  0.4520120000000 1.0
C      1  0.4815860000000  0.5229700000000  0.4481530000000 1.0
C      1  0.5174240000000  0.4785850000000  0.5619690000000 1.0
C      1  0.4593680000000  0.5039930000000  0.5452090000000 1.0
C      1  0.5125200000000  0.5262300000000  0.5576720000000 1.0
C      1  0.4568400000000  0.5714000000000  0.5127690000000 1.0
C      1  0.4630300000000  0.4342490000000  0.5064380000000 1.0
C      1  0.5832080000000  0.5001540000000  0.5107160000000 1.0
C      1  0.5407570000000  0.5651690000000  0.4912610000000 1.0
C      1  0.5474330000000  0.4261320000000  0.4922380000000 1.0
C      1  0.4097420000000  0.5069360000000  0.4958260000000 1.0
C      1  0.4939640000000  0.4303420000000  0.5077070000000 1.0
C      1  0.5626770000000  0.5198380000000  0.5058610000000 1.0
C      1  0.4316470000000  0.5574250000000  0.5135680000000 1.0
C      1  0.5168850000000  0.4281890000000  0.4906750000000 1.0
C      1  0.4214390000000  0.5332480000000  0.4974950000000 1.0
C      1  0.5606150000000  0.5447390000000  0.4925680000000 1.0
C      1  0.4656860000000  0.4704610000000  0.5462100000000 1.0
C      1  0.5471390000000  0.4812960000000  0.5481710000000 1.0
C      1  0.4895820000000  0.5471890000000  0.5496630000000 1.0
C      1  0.5485240000000  0.4627200000000  0.4504040000000 1.0
C      1  0.4467220000000  0.4929010000000  0.4634960000000 1.0
C      1  0.5065760000000  0.5447570000000  0.4534790000000 1.0
C      1  0.4982610000000  0.5363460000000  0.5006830000000 1.0
C      1  0.5385300000000  0.4749770000000  0.5004730000000 1.0
C      1  0.4724800000000  0.4739870000000  0.5024980000000 1.0
C      1  0.5102220000000  0.5027700000000  0.5754430000000 1.0
C      1  0.4896350000000  0.4990690000000  0.4348740000000 1.0
END
