TITL C-2782226-7400-1435 0.00490348746443511 125000 -548.311440924916 0 0 94 (C1) n - 1
REM
REM in /home/nfs/bkarasulu/CARBON/AIRSS/Generating-Clusters/REBO/Higher-Symm/SD-CG/HFTN-CG
REM
REM
REM
REM
REM
REM ./C.cell (12c818d87b63d06a65506943cc24bca4)
REM
REM compiler GCC version 9.2.1 20190827 (Red Hat 9.2.1-1)
REM options -cpp -mtune=generic -march=x86-64 -g -O0 -fpre-include=/usr/include/finclude/math-vector-fortran.h
REM seed -561402915 -1381569410 1256815517 -2002924000 -196243596 265105753 188978426 1923413542 -1228530354 -1850024752 1571919527 -15479283 166081589 -877306490 367545558 -180867630 1254974599 101818509 1867338542 903632526 930152254 65444359 -594093437 334730919 -1759990543 -1889026822 2140603844 -251821172 1984415995 -1617220890 -1608963791 -1683354626 1722608278
REM
CELL 1.54180   50.00000   50.00000   50.00000   90.00000   90.00000   90.00000
LATT -1
SFAC C  
C      1  0.4845940000000  0.5657110000000  0.5537740000000 1.0
C      1  0.4621790000000  0.4394840000000  0.5383340000000 1.0
C      1  0.4432170000000  0.5600900000000  0.5052340000000 1.0
C      1  0.4431430000000  0.4342640000000  0.4772880000000 1.0
C      1  0.4847870000000  0.5670040000000  0.4463380000000 1.0
C      1  0.5120490000000  0.4253580000000  0.4429380000000 1.0
C      1  0.5472430000000  0.5597810000000  0.4758430000000 1.0
C      1  0.5492040000000  0.4356920000000  0.4942820000000 1.0
C      1  0.5419660000000  0.5730870000000  0.5366220000000 1.0
C      1  0.5197060000000  0.4267940000000  0.5469440000000 1.0
C      1  0.5518000000000  0.4576000000000  0.4697130000000 1.0
C      1  0.5613950000000  0.5412960000000  0.4983290000000 1.0
C      1  0.5428650000000  0.4478770000000  0.5444190000000 1.0
C      1  0.5103510000000  0.5486850000000  0.5596580000000 1.0
C      1  0.4792990000000  0.4617350000000  0.5523130000000 1.0
C      1  0.4453840000000  0.5386360000000  0.5291950000000 1.0
C      1  0.4328720000000  0.4548550000000  0.4993740000000 1.0
C      1  0.4624840000000  0.5547770000000  0.4620920000000 1.0
C      1  0.4964790000000  0.4519780000000  0.4526880000000 1.0
C      1  0.5419650000000  0.5537150000000  0.4428670000000 1.0
C      1  0.4702240000000  0.5739270000000  0.5007700000000 1.0
C      1  0.4697340000000  0.4208710000000  0.4836890000000 1.0
C      1  0.4923350000000  0.5780550000000  0.4748490000000 1.0
C      1  0.5022000000000  0.4175800000000  0.4722600000000 1.0
C      1  0.5232690000000  0.5728160000000  0.4881970000000 1.0
C      1  0.5246600000000  0.4205120000000  0.4976250000000 1.0
C      1  0.5187180000000  0.5775190000000  0.5204620000000 1.0
C      1  0.5087790000000  0.4193610000000  0.5219500000000 1.0
C      1  0.4902650000000  0.5777890000000  0.5279940000000 1.0
C      1  0.4776810000000  0.4259520000000  0.5165500000000 1.0
C      1  0.5593770000000  0.5322520000000  0.4597360000000 1.0
C      1  0.5733190000000  0.4564670000000  0.5033310000000 1.0
C      1  0.5646630000000  0.5584060000000  0.5452480000000 1.0
C      1  0.5238120000000  0.4508630000000  0.5699510000000 1.0
C      1  0.4819020000000  0.5376760000000  0.5732170000000 1.0
C      1  0.4397600000000  0.4569350000000  0.5488940000000 1.0
C      1  0.4214850000000  0.5394170000000  0.4971720000000 1.0
C      1  0.4327190000000  0.4466040000000  0.4532030000000 1.0
C      1  0.4960540000000  0.5476860000000  0.4291920000000 1.0
C      1  0.5183190000000  0.4551210000000  0.4301550000000 1.0
C      1  0.4614400000000  0.4650340000000  0.4956660000000 1.0
C      1  0.4681590000000  0.5312240000000  0.4747120000000 1.0
C      1  0.5014820000000  0.4726550000000  0.4760320000000 1.0
C      1  0.5234610000000  0.5409080000000  0.4256010000000 1.0
C      1  0.5376070000000  0.4737170000000  0.4927410000000 1.0
C      1  0.5436790000000  0.5373140000000  0.5188530000000 1.0
C      1  0.5360270000000  0.4696740000000  0.5257470000000 1.0
C      1  0.5196790000000  0.5398600000000  0.5349260000000 1.0
C      1  0.4824640000000  0.4687530000000  0.5203350000000 1.0
C      1  0.4672070000000  0.5283790000000  0.5063500000000 1.0
C      1  0.4396810000000  0.4796350000000  0.4487400000000 1.0
C      1  0.4778790000000  0.5231330000000  0.4275030000000 1.0
C      1  0.5201590000000  0.4857640000000  0.4275160000000 1.0
C      1  0.5675910000000  0.5009330000000  0.4501160000000 1.0
C      1  0.5829350000000  0.4899330000000  0.5034500000000 1.0
C      1  0.5634000000000  0.5249140000000  0.5513600000000 1.0
C      1  0.5209140000000  0.4817550000000  0.5742010000000 1.0
C      1  0.4751710000000  0.5086210000000  0.5600350000000 1.0
C      1  0.4389010000000  0.4909610000000  0.5447470000000 1.0
C      1  0.4190230000000  0.5048980000000  0.4952050000000 1.0
C      1  0.5479010000000  0.4934830000000  0.5853970000000 1.0
C      1  0.4881410000000  0.5163360000000  0.5969430000000 1.0
C      1  0.4387110000000  0.4765270000000  0.5757130000000 1.0
C      1  0.4079880000000  0.5221390000000  0.5206320000000 1.0
C      1  0.4112020000000  0.4689930000000  0.4615180000000 1.0
C      1  0.4470050000000  0.5234490000000  0.4247000000000 1.0
C      1  0.5050280000000  0.4926250000000  0.4004250000000 1.0
C      1  0.5610010000000  0.5109770000000  0.4208430000000 1.0
C      1  0.5910390000000  0.4688570000000  0.4797670000000 1.0
C      1  0.5853130000000  0.5373830000000  0.5301140000000 1.0
C      1  0.5637450000000  0.5113040000000  0.5782810000000 1.0
C      1  0.4992280000000  0.4943120000000  0.5927120000000 1.0
C      1  0.4688790000000  0.4822790000000  0.5696060000000 1.0
C      1  0.4272990000000  0.5190890000000  0.5425570000000 1.0
C      1  0.4122460000000  0.4748950000000  0.4899150000000 1.0
C      1  0.4341920000000  0.5025660000000  0.4295360000000 1.0
C      1  0.4854340000000  0.5079590000000  0.4015220000000 1.0
C      1  0.5334920000000  0.5145980000000  0.4177000000000 1.0
C      1  0.5740250000000  0.4721280000000  0.4562510000000 1.0
C      1  0.5854720000000  0.5231640000000  0.5033080000000 1.0
C      1  0.4834810000000  0.5079470000000  0.4569450000000 1.0
C      1  0.5143550000000  0.4967200000000  0.4588890000000 1.0
C      1  0.5417810000000  0.5071000000000  0.4714510000000 1.0
C      1  0.5525220000000  0.5003670000000  0.5027420000000 1.0
C      1  0.5438610000000  0.5081660000000  0.5322830000000 1.0
C      1  0.5188600000000  0.4925850000000  0.5431620000000 1.0
C      1  0.4921740000000  0.5048930000000  0.5341480000000 1.0
C      1  0.4617090000000  0.4930950000000  0.5241180000000 1.0
C      1  0.4500570000000  0.5029200000000  0.4960100000000 1.0
C      1  0.4615700000000  0.4877220000000  0.4702320000000 1.0
C      1  0.4927860000000  0.4434760000000  0.4912090000000 1.0
C      1  0.4969780000000  0.5533430000000  0.4972090000000 1.0
C      1  0.4965640000000  0.5305530000000  0.5173450000000 1.0
C      1  0.5081780000000  0.4757550000000  0.5082740000000 1.0
END
