TITL C-2782226-7400-895 -0.00473443566091656 125000 -814.690278050291 0 0 138 (C1) n - 1
REM
REM in /home/nfs/bkarasulu/CARBON/AIRSS/Generating-Clusters/REBO/Higher-Symm/SD-CG/HFTN-CG
REM
REM
REM
REM
REM
REM ./C.cell (12c818d87b63d06a65506943cc24bca4)
REM
REM compiler GCC version 9.2.1 20190827 (Red Hat 9.2.1-1)
REM options -cpp -mtune=generic -march=x86-64 -g -O0 -fpre-include=/usr/include/finclude/math-vector-fortran.h
REM seed 693204383 -193042918 1514404384 1135512304 504809074 -769135935 1649571622 -944026693 -1151362832 26142646 1284927533 -116283404 -579859631 1003289219 -109500221 1796233602 797487817 1150946222 -494760158 19257983 -715952086 879722336 -339002743 -1266814107 1863330968 849359930 1406806466 -103901937 -1270967717 773912112 -565493246 142601705 -259350087
REM
CELL 1.54180   50.00000   50.00000   50.00000   90.00000   90.00000   90.00000
LATT -1
SFAC C  
C      1  0.5559110000000  0.4901200000000  0.4232290000000 1.0
C      1  0.4592860000000  0.4657250000000  0.4154320000000 1.0
C      1  0.4791800000000  0.5507040000000  0.4047750000000 1.0
C      1  0.5613110000000  0.5104840000000  0.5751720000000 1.0
C      1  0.4565750000000  0.5424110000000  0.5862240000000 1.0
C      1  0.4825720000000  0.4519990000000  0.5914680000000 1.0
C      1  0.4409680000000  0.5122530000000  0.5791260000000 1.0
C      1  0.5411200000000  0.5380180000000  0.5795830000000 1.0
C      1  0.5129040000000  0.4512630000000  0.5831600000000 1.0
C      1  0.4403250000000  0.4943970000000  0.4172200000000 1.0
C      1  0.5411700000000  0.4574110000000  0.4221460000000 1.0
C      1  0.5100930000000  0.5503620000000  0.4104580000000 1.0
C      1  0.5749970000000  0.5239000000000  0.4630120000000 1.0
C      1  0.4702580000000  0.4316340000000  0.4827020000000 1.0
C      1  0.4575560000000  0.5561340000000  0.4702300000000 1.0
C      1  0.5717690000000  0.4889120000000  0.5331230000000 1.0
C      1  0.4732170000000  0.5642290000000  0.5419910000000 1.0
C      1  0.4590820000000  0.4485120000000  0.5317530000000 1.0
C      1  0.4250380000000  0.4845830000000  0.5278620000000 1.0
C      1  0.5216740000000  0.5659980000000  0.5334340000000 1.0
C      1  0.5481670000000  0.4434500000000  0.5306960000000 1.0
C      1  0.4266800000000  0.5141440000000  0.4614930000000 1.0
C      1  0.5171670000000  0.4210610000000  0.4805090000000 1.0
C      1  0.5509180000000  0.5554760000000  0.4676640000000 1.0
C      1  0.4322160000000  0.5501980000000  0.5651580000000 1.0
C      1  0.5826880000000  0.5235880000000  0.5529910000000 1.0
C      1  0.4834340000000  0.4305480000000  0.5644440000000 1.0
C      1  0.4389440000000  0.4457400000000  0.4341530000000 1.0
C      1  0.5736920000000  0.4717240000000  0.4442070000000 1.0
C      1  0.4837460000000  0.5713250000000  0.4319940000000 1.0
C      1  0.5631000000000  0.4434680000000  0.4428860000000 1.0
C      1  0.4249350000000  0.4726600000000  0.4346320000000 1.0
C      1  0.5179980000000  0.5725790000000  0.4346710000000 1.0
C      1  0.5631510000000  0.5461990000000  0.5574020000000 1.0
C      1  0.4168510000000  0.5242240000000  0.5588820000000 1.0
C      1  0.5175220000000  0.4279110000000  0.5594550000000 1.0
C      1  0.4758380000000  0.5257820000000  0.5209930000000 1.0
C      1  0.5262600000000  0.5043540000000  0.5164330000000 1.0
C      1  0.4805710000000  0.4759770000000  0.5121690000000 1.0
C      1  0.4877250000000  0.4698110000000  0.4805250000000 1.0
C      1  0.5318400000000  0.5003140000000  0.4850660000000 1.0
C      1  0.4803250000000  0.5239140000000  0.4882570000000 1.0
C      1  0.5186370000000  0.4691840000000  0.4803530000000 1.0
C      1  0.4671990000000  0.4969230000000  0.4811680000000 1.0
C      1  0.5130480000000  0.5263340000000  0.4860910000000 1.0
C      1  0.5062560000000  0.5302040000000  0.5178340000000 1.0
C      1  0.4605080000000  0.4988940000000  0.5122560000000 1.0
C      1  0.5128180000000  0.4765670000000  0.5109180000000 1.0
C      1  0.5300940000000  0.5079580000000  0.4364860000000 1.0
C      1  0.4893710000000  0.4801250000000  0.4240680000000 1.0
C      1  0.4831440000000  0.5301640000000  0.4318640000000 1.0
C      1  0.5310650000000  0.5013430000000  0.5636400000000 1.0
C      1  0.4830040000000  0.5249750000000  0.5735540000000 1.0
C      1  0.4855720000000  0.4748750000000  0.5662570000000 1.0
C      1  0.4687630000000  0.4983890000000  0.5647660000000 1.0
C      1  0.5110470000000  0.5253950000000  0.5699250000000 1.0
C      1  0.5175660000000  0.4757540000000  0.5604830000000 1.0
C      1  0.4694960000000  0.5040230000000  0.4302730000000 1.0
C      1  0.5174680000000  0.4802920000000  0.4272260000000 1.0
C      1  0.5148660000000  0.5315000000000  0.4381090000000 1.0
C      1  0.5771990000000  0.4359760000000  0.5140440000000 1.0
C      1  0.4275610000000  0.4679810000000  0.5005710000000 1.0
C      1  0.5066630000000  0.5738180000000  0.5055440000000 1.0
C      1  0.5773830000000  0.5578010000000  0.4860780000000 1.0
C      1  0.4254810000000  0.5305680000000  0.4893220000000 1.0
C      1  0.5100250000000  0.4202780000000  0.5074950000000 1.0
C      1  0.4509580000000  0.5496190000000  0.5002160000000 1.0
C      1  0.6014450000000  0.5358040000000  0.4808100000000 1.0
C      1  0.4829830000000  0.4240250000000  0.5111660000000 1.0
C      1  0.4511950000000  0.4518500000000  0.5010460000000 1.0
C      1  0.5908210000000  0.4656530000000  0.5166850000000 1.0
C      1  0.4792150000000  0.5637830000000  0.5100170000000 1.0
C      1  0.4355550000000  0.4267300000000  0.4538210000000 1.0
C      1  0.4685380000000  0.5900650000000  0.4535060000000 1.0
C      1  0.5904470000000  0.4771660000000  0.4666270000000 1.0
C      1  0.4337840000000  0.5691150000000  0.5435160000000 1.0
C      1  0.4725280000000  0.4119930000000  0.5401070000000 1.0
C      1  0.5982240000000  0.5221230000000  0.5299100000000 1.0
C      1  0.5625210000000  0.5659260000000  0.5372240000000 1.0
C      1  0.5254190000000  0.4107830000000  0.5340370000000 1.0
C      1  0.4030770000000  0.5171630000000  0.5351090000000 1.0
C      1  0.5658100000000  0.4249440000000  0.4641370000000 1.0
C      1  0.5265620000000  0.5861450000000  0.4610350000000 1.0
C      1  0.4085940000000  0.4783700000000  0.4569450000000 1.0
C      1  0.5355510000000  0.4742700000000  0.4556400000000 1.0
C      1  0.4500350000000  0.4960210000000  0.4559070000000 1.0
C      1  0.5207120000000  0.5467750000000  0.4649220000000 1.0
C      1  0.5280930000000  0.5347100000000  0.5419980000000 1.0
C      1  0.4471130000000  0.5059970000000  0.5402440000000 1.0
C      1  0.5224300000000  0.4574420000000  0.5332040000000 1.0
C      1  0.4645870000000  0.5344410000000  0.5481130000000 1.0
C      1  0.5494050000000  0.5081690000000  0.5371080000000 1.0
C      1  0.4888330000000  0.4595940000000  0.5380360000000 1.0
C      1  0.4724180000000  0.4703310000000  0.4523850000000 1.0
C      1  0.5525510000000  0.5032200000000  0.4610270000000 1.0
C      1  0.4863920000000  0.5445160000000  0.4625450000000 1.0
C      1  0.5443140000000  0.4158570000000  0.4799930000000 1.0
C      1  0.4029430000000  0.4989730000000  0.4805760000000 1.0
C      1  0.5461930000000  0.5821690000000  0.4872610000000 1.0
C      1  0.5449670000000  0.5799490000000  0.5148990000000 1.0
C      1  0.4017490000000  0.4974480000000  0.5084390000000 1.0
C      1  0.5503480000000  0.4158250000000  0.5113150000000 1.0
C      1  0.4546940000000  0.5839300000000  0.5203740000000 1.0
C      1  0.5953160000000  0.4974390000000  0.5111650000000 1.0
C      1  0.4459590000000  0.4190920000000  0.5199550000000 1.0
C      1  0.4400100000000  0.4165700000000  0.4865390000000 1.0
C      1  0.5945610000000  0.5037230000000  0.4808010000000 1.0
C      1  0.4567890000000  0.5864320000000  0.4862280000000 1.0
C      1  0.5422550000000  0.5531090000000  0.4190840000000 1.0
C      1  0.5127330000000  0.4411940000000  0.4324520000000 1.0
C      1  0.4370780000000  0.5259250000000  0.4222300000000 1.0
C      1  0.5437380000000  0.4475180000000  0.5702290000000 1.0
C      1  0.5176730000000  0.5613640000000  0.5851520000000 1.0
C      1  0.4380720000000  0.4782340000000  0.5794710000000 1.0
C      1  0.4557090000000  0.4494680000000  0.5730540000000 1.0
C      1  0.4836950000000  0.5626410000000  0.5861110000000 1.0
C      1  0.5595690000000  0.4770650000000  0.5774380000000 1.0
C      1  0.4535690000000  0.5557290000000  0.4245550000000 1.0
C      1  0.4787200000000  0.4431500000000  0.4328450000000 1.0
C      1  0.5593190000000  0.5232960000000  0.4151290000000 1.0
C      1  0.4831960000000  0.6041530000000  0.4773550000000 1.0
C      1  0.5957290000000  0.4570520000000  0.4857160000000 1.0
C      1  0.4127190000000  0.4318330000000  0.4747990000000 1.0
C      1  0.4860550000000  0.3838990000000  0.5426910000000 1.0
C      1  0.6032020000000  0.5443020000000  0.5129580000000 1.0
C      1  0.4249400000000  0.5580790000000  0.5175870000000 1.0
C      1  0.5113410000000  0.3830810000000  0.5395990000000 1.0
C      1  0.4046410000000  0.5369850000000  0.5119790000000 1.0
C      1  0.5826840000000  0.5667170000000  0.5149680000000 1.0
C      1  0.5079320000000  0.5926930000000  0.4842290000000 1.0
C      1  0.4091890000000  0.4594960000000  0.4807280000000 1.0
C      1  0.5874480000000  0.4293030000000  0.4822120000000 1.0
C      1  0.4380480000000  0.4652630000000  0.5488130000000 1.0
C      1  0.5648650000000  0.5440070000000  0.4410390000000 1.0
C      1  0.5670000000000  0.4613470000000  0.5492470000000 1.0
C      1  0.4365810000000  0.5441420000000  0.4509920000000 1.0
C      1  0.5004920000000  0.5703680000000  0.5572280000000 1.0
C      1  0.4951620000000  0.4316150000000  0.4604070000000 1.0
END
