TITL C-2782227-3064-756 0.000335349402551928 125000 -514.370753117436 0 0 87 (C1) n - 1
REM
REM in /home/nfs/bkarasulu/CARBON/AIRSS/Generating-Clusters/REBO/Higher-Symm/SD-CG/HFTN-CG
REM
REM
REM
REM
REM
REM ./C.cell (12c818d87b63d06a65506943cc24bca4)
REM
REM compiler GCC version 9.2.1 20190827 (Red Hat 9.2.1-1)
REM options -cpp -mtune=generic -march=x86-64 -g -O0 -fpre-include=/usr/include/finclude/math-vector-fortran.h
REM seed 1884076983 1445483536 -1101996652 -230983563 -1794142331 2105400258 -1715020921 -16139517 -2129469330 -1043783860 812140010 1214181143 638158046 1870030431 236645174 -1081697500 845169773 -321236651 -289920953 -23854503 904040959 1218416200 933511283 2100129137 -910213486 -1947762750 -2082252701 793784436 -303875813 -1444097842 728922091 346704707 -409162148
REM
CELL 1.54180   50.00000   50.00000   50.00000   90.00000   90.00000   90.00000
LATT -1
SFAC C  
C      1  0.5611630000000  0.5452130000000  0.5158260000000 1.0
C      1  0.4579780000000  0.5921210000000  0.5150460000000 1.0
C      1  0.4270950000000  0.4930230000000  0.5143150000000 1.0
C      1  0.4804870000000  0.3959900000000  0.5213920000000 1.0
C      1  0.5893490000000  0.4420400000000  0.5193000000000 1.0
C      1  0.5716710000000  0.5551570000000  0.4915450000000 1.0
C      1  0.4647340000000  0.6023870000000  0.4883660000000 1.0
C      1  0.4255750000000  0.4957970000000  0.4861020000000 1.0
C      1  0.4850760000000  0.4057500000000  0.4904800000000 1.0
C      1  0.5809760000000  0.4588980000000  0.4961580000000 1.0
C      1  0.5431970000000  0.4440580000000  0.5463130000000 1.0
C      1  0.5671840000000  0.5298190000000  0.5585940000000 1.0
C      1  0.4923080000000  0.5746140000000  0.5451350000000 1.0
C      1  0.4243920000000  0.5178490000000  0.5453400000000 1.0
C      1  0.4641740000000  0.4337700000000  0.5469170000000 1.0
C      1  0.5497220000000  0.4489200000000  0.4503780000000 1.0
C      1  0.5649840000000  0.5245240000000  0.4473490000000 1.0
C      1  0.4904190000000  0.5756220000000  0.4486380000000 1.0
C      1  0.4224190000000  0.5170920000000  0.4467450000000 1.0
C      1  0.4625450000000  0.4353170000000  0.4507050000000 1.0
C      1  0.4618090000000  0.5423250000000  0.4647750000000 1.0
C      1  0.4460800000000  0.4813410000000  0.4688810000000 1.0
C      1  0.5030460000000  0.4523490000000  0.4671950000000 1.0
C      1  0.5450500000000  0.4935920000000  0.4628370000000 1.0
C      1  0.5253980000000  0.5447890000000  0.4645810000000 1.0
C      1  0.4648920000000  0.5409350000000  0.5287220000000 1.0
C      1  0.4494000000000  0.4787370000000  0.5283340000000 1.0
C      1  0.5057560000000  0.4516310000000  0.5331120000000 1.0
C      1  0.5484760000000  0.4883240000000  0.5320960000000 1.0
C      1  0.5319840000000  0.5457750000000  0.5284530000000 1.0
C      1  0.4773260000000  0.4898240000000  0.5194860000000 1.0
C      1  0.5027190000000  0.4770010000000  0.5206050000000 1.0
C      1  0.5239690000000  0.4964530000000  0.5193870000000 1.0
C      1  0.5135720000000  0.5229360000000  0.5178500000000 1.0
C      1  0.4815330000000  0.5213980000000  0.5128560000000 1.0
C      1  0.4741860000000  0.4917070000000  0.4769170000000 1.0
C      1  0.4995710000000  0.4789710000000  0.4773040000000 1.0
C      1  0.5206600000000  0.4985400000000  0.4765190000000 1.0
C      1  0.5099930000000  0.5249890000000  0.4778910000000 1.0
C      1  0.4778450000000  0.5234270000000  0.4817950000000 1.0
C      1  0.5770880000000  0.5259670000000  0.5314110000000 1.0
C      1  0.4915410000000  0.5865200000000  0.5130370000000 1.0
C      1  0.4137210000000  0.5231610000000  0.5126840000000 1.0
C      1  0.4583750000000  0.4204100000000  0.5160310000000 1.0
C      1  0.5561670000000  0.4349460000000  0.5161700000000 1.0
C      1  0.5792560000000  0.5355690000000  0.4731740000000 1.0
C      1  0.4933800000000  0.5903170000000  0.4792460000000 1.0
C      1  0.4115450000000  0.5237040000000  0.4787530000000 1.0
C      1  0.4606110000000  0.4240230000000  0.4822930000000 1.0
C      1  0.5569400000000  0.4427360000000  0.4830820000000 1.0
C      1  0.4691270000000  0.4986330000000  0.5689420000000 1.0
C      1  0.4887910000000  0.4709830000000  0.5730460000000 1.0
C      1  0.5199580000000  0.4844460000000  0.5704420000000 1.0
C      1  0.5194380000000  0.5187030000000  0.5712790000000 1.0
C      1  0.4866230000000  0.5281950000000  0.5694060000000 1.0
C      1  0.4676600000000  0.4991210000000  0.4263680000000 1.0
C      1  0.4904010000000  0.4733910000000  0.4265900000000 1.0
C      1  0.5225690000000  0.4839380000000  0.4222690000000 1.0
C      1  0.5188470000000  0.5176170000000  0.4253790000000 1.0
C      1  0.4862440000000  0.5281500000000  0.4259400000000 1.0
C      1  0.4783810000000  0.5512040000000  0.5515560000000 1.0
C      1  0.4430860000000  0.4969890000000  0.5532360000000 1.0
C      1  0.4870630000000  0.4481360000000  0.5550710000000 1.0
C      1  0.5420820000000  0.4711160000000  0.5541810000000 1.0
C      1  0.5400340000000  0.5357760000000  0.5581660000000 1.0
C      1  0.4765730000000  0.5519960000000  0.4423550000000 1.0
C      1  0.4415330000000  0.4958340000000  0.4415800000000 1.0
C      1  0.4865610000000  0.4486240000000  0.4436940000000 1.0
C      1  0.5432330000000  0.4750570000000  0.4407560000000 1.0
C      1  0.5390290000000  0.5330710000000  0.4417910000000 1.0
C      1  0.5732670000000  0.5027600000000  0.4729240000000 1.0
C      1  0.5167030000000  0.5713010000000  0.4648390000000 1.0
C      1  0.4342790000000  0.5416150000000  0.4628340000000 1.0
C      1  0.4433350000000  0.4516420000000  0.4715940000000 1.0
C      1  0.5271400000000  0.4384490000000  0.4693500000000 1.0
C      1  0.5735930000000  0.4988010000000  0.5218730000000 1.0
C      1  0.5182980000000  0.5720620000000  0.5273300000000 1.0
C      1  0.4369060000000  0.5415140000000  0.5284440000000 1.0
C      1  0.4447650000000  0.4497880000000  0.5265800000000 1.0
C      1  0.5243080000000  0.4275130000000  0.5239260000000 1.0
C      1  0.5096200000000  0.4055920000000  0.5117800000000 1.0
C      1  0.5715230000000  0.5816650000000  0.4855170000000 1.0
C      1  0.4381140000000  0.5802050000000  0.5293450000000 1.0
C      1  0.4293900000000  0.4421050000000  0.4992440000000 1.0
C      1  0.5812720000000  0.4870750000000  0.4968860000000 1.0
C      1  0.4956820000000  0.5017640000000  0.4446650000000 1.0
C      1  0.4980430000000  0.5021890000000  0.5513040000000 1.0
END
