TITL C-2782238-9940-569 0.437044860187674 125000 -750.436930456181 0 0 128 (C1) n - 1
REM
REM in /home/nfs/bkarasulu/CARBON/AIRSS/Generating-Clusters/REBO/Higher-Symm/SD-CG/HFTN-CG
REM
REM
REM
REM
REM
REM ./C.cell (12c818d87b63d06a65506943cc24bca4)
REM
REM compiler GCC version 9.2.1 20190827 (Red Hat 9.2.1-1)
REM options -cpp -mtune=generic -march=x86-64 -g -O0 -fpre-include=/usr/include/finclude/math-vector-fortran.h
REM seed 238805332 9776691 1618830310 207869028 -1414718811 1457647228 -1598799822 1567533105 318753783 883785737 1338906413 1274229962 -1524905397 -2065570484 1964316749 -852107128 1930965364 959049130 542412094 -1601643988 2136098540 -652270992 2099290474 1908461782 786432371 1522998879 1283771070 208441042 -1968634462 40852679 79112829 -135457524 1994339036
REM
CELL 1.54180   50.00000   50.00000   50.00000   90.00000   90.00000   90.00000
LATT -1
SFAC C  
C      1  0.5809280000000  0.5294670000000  0.5533910000000 1.0
C      1  0.4966920000000  0.5472530000000  0.5741350000000 1.0
C      1  0.5070060000000  0.5888480000000  0.5280180000000 1.0
C      1  0.4649830000000  0.4842240000000  0.4851850000000 1.0
C      1  0.5648900000000  0.5260660000000  0.5767040000000 1.0
C      1  0.5130830000000  0.5532040000000  0.4991880000000 1.0
C      1  0.4831990000000  0.4287430000000  0.5596980000000 1.0
C      1  0.5284820000000  0.4639050000000  0.4136150000000 1.0
C      1  0.5982140000000  0.5338970000000  0.5256930000000 1.0
C      1  0.4486610000000  0.4233190000000  0.4396670000000 1.0
C      1  0.4562380000000  0.4983660000000  0.5414330000000 1.0
C      1  0.5353970000000  0.4696500000000  0.4727470000000 1.0
C      1  0.4533410000000  0.4414800000000  0.5643460000000 1.0
C      1  0.4648730000000  0.4500270000000  0.4275280000000 1.0
C      1  0.4685570000000  0.4479760000000  0.5144580000000 1.0
C      1  0.5130860000000  0.4272990000000  0.5754890000000 1.0
C      1  0.4650280000000  0.5735400000000  0.4567510000000 1.0
C      1  0.5258880000000  0.4829440000000  0.5716020000000 1.0
C      1  0.4231080000000  0.5007640000000  0.5453350000000 1.0
C      1  0.5656620000000  0.5518030000000  0.4143820000000 1.0
C      1  0.4904670000000  0.4481900000000  0.4975130000000 1.0
C      1  0.4997660000000  0.4786090000000  0.5288160000000 1.0
C      1  0.5082730000000  0.4048430000000  0.4772200000000 1.0
C      1  0.4674600000000  0.4963310000000  0.5835360000000 1.0
C      1  0.4890430000000  0.4633250000000  0.4456780000000 1.0
C      1  0.4608700000000  0.4248980000000  0.5356290000000 1.0
C      1  0.4174330000000  0.5449270000000  0.5585710000000 1.0
C      1  0.5074150000000  0.4953920000000  0.4606450000000 1.0
C      1  0.4862990000000  0.5540390000000  0.4842150000000 1.0
C      1  0.4288380000000  0.4996240000000  0.4345660000000 1.0
C      1  0.4530940000000  0.5111250000000  0.4942400000000 1.0
C      1  0.5407860000000  0.4535120000000  0.5778930000000 1.0
C      1  0.4249430000000  0.4549970000000  0.5534180000000 1.0
C      1  0.5239170000000  0.4984680000000  0.5991220000000 1.0
C      1  0.5590260000000  0.5733810000000  0.5217850000000 1.0
C      1  0.4904430000000  0.4926600000000  0.4007720000000 1.0
C      1  0.4664180000000  0.5487890000000  0.5760240000000 1.0
C      1  0.5090020000000  0.4946390000000  0.5538880000000 1.0
C      1  0.4438200000000  0.4320380000000  0.4874650000000 1.0
C      1  0.5028920000000  0.5179400000000  0.4833310000000 1.0
C      1  0.5516210000000  0.4628250000000  0.5474130000000 1.0
C      1  0.4808660000000  0.5910240000000  0.5142770000000 1.0
C      1  0.5374090000000  0.4319600000000  0.5520000000000 1.0
C      1  0.5289500000000  0.5062580000000  0.5213870000000 1.0
C      1  0.5903760000000  0.5627390000000  0.4088030000000 1.0
C      1  0.5199840000000  0.5435680000000  0.4387660000000 1.0
C      1  0.5353970000000  0.4164770000000  0.5270640000000 1.0
C      1  0.4819840000000  0.5271310000000  0.5312160000000 1.0
C      1  0.5071160000000  0.5488970000000  0.5285530000000 1.0
C      1  0.4251260000000  0.4661100000000  0.4560360000000 1.0
C      1  0.4744000000000  0.4872620000000  0.5180510000000 1.0
C      1  0.5509300000000  0.4972010000000  0.4771580000000 1.0
C      1  0.4981090000000  0.4569420000000  0.5834360000000 1.0
C      1  0.5014810000000  0.4660220000000  0.4768570000000 1.0
C      1  0.5569190000000  0.4468610000000  0.4773780000000 1.0
C      1  0.5430760000000  0.4784550000000  0.5217690000000 1.0
C      1  0.4500790000000  0.4751940000000  0.5647840000000 1.0
C      1  0.5210590000000  0.4533300000000  0.5222500000000 1.0
C      1  0.4324630000000  0.4502720000000  0.4338590000000 1.0
C      1  0.5383240000000  0.4120950000000  0.4736590000000 1.0
C      1  0.6138470000000  0.5731240000000  0.4035050000000 1.0
C      1  0.4647780000000  0.5378230000000  0.4944700000000 1.0
C      1  0.5495870000000  0.5369640000000  0.3973450000000 1.0
C      1  0.5437900000000  0.5307900000000  0.5238720000000 1.0
C      1  0.4186520000000  0.5118050000000  0.4739830000000 1.0
C      1  0.4160010000000  0.4838930000000  0.4794380000000 1.0
C      1  0.4980200000000  0.5202900000000  0.5571090000000 1.0
C      1  0.5053560000000  0.4194520000000  0.4274070000000 1.0
C      1  0.5315550000000  0.5853470000000  0.5140860000000 1.0
C      1  0.4483710000000  0.4606600000000  0.4777330000000 1.0
C      1  0.4505310000000  0.5478730000000  0.4585370000000 1.0
C      1  0.5046150000000  0.5714460000000  0.5533070000000 1.0
C      1  0.4807120000000  0.5727480000000  0.4320830000000 1.0
C      1  0.5321550000000  0.5104370000000  0.3950250000000 1.0
C      1  0.4176810000000  0.4695440000000  0.5051850000000 1.0
C      1  0.4158740000000  0.4460100000000  0.5270990000000 1.0
C      1  0.4550570000000  0.5025520000000  0.4336850000000 1.0
C      1  0.4988620000000  0.5261750000000  0.4517510000000 1.0
C      1  0.5578770000000  0.5239420000000  0.4775070000000 1.0
C      1  0.4002930000000  0.5127640000000  0.5232050000000 1.0
C      1  0.4487070000000  0.5304180000000  0.5378580000000 1.0
C      1  0.4576150000000  0.5714140000000  0.5593300000000 1.0
C      1  0.4542060000000  0.5227150000000  0.5806210000000 1.0
C      1  0.5296210000000  0.4349670000000  0.4266610000000 1.0
C      1  0.4947170000000  0.4073770000000  0.4497650000000 1.0
C      1  0.5631220000000  0.4792810000000  0.4999040000000 1.0
C      1  0.5216320000000  0.5480760000000  0.5924150000000 1.0
C      1  0.5212030000000  0.4704360000000  0.4428260000000 1.0
C      1  0.5602090000000  0.5740730000000  0.4888220000000 1.0
C      1  0.4609770000000  0.5764770000000  0.5304830000000 1.0
C      1  0.5522500000000  0.5557490000000  0.4412820000000 1.0
C      1  0.5434470000000  0.5448970000000  0.5742980000000 1.0
C      1  0.4198440000000  0.5534070000000  0.4977780000000 1.0
C      1  0.5870160000000  0.5332270000000  0.4746530000000 1.0
C      1  0.5968730000000  0.4797830000000  0.5051110000000 1.0
C      1  0.4929280000000  0.4847110000000  0.5936690000000 1.0
C      1  0.5355860000000  0.5475390000000  0.5471680000000 1.0
C      1  0.5257810000000  0.5730640000000  0.4524500000000 1.0
C      1  0.4683410000000  0.5284430000000  0.4417770000000 1.0
C      1  0.6030860000000  0.5303950000000  0.4981080000000 1.0
C      1  0.4179590000000  0.5411450000000  0.5265130000000 1.0
C      1  0.5564630000000  0.5013040000000  0.5892120000000 1.0
C      1  0.5150860000000  0.3918420000000  0.5245500000000 1.0
C      1  0.5183540000000  0.4858890000000  0.3977230000000 1.0
C      1  0.5514170000000  0.4219320000000  0.4995950000000 1.0
C      1  0.5748900000000  0.5550180000000  0.5343290000000 1.0
C      1  0.5121360000000  0.4260980000000  0.5036420000000 1.0
C      1  0.4548140000000  0.5525400000000  0.5169510000000 1.0
C      1  0.4861740000000  0.5439560000000  0.4174610000000 1.0
C      1  0.5649150000000  0.4770790000000  0.5755850000000 1.0
C      1  0.5446460000000  0.5447670000000  0.4955700000000 1.0
C      1  0.4273080000000  0.5210770000000  0.5701780000000 1.0
C      1  0.4464660000000  0.4689690000000  0.5166880000000 1.0
C      1  0.5025820000000  0.3872610000000  0.5031830000000 1.0
C      1  0.4307750000000  0.5064310000000  0.5116980000000 1.0
C      1  0.5729610000000  0.5584390000000  0.4645480000000 1.0
C      1  0.5176600000000  0.5379140000000  0.4074330000000 1.0
C      1  0.5032450000000  0.5136540000000  0.5102050000000 1.0
C      1  0.4291720000000  0.5384390000000  0.4750110000000 1.0
C      1  0.5019610000000  0.4542320000000  0.5496800000000 1.0
C      1  0.4844540000000  0.5192250000000  0.3954850000000 1.0
C      1  0.4469460000000  0.4132730000000  0.4660020000000 1.0
C      1  0.5853820000000  0.4579530000000  0.4851240000000 1.0
C      1  0.5455630000000  0.4302790000000  0.4499250000000 1.0
C      1  0.5280400000000  0.5783310000000  0.4817650000000 1.0
C      1  0.4736450000000  0.4813700000000  0.4227070000000 1.0
C      1  0.4777770000000  0.5840360000000  0.4843720000000 1.0
C      1  0.4352500000000  0.4263280000000  0.5151440000000 1.0
END
