TITL C-2782228-2999-705 0.434122884891267 125000 -794.492722699819 0 0 137 (C1) n - 1
REM
REM in /home/nfs/bkarasulu/CARBON/AIRSS/Generating-Clusters/REBO/Higher-Symm/SD-CG/HFTN-CG
REM
REM
REM
REM
REM
REM ./C.cell (12c818d87b63d06a65506943cc24bca4)
REM
REM compiler GCC version 9.2.1 20190827 (Red Hat 9.2.1-1)
REM options -cpp -mtune=generic -march=x86-64 -g -O0 -fpre-include=/usr/include/finclude/math-vector-fortran.h
REM seed 1391850256 739565846 1586664749 -1273618582 1846194057 -808301888 1077748167 1459608734 1006822670 -1085750980 243409831 -791707901 -855241855 1790729528 -297503350 -1899694532 -878698067 -1354446813 1388665609 334424968 877971205 -495850432 -1042013071 -625283189 -1634787650 1058632217 1694528910 1607257787 -356921561 929081272 -770570185 58143883 1290346661
REM
CELL 1.54180   50.00000   50.00000   50.00000   90.00000   90.00000   90.00000
LATT -1
SFAC C  
C      1  0.4800230000000  0.4528950000000  0.5669690000000 1.0
C      1  0.4858360000000  0.4152980000000  0.4454200000000 1.0
C      1  0.4846790000000  0.5514870000000  0.4114470000000 1.0
C      1  0.4873280000000  0.5969880000000  0.5465020000000 1.0
C      1  0.5145400000000  0.5630810000000  0.5870010000000 1.0
C      1  0.5087520000000  0.5876690000000  0.4514310000000 1.0
C      1  0.5120140000000  0.4559680000000  0.4131820000000 1.0
C      1  0.5156180000000  0.4320270000000  0.5464520000000 1.0
C      1  0.5687460000000  0.4423610000000  0.4947630000000 1.0
C      1  0.5684420000000  0.5023990000000  0.4551320000000 1.0
C      1  0.5690990000000  0.5547540000000  0.5007530000000 1.0
C      1  0.5648580000000  0.5038170000000  0.5573530000000 1.0
C      1  0.4395450000000  0.5502690000000  0.4957200000000 1.0
C      1  0.4358810000000  0.5037660000000  0.4437550000000 1.0
C      1  0.4218320000000  0.4433640000000  0.5041190000000 1.0
C      1  0.4290530000000  0.5005890000000  0.5559790000000 1.0
C      1  0.5463060000000  0.4267420000000  0.4627350000000 1.0
C      1  0.5450210000000  0.5403280000000  0.4233300000000 1.0
C      1  0.5486750000000  0.5796520000000  0.5343870000000 1.0
C      1  0.5395180000000  0.4685230000000  0.5902820000000 1.0
C      1  0.4520630000000  0.5807610000000  0.4733590000000 1.0
C      1  0.4484980000000  0.4652930000000  0.4207660000000 1.0
C      1  0.4619720000000  0.4118190000000  0.5133250000000 1.0
C      1  0.4807450000000  0.5329100000000  0.5788510000000 1.0
C      1  0.5200170000000  0.5532640000000  0.4934410000000 1.0
C      1  0.4979380000000  0.4817480000000  0.5459720000000 1.0
C      1  0.5206530000000  0.4438040000000  0.5086750000000 1.0
C      1  0.5216460000000  0.4902920000000  0.4565540000000 1.0
C      1  0.4945410000000  0.4508180000000  0.5182500000000 1.0
C      1  0.4742680000000  0.4904060000000  0.5545220000000 1.0
C      1  0.4893070000000  0.5549420000000  0.5011790000000 1.0
C      1  0.4975570000000  0.4785370000000  0.4484720000000 1.0
C      1  0.4309650000000  0.5557970000000  0.4632070000000 1.0
C      1  0.4412670000000  0.5297380000000  0.5450390000000 1.0
C      1  0.4179490000000  0.4456070000000  0.5379130000000 1.0
C      1  0.4234590000000  0.4735670000000  0.4505570000000 1.0
C      1  0.5738640000000  0.4470060000000  0.4617330000000 1.0
C      1  0.5740420000000  0.4720340000000  0.5479990000000 1.0
C      1  0.5767640000000  0.5511910000000  0.5338860000000 1.0
C      1  0.5736780000000  0.5360840000000  0.4507970000000 1.0
C      1  0.6007330000000  0.4804440000000  0.5067950000000 1.0
C      1  0.6089800000000  0.4875680000000  0.4770010000000 1.0
C      1  0.6007850000000  0.5157310000000  0.4889780000000 1.0
C      1  0.6005600000000  0.5088190000000  0.5187420000000 1.0
C      1  0.4063970000000  0.5162780000000  0.5060230000000 1.0
C      1  0.3782710000000  0.5120980000000  0.4930140000000 1.0
C      1  0.3721110000000  0.4829580000000  0.5024330000000 1.0
C      1  0.4004370000000  0.4880170000000  0.5153730000000 1.0
C      1  0.5229560000000  0.4825110000000  0.4031440000000 1.0
C      1  0.5205620000000  0.5976930000000  0.4769660000000 1.0
C      1  0.5268590000000  0.5352690000000  0.5957070000000 1.0
C      1  0.5254430000000  0.4074020000000  0.5286300000000 1.0
C      1  0.4727430000000  0.5235350000000  0.4032780000000 1.0
C      1  0.4749740000000  0.4004330000000  0.4689170000000 1.0
C      1  0.4756580000000  0.4733970000000  0.5918300000000 1.0
C      1  0.4762340000000  0.6113140000000  0.5217540000000 1.0
C      1  0.4558780000000  0.4795480000000  0.4903490000000 1.0
C      1  0.4620650000000  0.5124660000000  0.4842900000000 1.0
C      1  0.4602350000000  0.5089570000000  0.5168040000000 1.0
C      1  0.4521290000000  0.4789060000000  0.5224800000000 1.0
C      1  0.5466540000000  0.5196990000000  0.4903790000000 1.0
C      1  0.5320810000000  0.4880140000000  0.4909020000000 1.0
C      1  0.5454990000000  0.4779010000000  0.5206540000000 1.0
C      1  0.5476200000000  0.5093570000000  0.5209370000000 1.0
C      1  0.4805030000000  0.4567690000000  0.4130820000000 1.0
C      1  0.4777040000000  0.5839040000000  0.4529740000000 1.0
C      1  0.4872370000000  0.5603020000000  0.5785720000000 1.0
C      1  0.4873070000000  0.4157180000000  0.5356740000000 1.0
C      1  0.5154760000000  0.5507890000000  0.4129800000000 1.0
C      1  0.5181530000000  0.4168020000000  0.4514640000000 1.0
C      1  0.5092310000000  0.4570380000000  0.5790630000000 1.0
C      1  0.5193100000000  0.5938200000000  0.5429940000000 1.0
C      1  0.4215350000000  0.4775710000000  0.5332970000000 1.0
C      1  0.4318470000000  0.4631810000000  0.4798260000000 1.0
C      1  0.4399720000000  0.5232070000000  0.4665770000000 1.0
C      1  0.4325080000000  0.5275840000000  0.5127930000000 1.0
C      1  0.5767620000000  0.5195220000000  0.5329300000000 1.0
C      1  0.5763220000000  0.5308910000000  0.4818890000000 1.0
C      1  0.5599880000000  0.4764410000000  0.4730130000000 1.0
C      1  0.5767370000000  0.4653500000000  0.5159840000000 1.0
C      1  0.5562850000000  0.4435330000000  0.5438370000000 1.0
C      1  0.5525400000000  0.4564480000000  0.4368950000000 1.0
C      1  0.5519220000000  0.5622320000000  0.4495840000000 1.0
C      1  0.5571790000000  0.5582850000000  0.5605200000000 1.0
C      1  0.4563160000000  0.5600750000000  0.5417160000000 1.0
C      1  0.4434820000000  0.5506490000000  0.4340350000000 1.0
C      1  0.4394410000000  0.4435260000000  0.4458970000000 1.0
C      1  0.4407890000000  0.4495600000000  0.5614230000000 1.0
C      1  0.5524090000000  0.5279350000000  0.5751930000000 1.0
C      1  0.5474340000000  0.4382890000000  0.5161980000000 1.0
C      1  0.5460790000000  0.4866520000000  0.4370180000000 1.0
C      1  0.5463550000000  0.5674930000000  0.4808290000000 1.0
C      1  0.4491660000000  0.4778840000000  0.5622680000000 1.0
C      1  0.4603810000000  0.5667160000000  0.5120470000000 1.0
C      1  0.4437780000000  0.5219990000000  0.4198670000000 1.0
C      1  0.4351720000000  0.4293550000000  0.4761430000000 1.0
C      1  0.4912150000000  0.5170450000000  0.5260460000000 1.0
C      1  0.4696290000000  0.4560490000000  0.5346320000000 1.0
C      1  0.4801350000000  0.4691060000000  0.4717980000000 1.0
C      1  0.4916010000000  0.5277150000000  0.4803080000000 1.0
C      1  0.5229000000000  0.4651570000000  0.5423610000000 1.0
C      1  0.5207490000000  0.5304390000000  0.5188830000000 1.0
C      1  0.5182390000000  0.5199350000000  0.4714900000000 1.0
C      1  0.5086450000000  0.4620790000000  0.4830470000000 1.0
C      1  0.4738530000000  0.5749500000000  0.5583640000000 1.0
C      1  0.4644590000000  0.4252620000000  0.5590700000000 1.0
C      1  0.4691230000000  0.4342010000000  0.4332900000000 1.0
C      1  0.4680590000000  0.5652000000000  0.4298090000000 1.0
C      1  0.5373170000000  0.4405380000000  0.5703850000000 1.0
C      1  0.5316720000000  0.5771920000000  0.5694900000000 1.0
C      1  0.5251010000000  0.5722910000000  0.4350670000000 1.0
C      1  0.5286810000000  0.4412100000000  0.4301000000000 1.0
C      1  0.5049680000000  0.4878300000000  0.5930120000000 1.0
C      1  0.5030970000000  0.4043270000000  0.4795740000000 1.0
C      1  0.5062670000000  0.5183340000000  0.4063900000000 1.0
C      1  0.5065340000000  0.6021770000000  0.5120830000000 1.0
C      1  0.4997930000000  0.5183610000000  0.5936190000000 1.0
C      1  0.4871330000000  0.5969820000000  0.4836820000000 1.0
C      1  0.4904460000000  0.4880580000000  0.4032720000000 1.0
C      1  0.5047020000000  0.4057480000000  0.5072520000000 1.0
C      1  0.5366220000000  0.4527040000000  0.4732980000000 1.0
C      1  0.5422420000000  0.5237380000000  0.4510040000000 1.0
C      1  0.5450270000000  0.5490120000000  0.5238270000000 1.0
C      1  0.5449030000000  0.4783150000000  0.5604980000000 1.0
C      1  0.4680450000000  0.5511210000000  0.4761900000000 1.0
C      1  0.4577300000000  0.4786030000000  0.4505350000000 1.0
C      1  0.4473080000000  0.4358470000000  0.5247190000000 1.0
C      1  0.4711210000000  0.5211550000000  0.5532270000000 1.0
C      1  0.5373600000000  0.5896340000000  0.5051030000000 1.0
C      1  0.5360300000000  0.5024180000000  0.5915560000000 1.0
C      1  0.5492080000000  0.3940130000000  0.5312890000000 1.0
C      1  0.5381600000000  0.5087320000000  0.4141470000000 1.0
C      1  0.4545940000000  0.4081520000000  0.4860490000000 1.0
C      1  0.4545490000000  0.4773610000000  0.6067160000000 1.0
C      1  0.4578430000000  0.5968290000000  0.5011260000000 1.0
C      1  0.4577290000000  0.4932920000000  0.4075280000000 1.0
C      1  0.5039860000000  0.4968770000000  0.5059430000000 1.0
END
