TITL C-2782237-5345-718 0.35631378195423 125000 -489.012447786322 0 0 84 (C1) n - 1
REM
REM in /home/nfs/bkarasulu/CARBON/AIRSS/Generating-Clusters/REBO/Higher-Symm/SD-CG/HFTN-CG
REM
REM
REM
REM
REM
REM ./C.cell (12c818d87b63d06a65506943cc24bca4)
REM
REM compiler GCC version 9.2.1 20190827 (Red Hat 9.2.1-1)
REM options -cpp -mtune=generic -march=x86-64 -g -O0 -fpre-include=/usr/include/finclude/math-vector-fortran.h
REM seed -2078396901 289439205 1231084081 -680373165 -1267238380 -162257071 684255902 -1967238990 74747806 253632921 609746050 151765528 -889053696 643872118 -2070822940 2092827708 503195834 1460820772 -416187441 -1535062995 -253689913 -1911028843 -1653787513 349468344 -575714781 473171432 -828223034 336875842 -1226259259 1892680203 820760636 1771577746 493596175
REM
CELL 1.54180   50.00000   50.00000   50.00000   90.00000   90.00000   90.00000
LATT -1
SFAC C  
C      1  0.5846030000000  0.5311690000000  0.4819090000000 1.0
C      1  0.5931360000000  0.4658360000000  0.5335880000000 1.0
C      1  0.4782300000000  0.4517890000000  0.4364440000000 1.0
C      1  0.4864360000000  0.5508480000000  0.5618060000000 1.0
C      1  0.4951860000000  0.5560670000000  0.4529200000000 1.0
C      1  0.4943360000000  0.4510150000000  0.5423120000000 1.0
C      1  0.4685020000000  0.4471550000000  0.5282500000000 1.0
C      1  0.4683900000000  0.5557090000000  0.4657620000000 1.0
C      1  0.4091700000000  0.4691690000000  0.4935260000000 1.0
C      1  0.4170350000000  0.5243460000000  0.5104910000000 1.0
C      1  0.4975530000000  0.4088600000000  0.4542160000000 1.0
C      1  0.5119900000000  0.5840680000000  0.5301560000000 1.0
C      1  0.5588550000000  0.4395310000000  0.4871440000000 1.0
C      1  0.5470900000000  0.5647280000000  0.5178950000000 1.0
C      1  0.4514370000000  0.6024070000000  0.4697680000000 1.0
C      1  0.4607890000000  0.3985130000000  0.5324320000000 1.0
C      1  0.5429740000000  0.4833380000000  0.5795560000000 1.0
C      1  0.5455400000000  0.5168160000000  0.4264690000000 1.0
C      1  0.5204610000000  0.5279540000000  0.4153270000000 1.0
C      1  0.5167980000000  0.4739090000000  0.5886870000000 1.0
C      1  0.4404360000000  0.5381800000000  0.5058990000000 1.0
C      1  0.4345810000000  0.4586750000000  0.4930460000000 1.0
C      1  0.5500250000000  0.4636560000000  0.5588250000000 1.0
C      1  0.5499490000000  0.5384910000000  0.4464680000000 1.0
C      1  0.5612480000000  0.5421230000000  0.4736040000000 1.0
C      1  0.5672170000000  0.4581880000000  0.5356150000000 1.0
C      1  0.5469940000000  0.4884940000000  0.4279880000000 1.0
C      1  0.5452930000000  0.5117670000000  0.5789750000000 1.0
C      1  0.4984650000000  0.5061350000000  0.4515940000000 1.0
C      1  0.5065850000000  0.5005800000000  0.5607090000000 1.0
C      1  0.5289810000000  0.4902500000000  0.5142190000000 1.0
C      1  0.5304770000000  0.5148990000000  0.4914920000000 1.0
C      1  0.5282230000000  0.4995840000000  0.4629490000000 1.0
C      1  0.5293310000000  0.5022480000000  0.5435660000000 1.0
C      1  0.4589460000000  0.5308740000000  0.4803850000000 1.0
C      1  0.4577180000000  0.4693680000000  0.5102150000000 1.0
C      1  0.4565530000000  0.4984300000000  0.5205580000000 1.0
C      1  0.4583340000000  0.4991430000000  0.4757840000000 1.0
C      1  0.4800130000000  0.4782510000000  0.4885210000000 1.0
C      1  0.4748980000000  0.5178980000000  0.5067180000000 1.0
C      1  0.4385370000000  0.4736000000000  0.4407850000000 1.0
C      1  0.4459210000000  0.5251530000000  0.5599840000000 1.0
C      1  0.4500130000000  0.4475090000000  0.4479530000000 1.0
C      1  0.4579840000000  0.5498210000000  0.5501560000000 1.0
C      1  0.5491100000000  0.5496840000000  0.5419970000000 1.0
C      1  0.5558510000000  0.4550610000000  0.4632920000000 1.0
C      1  0.5202980000000  0.5666080000000  0.4737150000000 1.0
C      1  0.5208680000000  0.4460020000000  0.5211640000000 1.0
C      1  0.5393450000000  0.4635480000000  0.4393470000000 1.0
C      1  0.5348580000000  0.5354970000000  0.5677140000000 1.0
C      1  0.5589330000000  0.4878200000000  0.4982640000000 1.0
C      1  0.5584700000000  0.5165680000000  0.5083740000000 1.0
C      1  0.5112680000000  0.4561110000000  0.4433150000000 1.0
C      1  0.5110630000000  0.5377220000000  0.5433790000000 1.0
C      1  0.5129210000000  0.5699730000000  0.5541540000000 1.0
C      1  0.4993910000000  0.4262980000000  0.4327680000000 1.0
C      1  0.4353240000000  0.4893910000000  0.4642720000000 1.0
C      1  0.4388530000000  0.5071230000000  0.5392470000000 1.0
C      1  0.5522280000000  0.5201900000000  0.5354410000000 1.0
C      1  0.5527960000000  0.4839710000000  0.4707990000000 1.0
C      1  0.4512170000000  0.5029080000000  0.4010270000000 1.0
C      1  0.4556680000000  0.4949500000000  0.5994750000000 1.0
C      1  0.4842970000000  0.4845570000000  0.4359500000000 1.0
C      1  0.4903350000000  0.5206460000000  0.5729650000000 1.0
C      1  0.4616050000000  0.5795930000000  0.4801210000000 1.0
C      1  0.4629690000000  0.4211620000000  0.5176850000000 1.0
C      1  0.5262490000000  0.4481570000000  0.5535130000000 1.0
C      1  0.5280770000000  0.5578290000000  0.4444280000000 1.0
C      1  0.4630130000000  0.5129290000000  0.5807230000000 1.0
C      1  0.4570880000000  0.4876910000000  0.4225250000000 1.0
C      1  0.4992930000000  0.4540900000000  0.4742120000000 1.0
C      1  0.5020340000000  0.5367690000000  0.5126730000000 1.0
C      1  0.4449920000000  0.4386220000000  0.4749270000000 1.0
C      1  0.4528100000000  0.5575330000000  0.5230890000000 1.0
C      1  0.4697000000000  0.5755910000000  0.5077710000000 1.0
C      1  0.4641160000000  0.4213200000000  0.4884680000000 1.0
C      1  0.4903930000000  0.4238850000000  0.4775540000000 1.0
C      1  0.4976020000000  0.5689980000000  0.5105290000000 1.0
C      1  0.4968630000000  0.4719700000000  0.5661850000000 1.0
C      1  0.5004460000000  0.5310070000000  0.4339810000000 1.0
C      1  0.5095030000000  0.4687230000000  0.5025240000000 1.0
C      1  0.4995820000000  0.5185730000000  0.4832900000000 1.0
C      1  0.5432800000000  0.5593990000000  0.4900350000000 1.0
C      1  0.5520570000000  0.4449830000000  0.5144440000000 1.0
END
