TITL C-2782233-7966-34 -0.000242530524597297 125000 -261.749795884015 0 0 46 (C1) n - 1
REM
REM in /home/nfs/bkarasulu/CARBON/AIRSS/Generating-Clusters/REBO/Higher-Symm/SD-CG/HFTN-CG
REM
REM
REM
REM
REM
REM ./C.cell (12c818d87b63d06a65506943cc24bca4)
REM
REM compiler GCC version 9.2.1 20190827 (Red Hat 9.2.1-1)
REM options -cpp -mtune=generic -march=x86-64 -g -O0 -fpre-include=/usr/include/finclude/math-vector-fortran.h
REM seed 961048009 -1456137007 -1911105205 556129942 2042859626 -518015013 2103415849 -333672061 2145279923 1001262914 1817956726 2114661112 -911120430 696257029 -1418920887 -296308327 457973342 -132489066 -2143565354 472185228 454649861 1606939572 400870368 276343122 797344183 -1725098601 -649091068 1631894540 1844832261 -1946378485 483650227 -476724229 1634689260
REM
CELL 1.54180   50.00000   50.00000   50.00000   90.00000   90.00000   90.00000
LATT -1
SFAC C  
C      1  0.4539700000000  0.4966540000000  0.4479540000000 1.0
C      1  0.4459250000000  0.4936610000000  0.5428850000000 1.0
C      1  0.5001950000000  0.4887210000000  0.4467160000000 1.0
C      1  0.4917560000000  0.4986820000000  0.5523810000000 1.0
C      1  0.4588920000000  0.4739090000000  0.4693420000000 1.0
C      1  0.4588830000000  0.4746080000000  0.5266020000000 1.0
C      1  0.5015990000000  0.4456840000000  0.4759230000000 1.0
C      1  0.5118740000000  0.4460530000000  0.5300210000000 1.0
C      1  0.5261980000000  0.4929450000000  0.4376000000000 1.0
C      1  0.5143140000000  0.5135610000000  0.5591360000000 1.0
C      1  0.5643650000000  0.5057010000000  0.5138960000000 1.0
C      1  0.5633180000000  0.4786980000000  0.4749310000000 1.0
C      1  0.4752270000000  0.5842180000000  0.5209040000000 1.0
C      1  0.4958650000000  0.5810580000000  0.4781490000000 1.0
C      1  0.4824890000000  0.5303370000000  0.4680460000000 1.0
C      1  0.4688770000000  0.5315930000000  0.5235380000000 1.0
C      1  0.4901520000000  0.4691910000000  0.5392420000000 1.0
C      1  0.4894030000000  0.4662090000000  0.4612570000000 1.0
C      1  0.4661770000000  0.5591330000000  0.5257680000000 1.0
C      1  0.4899450000000  0.5571380000000  0.4669170000000 1.0
C      1  0.5390050000000  0.5579900000000  0.5454630000000 1.0
C      1  0.5629740000000  0.5255940000000  0.4506850000000 1.0
C      1  0.4798480000000  0.5106950000000  0.4469360000000 1.0
C      1  0.4669480000000  0.5136150000000  0.5462870000000 1.0
C      1  0.5298110000000  0.5354950000000  0.5571980000000 1.0
C      1  0.5498140000000  0.5059270000000  0.4373580000000 1.0
C      1  0.5224390000000  0.5942920000000  0.5167480000000 1.0
C      1  0.5473910000000  0.5578480000000  0.4984530000000 1.0
C      1  0.4384780000000  0.4324960000000  0.5029930000000 1.0
C      1  0.4969250000000  0.5919500000000  0.5043510000000 1.0
C      1  0.5089400000000  0.5150600000000  0.4938200000000 1.0
C      1  0.5403670000000  0.5727010000000  0.5213510000000 1.0
C      1  0.4421260000000  0.4484990000000  0.4757790000000 1.0
C      1  0.5513180000000  0.4858190000000  0.4991720000000 1.0
C      1  0.4922120000000  0.4705750000000  0.5057290000000 1.0
C      1  0.4234440000000  0.4165740000000  0.5186570000000 1.0
C      1  0.5284110000000  0.5336670000000  0.4886770000000 1.0
C      1  0.4680620000000  0.4476480000000  0.4980020000000 1.0
C      1  0.4088100000000  0.4010760000000  0.5339040000000 1.0
C      1  0.5178730000000  0.4870710000000  0.4992020000000 1.0
C      1  0.4658580000000  0.4875440000000  0.4964260000000 1.0
C      1  0.4937090000000  0.4306160000000  0.5057400000000 1.0
C      1  0.5557960000000  0.5404660000000  0.4728860000000 1.0
C      1  0.5381030000000  0.4621290000000  0.5159430000000 1.0
C      1  0.5254880000000  0.4375930000000  0.4987810000000 1.0
C      1  0.4769630000000  0.5175030000000  0.4973270000000 1.0
END
