TITL C-2782226-7400-1036 -0.00254182313375016 125000 -919.620578549665 0 0 158 (C1) n - 1
REM
REM in /home/nfs/bkarasulu/CARBON/AIRSS/Generating-Clusters/REBO/Higher-Symm/SD-CG/HFTN-CG
REM
REM
REM
REM
REM
REM ./C.cell (12c818d87b63d06a65506943cc24bca4)
REM
REM compiler GCC version 9.2.1 20190827 (Red Hat 9.2.1-1)
REM options -cpp -mtune=generic -march=x86-64 -g -O0 -fpre-include=/usr/include/finclude/math-vector-fortran.h
REM seed -1059970859 2144004592 1926236701 -564534290 -322911745 -1964381410 -1098153451 -1251851838 -1882669794 -898089334 502629987 1060041140 570915946 585105333 700620761 25260652 -697738528 -988401448 -431749921 -521848828 -1970859601 185630964 1259948758 1835626847 -718566615 1054093493 -215702597 -477105713 1617882577 -947356041 1883765344 -685602263 -1214207114
REM
CELL 1.54180   50.00000   50.00000   50.00000   90.00000   90.00000   90.00000
LATT -1
SFAC C  
C      1  0.4817140000000  0.4562410000000  0.4717650000000 1.0
C      1  0.4701550000000  0.5545340000000  0.5137930000000 1.0
C      1  0.5199210000000  0.4469460000000  0.5168780000000 1.0
C      1  0.5202270000000  0.5536080000000  0.4884520000000 1.0
C      1  0.4162170000000  0.5413060000000  0.5255780000000 1.0
C      1  0.5463580000000  0.4564830000000  0.5718990000000 1.0
C      1  0.5835090000000  0.5383280000000  0.4734300000000 1.0
C      1  0.4762120000000  0.4584070000000  0.4146750000000 1.0
C      1  0.4771820000000  0.4143290000000  0.4557700000000 1.0
C      1  0.4511450000000  0.5892470000000  0.5205220000000 1.0
C      1  0.5294400000000  0.4029320000000  0.5531340000000 1.0
C      1  0.5422650000000  0.5858400000000  0.4802630000000 1.0
C      1  0.5675690000000  0.5250900000000  0.4150950000000 1.0
C      1  0.4213480000000  0.4696910000000  0.4413700000000 1.0
C      1  0.4432150000000  0.5251340000000  0.5625950000000 1.0
C      1  0.5753410000000  0.4660010000000  0.5690000000000 1.0
C      1  0.5223460000000  0.4510750000000  0.4100090000000 1.0
C      1  0.4116330000000  0.5409380000000  0.4835200000000 1.0
C      1  0.4862870000000  0.4576910000000  0.5832050000000 1.0
C      1  0.5853610000000  0.5409210000000  0.5239280000000 1.0
C      1  0.4961300000000  0.4904880000000  0.4471550000000 1.0
C      1  0.4289280000000  0.5137350000000  0.4957220000000 1.0
C      1  0.5012710000000  0.4741110000000  0.5605370000000 1.0
C      1  0.5645020000000  0.5236170000000  0.5048840000000 1.0
C      1  0.4176480000000  0.5066520000000  0.5735420000000 1.0
C      1  0.5825250000000  0.4881310000000  0.5847240000000 1.0
C      1  0.5868730000000  0.5025090000000  0.4131140000000 1.0
C      1  0.4185200000000  0.4883990000000  0.4217630000000 1.0
C      1  0.5245430000000  0.5173710000000  0.4729690000000 1.0
C      1  0.4473440000000  0.4711450000000  0.4584350000000 1.0
C      1  0.4751490000000  0.5210580000000  0.5339770000000 1.0
C      1  0.5320730000000  0.4893020000000  0.5328250000000 1.0
C      1  0.4558520000000  0.4855480000000  0.4882250000000 1.0
C      1  0.5036750000000  0.5119520000000  0.5482290000000 1.0
C      1  0.5466280000000  0.4900510000000  0.5064880000000 1.0
C      1  0.4910830000000  0.5237700000000  0.4671300000000 1.0
C      1  0.4166630000000  0.4387470000000  0.5168630000000 1.0
C      1  0.5111980000000  0.5624430000000  0.5876110000000 1.0
C      1  0.5902380000000  0.4314900000000  0.4882360000000 1.0
C      1  0.4915190000000  0.5587830000000  0.4071570000000 1.0
C      1  0.6022650000000  0.5139390000000  0.5118820000000 1.0
C      1  0.5139640000000  0.4772410000000  0.3982580000000 1.0
C      1  0.3893180000000  0.5179640000000  0.4927440000000 1.0
C      1  0.4866680000000  0.4792240000000  0.6054250000000 1.0
C      1  0.5082680000000  0.5896180000000  0.4772110000000 1.0
C      1  0.4766920000000  0.4127150000000  0.4894180000000 1.0
C      1  0.4851250000000  0.5906920000000  0.5214900000000 1.0
C      1  0.5267700000000  0.3938610000000  0.5252840000000 1.0
C      1  0.4338670000000  0.5159550000000  0.4621990000000 1.0
C      1  0.4547390000000  0.4931460000000  0.5686780000000 1.0
C      1  0.5676840000000  0.5124590000000  0.5463340000000 1.0
C      1  0.5506520000000  0.4955280000000  0.4281670000000 1.0
C      1  0.4964260000000  0.4375730000000  0.4160030000000 1.0
C      1  0.4129390000000  0.5628430000000  0.5062480000000 1.0
C      1  0.5161750000000  0.4420510000000  0.5788590000000 1.0
C      1  0.5805170000000  0.5591070000000  0.4965360000000 1.0
C      1  0.5352520000000  0.5398560000000  0.5844800000000 1.0
C      1  0.5838780000000  0.4554430000000  0.4655010000000 1.0
C      1  0.4632020000000  0.5406490000000  0.4126740000000 1.0
C      1  0.4271440000000  0.4632520000000  0.5332790000000 1.0
C      1  0.4124700000000  0.4928950000000  0.5278930000000 1.0
C      1  0.5291270000000  0.5125950000000  0.5926640000000 1.0
C      1  0.5883910000000  0.4855220000000  0.4721750000000 1.0
C      1  0.4710640000000  0.5081160000000  0.4063240000000 1.0
C      1  0.5134250000000  0.4887430000000  0.6075420000000 1.0
C      1  0.5977760000000  0.5131270000000  0.4826950000000 1.0
C      1  0.4838910000000  0.4825500000000  0.3980320000000 1.0
C      1  0.3988740000000  0.5174330000000  0.5216190000000 1.0
C      1  0.5600820000000  0.5004020000000  0.4795950000000 1.0
C      1  0.4701390000000  0.5094000000000  0.4365230000000 1.0
C      1  0.4430060000000  0.4984580000000  0.5230980000000 1.0
C      1  0.5274610000000  0.4821530000000  0.5781570000000 1.0
C      1  0.5490610000000  0.4403420000000  0.5084020000000 1.0
C      1  0.5208520000000  0.5469040000000  0.4551540000000 1.0
C      1  0.4515040000000  0.4468520000000  0.4811330000000 1.0
C      1  0.4792570000000  0.5537510000000  0.5466480000000 1.0
C      1  0.4792450000000  0.5577190000000  0.5864440000000 1.0
C      1  0.5877850000000  0.4424470000000  0.5177580000000 1.0
C      1  0.5182080000000  0.5454630000000  0.4155880000000 1.0
C      1  0.4120480000000  0.4483290000000  0.4872090000000 1.0
C      1  0.5009450000000  0.3988780000000  0.5153840000000 1.0
C      1  0.5188050000000  0.6046770000000  0.5060220000000 1.0
C      1  0.5084700000000  0.4193630000000  0.4800350000000 1.0
C      1  0.4746970000000  0.6045590000000  0.4922780000000 1.0
C      1  0.5130150000000  0.5730330000000  0.5132220000000 1.0
C      1  0.5098950000000  0.4445610000000  0.4685190000000 1.0
C      1  0.4800440000000  0.5725130000000  0.4864280000000 1.0
C      1  0.4916640000000  0.4310400000000  0.5143900000000 1.0
C      1  0.4636750000000  0.5618110000000  0.4614360000000 1.0
C      1  0.4749010000000  0.4545170000000  0.5283590000000 1.0
C      1  0.5279350000000  0.5458190000000  0.5268510000000 1.0
C      1  0.5328590000000  0.4592920000000  0.4632970000000 1.0
C      1  0.5147200000000  0.5831830000000  0.5631750000000 1.0
C      1  0.5639670000000  0.4116520000000  0.4850610000000 1.0
C      1  0.4892210000000  0.5865170000000  0.4249870000000 1.0
C      1  0.4317840000000  0.4155500000000  0.5184260000000 1.0
C      1  0.5288210000000  0.4192020000000  0.4440970000000 1.0
C      1  0.4385480000000  0.5781700000000  0.4719880000000 1.0
C      1  0.4787970000000  0.4189490000000  0.5609530000000 1.0
C      1  0.5551360000000  0.5770000000000  0.5317440000000 1.0
C      1  0.5675930000000  0.4199770000000  0.5288560000000 1.0
C      1  0.5327220000000  0.5686010000000  0.4353100000000 1.0
C      1  0.4301040000000  0.4242560000000  0.4713370000000 1.0
C      1  0.4654780000000  0.5781780000000  0.5658700000000 1.0
C      1  0.4248310000000  0.5544560000000  0.4564090000000 1.0
C      1  0.4618940000000  0.4428530000000  0.5687540000000 1.0
C      1  0.5695500000000  0.5557710000000  0.5467350000000 1.0
C      1  0.5439990000000  0.4400680000000  0.4291320000000 1.0
C      1  0.5548610000000  0.4431810000000  0.4755210000000 1.0
C      1  0.4655020000000  0.5681690000000  0.4325100000000 1.0
C      1  0.4499720000000  0.4597910000000  0.5102880000000 1.0
C      1  0.5307050000000  0.5567720000000  0.5560100000000 1.0
C      1  0.4996830000000  0.4194330000000  0.4391530000000 1.0
C      1  0.4333670000000  0.5818010000000  0.4997490000000 1.0
C      1  0.5078430000000  0.4178250000000  0.5651070000000 1.0
C      1  0.5584020000000  0.5774940000000  0.5024440000000 1.0
C      1  0.5398230000000  0.5262560000000  0.4051770000000 1.0
C      1  0.4021770000000  0.4724080000000  0.4658610000000 1.0
C      1  0.4659960000000  0.5275440000000  0.5853070000000 1.0
C      1  0.5863320000000  0.4673650000000  0.5401840000000 1.0
C      1  0.5861360000000  0.4974500000000  0.5304070000000 1.0
C      1  0.5304990000000  0.4985240000000  0.4030690000000 1.0
C      1  0.4019160000000  0.5053170000000  0.4677440000000 1.0
C      1  0.4678610000000  0.4988550000000  0.5983550000000 1.0
C      1  0.4381990000000  0.4574660000000  0.5615410000000 1.0
C      1  0.5646040000000  0.5428160000000  0.5718450000000 1.0
C      1  0.5696860000000  0.4521980000000  0.4359000000000 1.0
C      1  0.4352460000000  0.5420780000000  0.4321710000000 1.0
C      1  0.5267800000000  0.5185260000000  0.5061890000000 1.0
C      1  0.4943900000000  0.4927470000000  0.4809450000000 1.0
C      1  0.4747770000000  0.5099360000000  0.5017890000000 1.0
C      1  0.4993130000000  0.4839110000000  0.5288160000000 1.0
C      1  0.5749970000000  0.4760440000000  0.4213990000000 1.0
C      1  0.4237000000000  0.5143250000000  0.4300800000000 1.0
C      1  0.4263510000000  0.4786910000000  0.5797120000000 1.0
C      1  0.5774140000000  0.5146390000000  0.5750220000000 1.0
C      1  0.5097840000000  0.5892880000000  0.4445870000000 1.0
C      1  0.4464690000000  0.4100000000000  0.4956940000000 1.0
C      1  0.4907960000000  0.5916910000000  0.5517460000000 1.0
C      1  0.5506770000000  0.4004910000000  0.5090850000000 1.0
C      1  0.4222400000000  0.4806720000000  0.4911750000000 1.0
C      1  0.4931970000000  0.5329160000000  0.5675140000000 1.0
C      1  0.5649200000000  0.4676210000000  0.5143280000000 1.0
C      1  0.5079750000000  0.5210160000000  0.4370720000000 1.0
C      1  0.5530990000000  0.5825840000000  0.4547910000000 1.0
C      1  0.4505690000000  0.4168200000000  0.4474380000000 1.0
C      1  0.4423900000000  0.5878210000000  0.5471760000000 1.0
C      1  0.5562750000000  0.4130050000000  0.5567430000000 1.0
C      1  0.5500060000000  0.5390110000000  0.4806440000000 1.0
C      1  0.4732960000000  0.4690260000000  0.4420060000000 1.0
C      1  0.4458040000000  0.5382820000000  0.5326690000000 1.0
C      1  0.5269210000000  0.4599590000000  0.5448990000000 1.0
C      1  0.5369200000000  0.5181930000000  0.5446590000000 1.0
C      1  0.5415390000000  0.4876620000000  0.4563290000000 1.0
C      1  0.4616400000000  0.5311630000000  0.4606110000000 1.0
C      1  0.4612810000000  0.4833680000000  0.5402540000000 1.0
C      1  0.4989430000000  0.4673650000000  0.4993380000000 1.0
C      1  0.4968840000000  0.5356780000000  0.5041930000000 1.0
END
