TITL C-2782238-9940-36 -0.00481359552549295 125000 -421.89333425409 0 0 72 (C1) n - 1
REM
REM in /home/nfs/bkarasulu/CARBON/AIRSS/Generating-Clusters/REBO/Higher-Symm/SD-CG/HFTN-CG
REM
REM
REM
REM
REM
REM ./C.cell (12c818d87b63d06a65506943cc24bca4)
REM
REM compiler GCC version 9.2.1 20190827 (Red Hat 9.2.1-1)
REM options -cpp -mtune=generic -march=x86-64 -g -O0 -fpre-include=/usr/include/finclude/math-vector-fortran.h
REM seed 331369361 -994268254 -2021069633 664070965 -1744214818 -2017712326 1773788642 641639689 1410523784 -1970844536 -144182954 -298587102 401286192 -702003156 -1922192963 266168706 -1471511721 2133712905 -465939083 1101363164 -350601648 1863514471 1388698912 -1464996410 -2086761201 1889391261 1929802647 1622808184 226763383 -451099306 720396163 1863696855 1610461470
REM
CELL 1.54180   50.00000   50.00000   50.00000   90.00000   90.00000   90.00000
LATT -1
SFAC C  
C      1  0.4768760000000  0.4533400000000  0.4339090000000 1.0
C      1  0.4756220000000  0.5463560000000  0.4361070000000 1.0
C      1  0.4808900000000  0.5346420000000  0.5017150000000 1.0
C      1  0.4847250000000  0.4649860000000  0.5036880000000 1.0
C      1  0.5086880000000  0.4302160000000  0.4702870000000 1.0
C      1  0.5080230000000  0.5702690000000  0.4703150000000 1.0
C      1  0.4999170000000  0.4226620000000  0.5292810000000 1.0
C      1  0.4997070000000  0.5759180000000  0.5279300000000 1.0
C      1  0.5104760000000  0.4560620000000  0.4288270000000 1.0
C      1  0.5090000000000  0.5451760000000  0.4292700000000 1.0
C      1  0.4801170000000  0.4280940000000  0.4800910000000 1.0
C      1  0.4797550000000  0.5738370000000  0.4800440000000 1.0
C      1  0.4612230000000  0.4502250000000  0.5189290000000 1.0
C      1  0.4588730000000  0.5519120000000  0.5176620000000 1.0
C      1  0.5213960000000  0.4855140000000  0.4229950000000 1.0
C      1  0.5216290000000  0.5178930000000  0.4198300000000 1.0
C      1  0.4461230000000  0.4731370000000  0.5265930000000 1.0
C      1  0.4417840000000  0.5311170000000  0.5266800000000 1.0
C      1  0.5527740000000  0.5486150000000  0.5176470000000 1.0
C      1  0.5556580000000  0.4503430000000  0.5180160000000 1.0
C      1  0.5600240000000  0.5143190000000  0.4706650000000 1.0
C      1  0.5607260000000  0.4847490000000  0.4711180000000 1.0
C      1  0.4561210000000  0.5178570000000  0.5496110000000 1.0
C      1  0.4611970000000  0.4869300000000  0.5490940000000 1.0
C      1  0.4320360000000  0.4889010000000  0.4572800000000 1.0
C      1  0.4435450000000  0.5124420000000  0.4626520000000 1.0
C      1  0.4890040000000  0.5236410000000  0.4563770000000 1.0
C      1  0.4886950000000  0.4743770000000  0.4568260000000 1.0
C      1  0.4940680000000  0.4505340000000  0.5681770000000 1.0
C      1  0.4938760000000  0.5504890000000  0.5683090000000 1.0
C      1  0.4736550000000  0.4809730000000  0.4817270000000 1.0
C      1  0.4729570000000  0.5136300000000  0.4808600000000 1.0
C      1  0.5241960000000  0.5571500000000  0.4505940000000 1.0
C      1  0.5250200000000  0.4437170000000  0.4506080000000 1.0
C      1  0.5593630000000  0.5238440000000  0.4997170000000 1.0
C      1  0.5614070000000  0.4757340000000  0.5004900000000 1.0
C      1  0.5115930000000  0.4708940000000  0.5207510000000 1.0
C      1  0.5088160000000  0.5271900000000  0.5187470000000 1.0
C      1  0.4629910000000  0.4444510000000  0.4634020000000 1.0
C      1  0.4614460000000  0.5578890000000  0.4644230000000 1.0
C      1  0.5352140000000  0.5128160000000  0.5147450000000 1.0
C      1  0.5369160000000  0.4855840000000  0.5158130000000 1.0
C      1  0.5388650000000  0.5569510000000  0.4918940000000 1.0
C      1  0.5410980000000  0.4424260000000  0.4927380000000 1.0
C      1  0.4379460000000  0.4876340000000  0.5030610000000 1.0
C      1  0.4360410000000  0.5167490000000  0.5016720000000 1.0
C      1  0.4948190000000  0.4838360000000  0.5443780000000 1.0
C      1  0.4883400000000  0.5153030000000  0.5418410000000 1.0
C      1  0.5172150000000  0.5156800000000  0.5566930000000 1.0
C      1  0.5206870000000  0.4794830000000  0.5611210000000 1.0
C      1  0.4772580000000  0.5737330000000  0.5093700000000 1.0
C      1  0.4777110000000  0.4262620000000  0.5101460000000 1.0
C      1  0.5106700000000  0.4457840000000  0.4987270000000 1.0
C      1  0.5084710000000  0.5520450000000  0.4972080000000 1.0
C      1  0.5375760000000  0.5398670000000  0.5439360000000 1.0
C      1  0.5410980000000  0.4582330000000  0.5446760000000 1.0
C      1  0.5121560000000  0.4407850000000  0.5484790000000 1.0
C      1  0.5115350000000  0.5588410000000  0.5479160000000 1.0
C      1  0.4435990000000  0.4673590000000  0.4763450000000 1.0
C      1  0.4427610000000  0.5393810000000  0.4769330000000 1.0
C      1  0.5476660000000  0.4564660000000  0.4663660000000 1.0
C      1  0.5470190000000  0.5427610000000  0.4655110000000 1.0
C      1  0.5236200000000  0.4833940000000  0.5927290000000 1.0
C      1  0.5203320000000  0.5100440000000  0.5868240000000 1.0
C      1  0.5579380000000  0.4873990000000  0.5497800000000 1.0
C      1  0.5562660000000  0.5120530000000  0.5498320000000 1.0
C      1  0.4721030000000  0.4662610000000  0.5720340000000 1.0
C      1  0.4710470000000  0.5362990000000  0.5711460000000 1.0
C      1  0.5178470000000  0.4836660000000  0.4564140000000 1.0
C      1  0.5170930000000  0.5130700000000  0.4514160000000 1.0
C      1  0.4727920000000  0.4868320000000  0.4293220000000 1.0
C      1  0.4723140000000  0.5129770000000  0.4296900000000 1.0
END
