TITL C-2782231-7322-1274 -0.00292705892745772 125000 -792.409221072924 0 0 140 (C1) n - 1
REM
REM in /home/nfs/bkarasulu/CARBON/AIRSS/Generating-Clusters/REBO/Higher-Symm/SD-CG/HFTN-CG
REM
REM
REM
REM
REM
REM ./C.cell (12c818d87b63d06a65506943cc24bca4)
REM
REM compiler GCC version 9.2.1 20190827 (Red Hat 9.2.1-1)
REM options -cpp -mtune=generic -march=x86-64 -g -O0 -fpre-include=/usr/include/finclude/math-vector-fortran.h
REM seed -419421244 -95931913 -2074543879 1217693537 -71470607 355682529 345618088 883527682 -1434335569 548285635 -1683839880 -1754633875 1022908008 222095707 -1695449614 1986812331 1801030606 1430633729 -2060821092 158086209 1177592383 1293587754 -1555396758 -65469717 1860143968 -779360187 1164260946 1138075742 -2021141388 1228160400 -1194535727 -734580230 -1894320056
REM
CELL 1.54180   50.00000   50.00000   50.00000   90.00000   90.00000   90.00000
LATT -1
SFAC C  
C      1  0.4576360000000  0.5979270000000  0.4782440000000 1.0
C      1  0.4787200000000  0.6400580000000  0.4632000000000 1.0
C      1  0.4568000000000  0.6390480000000  0.5057060000000 1.0
C      1  0.5166410000000  0.3852820000000  0.4567710000000 1.0
C      1  0.4693260000000  0.3899670000000  0.4600210000000 1.0
C      1  0.4898600000000  0.3476680000000  0.4705070000000 1.0
C      1  0.5146590000000  0.3587960000000  0.4647900000000 1.0
C      1  0.4671680000000  0.3634980000000  0.4680530000000 1.0
C      1  0.4941440000000  0.4024590000000  0.4538990000000 1.0
C      1  0.4503520000000  0.6123700000000  0.5016480000000 1.0
C      1  0.4710630000000  0.6531350000000  0.4864790000000 1.0
C      1  0.4721900000000  0.6133770000000  0.4592990000000 1.0
C      1  0.4969930000000  0.5488280000000  0.5348260000000 1.0
C      1  0.4745040000000  0.5466170000000  0.4768950000000 1.0
C      1  0.5336720000000  0.5442390000000  0.4829240000000 1.0
C      1  0.5020400000000  0.4484740000000  0.5323960000000 1.0
C      1  0.5337730000000  0.4494520000000  0.4831960000000 1.0
C      1  0.4609380000000  0.4499550000000  0.4854780000000 1.0
C      1  0.5075860000000  0.4533450000000  0.4669430000000 1.0
C      1  0.5309230000000  0.4570540000000  0.5230180000000 1.0
C      1  0.4662590000000  0.4561940000000  0.5166180000000 1.0
C      1  0.5010480000000  0.5490650000000  0.4606920000000 1.0
C      1  0.4671970000000  0.5542170000000  0.5245010000000 1.0
C      1  0.5280450000000  0.5561460000000  0.5109440000000 1.0
C      1  0.4445390000000  0.5362490000000  0.5408780000000 1.0
C      1  0.5003010000000  0.5303140000000  0.4318250000000 1.0
C      1  0.5745660000000  0.5292580000000  0.5314540000000 1.0
C      1  0.5571490000000  0.4686780000000  0.5413230000000 1.0
C      1  0.5067140000000  0.4683450000000  0.4365360000000 1.0
C      1  0.4349470000000  0.4775390000000  0.5345930000000 1.0
C      1  0.5609100000000  0.4657330000000  0.4697060000000 1.0
C      1  0.5078210000000  0.4706120000000  0.5688480000000 1.0
C      1  0.4377880000000  0.4696450000000  0.4715440000000 1.0
C      1  0.4477930000000  0.5309570000000  0.4630410000000 1.0
C      1  0.5005140000000  0.5298530000000  0.5779660000000 1.0
C      1  0.5611290000000  0.5293560000000  0.4700770000000 1.0
C      1  0.5875070000000  0.4946980000000  0.4396500000000 1.0
C      1  0.5167850000000  0.4925610000000  0.6080530000000 1.0
C      1  0.4057780000000  0.5016500000000  0.4618430000000 1.0
C      1  0.4200400000000  0.5072700000000  0.4392360000000 1.0
C      1  0.4918880000000  0.5024870000000  0.6090690000000 1.0
C      1  0.5997720000000  0.5048770000000  0.4612950000000 1.0
C      1  0.4215840000000  0.5105410000000  0.5672810000000 1.0
C      1  0.4913660000000  0.4989250000000  0.3985860000000 1.0
C      1  0.6002600000000  0.5022170000000  0.5458540000000 1.0
C      1  0.5862810000000  0.4917680000000  0.5660300000000 1.0
C      1  0.5169210000000  0.4902250000000  0.3997340000000 1.0
C      1  0.4069420000000  0.5060000000000  0.5450850000000 1.0
C      1  0.3989490000000  0.4970020000000  0.5204170000000 1.0
C      1  0.5416230000000  0.4811550000000  0.4073070000000 1.0
C      1  0.5664860000000  0.4809080000000  0.5811560000000 1.0
C      1  0.6033830000000  0.5171710000000  0.5180520000000 1.0
C      1  0.4672700000000  0.5108410000000  0.4041870000000 1.0
C      1  0.4415020000000  0.5168980000000  0.5848970000000 1.0
C      1  0.6044110000000  0.5161580000000  0.4845180000000 1.0
C      1  0.4688540000000  0.5145940000000  0.6013140000000 1.0
C      1  0.4394190000000  0.5141440000000  0.4206700000000 1.0
C      1  0.3992500000000  0.4946650000000  0.4879020000000 1.0
C      1  0.5394030000000  0.4814530000000  0.5979560000000 1.0
C      1  0.5694310000000  0.4827830000000  0.4231220000000 1.0
C      1  0.4733920000000  0.5231910000000  0.5157090000000 1.0
C      1  0.5028790000000  0.5195070000000  0.4701200000000 1.0
C      1  0.5284740000000  0.5237220000000  0.5165710000000 1.0
C      1  0.5286880000000  0.4899090000000  0.5181670000000 1.0
C      1  0.5008230000000  0.4864260000000  0.4716500000000 1.0
C      1  0.4744530000000  0.4891840000000  0.5174440000000 1.0
C      1  0.5285440000000  0.4799090000000  0.4880040000000 1.0
C      1  0.5006710000000  0.4810710000000  0.5327670000000 1.0
C      1  0.4737610000000  0.4799220000000  0.4856400000000 1.0
C      1  0.4754680000000  0.5136980000000  0.4860720000000 1.0
C      1  0.5011640000000  0.5152240000000  0.5316620000000 1.0
C      1  0.5286180000000  0.5117670000000  0.4851100000000 1.0
C      1  0.5511770000000  0.5578620000000  0.5654120000000 1.0
C      1  0.4209040000000  0.5670230000000  0.5182050000000 1.0
C      1  0.5387350000000  0.5534050000000  0.4225800000000 1.0
C      1  0.4489680000000  0.4473740000000  0.5748400000000 1.0
C      1  0.5829490000000  0.4386070000000  0.5301920000000 1.0
C      1  0.4719050000000  0.4426610000000  0.4316640000000 1.0
C      1  0.4435460000000  0.4375880000000  0.4414180000000 1.0
C      1  0.5840460000000  0.4425510000000  0.4978110000000 1.0
C      1  0.4750900000000  0.4415570000000  0.5925050000000 1.0
C      1  0.5668650000000  0.5531240000000  0.4386340000000 1.0
C      1  0.4264790000000  0.5591970000000  0.4892430000000 1.0
C      1  0.5235450000000  0.5546360000000  0.5839100000000 1.0
C      1  0.5344030000000  0.5236320000000  0.5766980000000 1.0
C      1  0.4242820000000  0.5272540000000  0.4863600000000 1.0
C      1  0.5557350000000  0.5209180000000  0.4381430000000 1.0
C      1  0.4787930000000  0.4729680000000  0.5802530000000 1.0
C      1  0.5840120000000  0.4745260000000  0.4918600000000 1.0
C      1  0.4452290000000  0.4712340000000  0.4396300000000 1.0
C      1  0.4758130000000  0.4742000000000  0.4267920000000 1.0
C      1  0.5853810000000  0.4715070000000  0.5250180000000 1.0
C      1  0.4511220000000  0.4784900000000  0.5621240000000 1.0
C      1  0.5288390000000  0.5232900000000  0.4188110000000 1.0
C      1  0.4199490000000  0.5334710000000  0.5189890000000 1.0
C      1  0.5634900000000  0.5287450000000  0.5609170000000 1.0
C      1  0.4437840000000  0.5754790000000  0.5334240000000 1.0
C      1  0.5161470000000  0.5683700000000  0.4393770000000 1.0
C      1  0.5436290000000  0.5697590000000  0.5360410000000 1.0
C      1  0.5518670000000  0.4315160000000  0.5182220000000 1.0
C      1  0.4963570000000  0.4307640000000  0.4453200000000 1.0
C      1  0.4553200000000  0.4436690000000  0.5430060000000 1.0
C      1  0.5586010000000  0.4287470000000  0.4847250000000 1.0
C      1  0.4851270000000  0.4391560000000  0.5598580000000 1.0
C      1  0.4408230000000  0.4299280000000  0.4688670000000 1.0
C      1  0.4506930000000  0.5693790000000  0.4739850000000 1.0
C      1  0.5145050000000  0.5675180000000  0.5539160000000 1.0
C      1  0.5435970000000  0.5656680000000  0.4600590000000 1.0
C      1  0.4565140000000  0.5001300000000  0.4539730000000 1.0
C      1  0.5670830000000  0.5018600000000  0.4852990000000 1.0
C      1  0.4851560000000  0.5031820000000  0.5657440000000 1.0
C      1  0.5499300000000  0.4935480000000  0.4567230000000 1.0
C      1  0.4388490000000  0.4984740000000  0.4840450000000 1.0
C      1  0.5196790000000  0.4986610000000  0.5628220000000 1.0
C      1  0.5508450000000  0.4998760000000  0.5491300000000 1.0
C      1  0.4380710000000  0.5046150000000  0.5176830000000 1.0
C      1  0.5210860000000  0.4970170000000  0.4389690000000 1.0
C      1  0.4563830000000  0.5077680000000  0.5477570000000 1.0
C      1  0.5674280000000  0.4997020000000  0.5185290000000 1.0
C      1  0.4866570000000  0.5026260000000  0.4381300000000 1.0
C      1  0.4277800000000  0.4484000000000  0.5233040000000 1.0
C      1  0.5261730000000  0.4405340000000  0.4341730000000 1.0
C      1  0.5489940000000  0.4370650000000  0.5519430000000 1.0
C      1  0.5674540000000  0.5581660000000  0.5160700000000 1.0
C      1  0.4853960000000  0.5604700000000  0.4262420000000 1.0
C      1  0.4543080000000  0.5615480000000  0.5614420000000 1.0
C      1  0.5697460000000  0.5602460000000  0.4819880000000 1.0
C      1  0.4861600000000  0.5599370000000  0.5714790000000 1.0
C      1  0.4560470000000  0.5576080000000  0.4434060000000 1.0
C      1  0.4216640000000  0.4460630000000  0.4902500000000 1.0
C      1  0.5186760000000  0.4398390000000  0.5672940000000 1.0
C      1  0.5550630000000  0.4374570000000  0.4518940000000 1.0
C      1  0.4611580000000  0.5437150000000  0.5878980000000 1.0
C      1  0.5462820000000  0.4545570000000  0.5801950000000 1.0
C      1  0.5538370000000  0.4534920000000  0.4222150000000 1.0
C      1  0.4595800000000  0.5409560000000  0.4154630000000 1.0
C      1  0.5933590000000  0.5437740000000  0.4993900000000 1.0
C      1  0.4042280000000  0.4673900000000  0.5073880000000 1.0
C      1  0.5001400000000  0.5685530000000  0.5087930000000 1.0
C      1  0.4894520000000  0.4350920000000  0.5079130000000 1.0
END
