TITL C-2782225-7408-372 0.0692855753981355 125000 -931.676317854192 0 0 163 (C1) n - 1
REM
REM in /home/nfs/bkarasulu/CARBON/AIRSS/Generating-Clusters/REBO/Higher-Symm/SD-CG/HFTN-CG
REM
REM
REM
REM
REM
REM ./C.cell (12c818d87b63d06a65506943cc24bca4)
REM
REM compiler GCC version 9.2.1 20190827 (Red Hat 9.2.1-1)
REM options -cpp -mtune=generic -march=x86-64 -g -O0 -fpre-include=/usr/include/finclude/math-vector-fortran.h
REM seed 2147161936 1775861321 -1194906066 -1250089866 -270785157 1025394036 -163108589 -257207965 1107428504 -1211857629 -875654354 852820145 1604223295 -1459232294 703417282 1719197205 -1410789209 323453870 871763723 271229462 550150910 -186834271 -1808558769 -1324576796 -1947395857 1425316278 -658668709 324015631 -413879515 1246336322 -2080132406 2015068246 -227896981
REM
CELL 1.54180   50.00000   50.00000   50.00000   90.00000   90.00000   90.00000
LATT -1
SFAC C  
C      1  0.5140400000000  0.5956160000000  0.4355630000000 1.0
C      1  0.4895040000000  0.5951910000000  0.5655210000000 1.0
C      1  0.5055950000000  0.3648960000000  0.4664540000000 1.0
C      1  0.4874290000000  0.4106080000000  0.5608100000000 1.0
C      1  0.5144110000000  0.4321560000000  0.4985840000000 1.0
C      1  0.4747440000000  0.4409310000000  0.4961870000000 1.0
C      1  0.5199750000000  0.5669780000000  0.5007600000000 1.0
C      1  0.4802150000000  0.5672710000000  0.5022420000000 1.0
C      1  0.5188780000000  0.5376780000000  0.5949170000000 1.0
C      1  0.4867500000000  0.5376940000000  0.4080340000000 1.0
C      1  0.5178690000000  0.4622880000000  0.5966710000000 1.0
C      1  0.4835820000000  0.4654560000000  0.4009770000000 1.0
C      1  0.4515710000000  0.5471640000000  0.5955990000000 1.0
C      1  0.5458570000000  0.5540450000000  0.3948350000000 1.0
C      1  0.4547810000000  0.4559370000000  0.5973090000000 1.0
C      1  0.5438490000000  0.4604200000000  0.3982680000000 1.0
C      1  0.4953770000000  0.5662930000000  0.5480330000000 1.0
C      1  0.5045920000000  0.5562920000000  0.4585280000000 1.0
C      1  0.4973720000000  0.4473750000000  0.5436600000000 1.0
C      1  0.5026290000000  0.4520030000000  0.4497150000000 1.0
C      1  0.5047410000000  0.4858470000000  0.4464760000000 1.0
C      1  0.4981300000000  0.4871880000000  0.5463530000000 1.0
C      1  0.5058360000000  0.5180730000000  0.4473010000000 1.0
C      1  0.5001850000000  0.5203070000000  0.5392090000000 1.0
C      1  0.5305700000000  0.5612670000000  0.5642200000000 1.0
C      1  0.4718770000000  0.5642260000000  0.4381150000000 1.0
C      1  0.5288120000000  0.4308350000000  0.5604830000000 1.0
C      1  0.4721070000000  0.4356400000000  0.4319820000000 1.0
C      1  0.5498960000000  0.4753430000000  0.5435940000000 1.0
C      1  0.4537200000000  0.4704070000000  0.4638350000000 1.0
C      1  0.5505370000000  0.5074760000000  0.5481490000000 1.0
C      1  0.4562250000000  0.5035730000000  0.4621720000000 1.0
C      1  0.3979980000000  0.4503650000000  0.5092530000000 1.0
C      1  0.5937580000000  0.4490910000000  0.4952720000000 1.0
C      1  0.3916880000000  0.5311920000000  0.5090410000000 1.0
C      1  0.6006650000000  0.5472990000000  0.4966400000000 1.0
C      1  0.4760100000000  0.4160510000000  0.5157020000000 1.0
C      1  0.5174820000000  0.4091540000000  0.4817230000000 1.0
C      1  0.4783400000000  0.5914080000000  0.5184260000000 1.0
C      1  0.5223290000000  0.5891330000000  0.4824340000000 1.0
C      1  0.4388060000000  0.4424730000000  0.4288530000000 1.0
C      1  0.5599290000000  0.4430640000000  0.5647280000000 1.0
C      1  0.4403080000000  0.5536490000000  0.4350440000000 1.0
C      1  0.5625490000000  0.5529620000000  0.5666240000000 1.0
C      1  0.4359810000000  0.5142490000000  0.4381620000000 1.0
C      1  0.5747920000000  0.5150320000000  0.5675960000000 1.0
C      1  0.4349180000000  0.4813800000000  0.4368740000000 1.0
C      1  0.5742890000000  0.4808880000000  0.5661890000000 1.0
C      1  0.4859980000000  0.5121330000000  0.4729990000000 1.0
C      1  0.5314840000000  0.5226680000000  0.5250880000000 1.0
C      1  0.4822880000000  0.4783910000000  0.4786250000000 1.0
C      1  0.5206950000000  0.4910010000000  0.5215790000000 1.0
C      1  0.5337740000000  0.4458860000000  0.4581900000000 1.0
C      1  0.4644570000000  0.4477010000000  0.5420650000000 1.0
C      1  0.5370300000000  0.5581150000000  0.4587120000000 1.0
C      1  0.4678020000000  0.5566560000000  0.5408030000000 1.0
C      1  0.5752840000000  0.5688020000000  0.4607980000000 1.0
C      1  0.4190670000000  0.5596110000000  0.5482510000000 1.0
C      1  0.5822060000000  0.4548050000000  0.4576730000000 1.0
C      1  0.4180590000000  0.4384790000000  0.5572230000000 1.0
C      1  0.4708580000000  0.5277440000000  0.5496900000000 1.0
C      1  0.5344450000000  0.5299570000000  0.4437770000000 1.0
C      1  0.4730080000000  0.4752900000000  0.5582010000000 1.0
C      1  0.5353460000000  0.4746260000000  0.4468280000000 1.0
C      1  0.5018790000000  0.5145540000000  0.4027860000000 1.0
C      1  0.5015920000000  0.5153650000000  0.5972490000000 1.0
C      1  0.4933000000000  0.4895640000000  0.3934760000000 1.0
C      1  0.5027060000000  0.4855290000000  0.6017200000000 1.0
C      1  0.5303620000000  0.5726470000000  0.4161980000000 1.0
C      1  0.4696250000000  0.5702420000000  0.5783450000000 1.0
C      1  0.5308940000000  0.4365600000000  0.4114860000000 1.0
C      1  0.4712020000000  0.4344210000000  0.5791660000000 1.0
C      1  0.4746860000000  0.4884520000000  0.5855120000000 1.0
C      1  0.5366660000000  0.4841630000000  0.4187240000000 1.0
C      1  0.4759370000000  0.5205700000000  0.5790010000000 1.0
C      1  0.5294280000000  0.5142190000000  0.4153110000000 1.0
C      1  0.4479920000000  0.4222300000000  0.5574430000000 1.0
C      1  0.5421280000000  0.4223720000000  0.4370340000000 1.0
C      1  0.4461840000000  0.5782570000000  0.5548230000000 1.0
C      1  0.5512490000000  0.5820500000000  0.4405610000000 1.0
C      1  0.5623320000000  0.4434780000000  0.4711850000000 1.0
C      1  0.4324070000000  0.4470390000000  0.5304250000000 1.0
C      1  0.5549530000000  0.5559850000000  0.4849700000000 1.0
C      1  0.4401760000000  0.5569610000000  0.5216160000000 1.0
C      1  0.4192330000000  0.5374310000000  0.4565090000000 1.0
C      1  0.5849470000000  0.5396230000000  0.5457670000000 1.0
C      1  0.4181200000000  0.4563590000000  0.4522090000000 1.0
C      1  0.5843900000000  0.4555990000000  0.5446590000000 1.0
C      1  0.5084370000000  0.4608840000000  0.4880420000000 1.0
C      1  0.4891350000000  0.4642350000000  0.5153030000000 1.0
C      1  0.5137130000000  0.5381040000000  0.4857890000000 1.0
C      1  0.4882780000000  0.5380290000000  0.5054270000000 1.0
C      1  0.4675260000000  0.4904450000000  0.5135590000000 1.0
C      1  0.5336020000000  0.4774450000000  0.4865220000000 1.0
C      1  0.4673530000000  0.5183350000000  0.5082150000000 1.0
C      1  0.5308870000000  0.5104520000000  0.4843050000000 1.0
C      1  0.4761270000000  0.5662530000000  0.4717830000000 1.0
C      1  0.5242270000000  0.5656640000000  0.5309330000000 1.0
C      1  0.4764160000000  0.4376390000000  0.4659330000000 1.0
C      1  0.5226440000000  0.4347570000000  0.5273350000000 1.0
C      1  0.5040890000000  0.4429220000000  0.5767800000000 1.0
C      1  0.5004260000000  0.4435960000000  0.4170340000000 1.0
C      1  0.5026550000000  0.5617480000000  0.5811910000000 1.0
C      1  0.5015810000000  0.5593020000000  0.4252160000000 1.0
C      1  0.4505290000000  0.4625000000000  0.5067390000000 1.0
C      1  0.5496850000000  0.4740250000000  0.5130900000000 1.0
C      1  0.4417910000000  0.5311310000000  0.5069060000000 1.0
C      1  0.5503110000000  0.5313440000000  0.5004280000000 1.0
C      1  0.4163100000000  0.5082830000000  0.4724410000000 1.0
C      1  0.5856290000000  0.5110820000000  0.5294370000000 1.0
C      1  0.4161190000000  0.4815180000000  0.4721150000000 1.0
C      1  0.5855040000000  0.4846090000000  0.5281570000000 1.0
C      1  0.5475040000000  0.4674280000000  0.5826620000000 1.0
C      1  0.4547680000000  0.4664680000000  0.4134980000000 1.0
C      1  0.5466740000000  0.5290880000000  0.5814400000000 1.0
C      1  0.4569990000000  0.5314150000000  0.4175140000000 1.0
C      1  0.5243330000000  0.4812630000000  0.5625690000000 1.0
C      1  0.4744400000000  0.4777290000000  0.4378130000000 1.0
C      1  0.5220830000000  0.5143930000000  0.5629350000000 1.0
C      1  0.4755590000000  0.5104960000000  0.4347980000000 1.0
C      1  0.4527070000000  0.5980700000000  0.4767090000000 1.0
C      1  0.5476430000000  0.5975450000000  0.5255930000000 1.0
C      1  0.4490180000000  0.4093320000000  0.4843160000000 1.0
C      1  0.5444550000000  0.4034320000000  0.5160200000000 1.0
C      1  0.4495380000000  0.5165030000000  0.5986870000000 1.0
C      1  0.5480990000000  0.5264780000000  0.3930050000000 1.0
C      1  0.4476970000000  0.4846880000000  0.6027540000000 1.0
C      1  0.5508340000000  0.4927400000000  0.3895640000000 1.0
C      1  0.4969790000000  0.6044830000000  0.5368320000000 1.0
C      1  0.5037050000000  0.5983780000000  0.4623140000000 1.0
C      1  0.4957210000000  0.4058900000000  0.5336500000000 1.0
C      1  0.4979310000000  0.3886250000000  0.4775690000000 1.0
C      1  0.4706560000000  0.3933220000000  0.4833530000000 1.0
C      1  0.5198470000000  0.3951160000000  0.5231590000000 1.0
C      1  0.4774190000000  0.6061550000000  0.4697790000000 1.0
C      1  0.5241500000000  0.6087450000000  0.5307460000000 1.0
C      1  0.4462080000000  0.5122860000000  0.5415560000000 1.0
C      1  0.5594420000000  0.5175950000000  0.4572720000000 1.0
C      1  0.4453380000000  0.4823500000000  0.5456370000000 1.0
C      1  0.5591570000000  0.4874900000000  0.4581570000000 1.0
C      1  0.4173930000000  0.5596590000000  0.4821830000000 1.0
C      1  0.5838190000000  0.5602420000000  0.5185030000000 1.0
C      1  0.4196180000000  0.4343570000000  0.4778250000000 1.0
C      1  0.5841190000000  0.4333010000000  0.5187040000000 1.0
C      1  0.4449190000000  0.4274640000000  0.4575730000000 1.0
C      1  0.5559340000000  0.4297880000000  0.5335860000000 1.0
C      1  0.4429120000000  0.5686890000000  0.4643270000000 1.0
C      1  0.5578360000000  0.5677440000000  0.5374680000000 1.0
C      1  0.5652190000000  0.5836530000000  0.5018420000000 1.0
C      1  0.4345510000000  0.5824400000000  0.5008470000000 1.0
C      1  0.5639660000000  0.4203530000000  0.4938040000000 1.0
C      1  0.4275230000000  0.4235450000000  0.5066830000000 1.0
C      1  0.5508860000000  0.5936000000000  0.4727390000000 1.0
C      1  0.4507330000000  0.5947450000000  0.5272590000000 1.0
C      1  0.5439110000000  0.4087490000000  0.4681610000000 1.0
C      1  0.4500530000000  0.4116360000000  0.5268530000000 1.0
C      1  0.4149690000000  0.5177120000000  0.5016180000000 1.0
C      1  0.5803700000000  0.5227240000000  0.5015710000000 1.0
C      1  0.4191240000000  0.4703070000000  0.5007290000000 1.0
C      1  0.5799110000000  0.4763500000000  0.4981760000000 1.0
C      1  0.5800070000000  0.5011850000000  0.4792120000000 1.0
C      1  0.4251630000000  0.4944830000000  0.5214770000000 1.0
C      1  0.5023420000000  0.4993190000000  0.4970210000000 1.0
END
