TITL C-2782229-3092-203 0.00237725679422769 125000 -587.316222983911 0 0 101 (C1) n - 1
REM
REM in /home/nfs/bkarasulu/CARBON/AIRSS/Generating-Clusters/REBO/Higher-Symm/SD-CG/HFTN-CG
REM
REM
REM
REM
REM
REM ./C.cell (12c818d87b63d06a65506943cc24bca4)
REM
REM compiler GCC version 9.2.1 20190827 (Red Hat 9.2.1-1)
REM options -cpp -mtune=generic -march=x86-64 -g -O0 -fpre-include=/usr/include/finclude/math-vector-fortran.h
REM seed 1156236725 1901780651 1784132366 -454982928 784200229 1314265350 1667802646 418493898 821055525 -1876761534 661342539 1762576225 988935114 -223403519 1329449993 -1173483149 1962234093 -1975482586 1905431726 85552977 2079764803 1811336337 -497372055 951471330 -1181236003 -1057126084 -331652162 -2056375710 -1057701407 -893214063 1247476238 -1258968120 -1492947328
REM
CELL 1.54180   50.00000   50.00000   50.00000   90.00000   90.00000   90.00000
LATT -1
SFAC C  
C      1  0.4293850000000  0.5343860000000  0.5381890000000 1.0
C      1  0.4217880000000  0.4529020000000  0.5097980000000 1.0
C      1  0.4158320000000  0.5149370000000  0.4536560000000 1.0
C      1  0.5741070000000  0.4632070000000  0.5359040000000 1.0
C      1  0.5775610000000  0.5496100000000  0.5173010000000 1.0
C      1  0.5802550000000  0.4820710000000  0.4554980000000 1.0
C      1  0.4893640000000  0.5352920000000  0.4626280000000 1.0
C      1  0.4924660000000  0.5045250000000  0.5431470000000 1.0
C      1  0.4984390000000  0.4470570000000  0.4778930000000 1.0
C      1  0.5035950000000  0.4697460000000  0.4546640000000 1.0
C      1  0.5134510000000  0.4694630000000  0.5394050000000 1.0
C      1  0.5097390000000  0.5518090000000  0.4924360000000 1.0
C      1  0.4330330000000  0.4383670000000  0.4808320000000 1.0
C      1  0.4350960000000  0.5435510000000  0.4527880000000 1.0
C      1  0.4390870000000  0.5131670000000  0.5616620000000 1.0
C      1  0.5637310000000  0.5630540000000  0.4886220000000 1.0
C      1  0.5545200000000  0.4594170000000  0.4569080000000 1.0
C      1  0.5520470000000  0.4833000000000  0.5532270000000 1.0
C      1  0.4519790000000  0.4381710000000  0.5566720000000 1.0
C      1  0.4557250000000  0.4839160000000  0.4238270000000 1.0
C      1  0.4705050000000  0.5690280000000  0.5271710000000 1.0
C      1  0.5371820000000  0.5715340000000  0.5525780000000 1.0
C      1  0.5376700000000  0.5150330000000  0.4175690000000 1.0
C      1  0.5418020000000  0.4161970000000  0.5356130000000 1.0
C      1  0.5567190000000  0.4924340000000  0.4345910000000 1.0
C      1  0.5536790000000  0.5682370000000  0.5266110000000 1.0
C      1  0.5576790000000  0.4391570000000  0.5535160000000 1.0
C      1  0.4439460000000  0.5071420000000  0.4402010000000 1.0
C      1  0.4310470000000  0.4337000000000  0.5336800000000 1.0
C      1  0.4593720000000  0.5454460000000  0.5433200000000 1.0
C      1  0.4524490000000  0.4595120000000  0.4370410000000 1.0
C      1  0.4610670000000  0.5712530000000  0.5013120000000 1.0
C      1  0.4600510000000  0.4659530000000  0.5616670000000 1.0
C      1  0.5338130000000  0.5388130000000  0.4317930000000 1.0
C      1  0.5465060000000  0.4195270000000  0.5080630000000 1.0
C      1  0.5379370000000  0.5454790000000  0.5639710000000 1.0
C      1  0.5132020000000  0.4209930000000  0.4512400000000 1.0
C      1  0.5117110000000  0.5872660000000  0.4545310000000 1.0
C      1  0.5051370000000  0.4907160000000  0.5835090000000 1.0
C      1  0.4888490000000  0.5822680000000  0.4465360000000 1.0
C      1  0.4880350000000  0.4127500000000  0.4601920000000 1.0
C      1  0.4806480000000  0.5024500000000  0.5878780000000 1.0
C      1  0.4619320000000  0.5169560000000  0.4655110000000 1.0
C      1  0.4643230000000  0.5165260000000  0.5309040000000 1.0
C      1  0.4643310000000  0.4576210000000  0.4957930000000 1.0
C      1  0.5394990000000  0.5097390000000  0.4584480000000 1.0
C      1  0.5423240000000  0.4551750000000  0.5269630000000 1.0
C      1  0.5371590000000  0.5434880000000  0.5098240000000 1.0
C      1  0.4618630000000  0.5216430000000  0.5782030000000 1.0
C      1  0.4629970000000  0.4258780000000  0.4700620000000 1.0
C      1  0.4633290000000  0.5624390000000  0.4498660000000 1.0
C      1  0.5247380000000  0.4973040000000  0.5656260000000 1.0
C      1  0.5359490000000  0.5739910000000  0.4720120000000 1.0
C      1  0.5334680000000  0.4362250000000  0.4624900000000 1.0
C      1  0.5183240000000  0.5481990000000  0.4591610000000 1.0
C      1  0.5179610000000  0.5252800000000  0.5522000000000 1.0
C      1  0.5272130000000  0.4368780000000  0.4931980000000 1.0
C      1  0.4766310000000  0.4500340000000  0.4518880000000 1.0
C      1  0.4852140000000  0.4752430000000  0.5524910000000 1.0
C      1  0.4797290000000  0.5623410000000  0.4799020000000 1.0
C      1  0.4521810000000  0.4279030000000  0.5073460000000 1.0
C      1  0.4603150000000  0.5352800000000  0.4302300000000 1.0
C      1  0.4716880000000  0.5488550000000  0.5718980000000 1.0
C      1  0.5373190000000  0.5827380000000  0.5027740000000 1.0
C      1  0.5411470000000  0.4643720000000  0.4259890000000 1.0
C      1  0.5320270000000  0.4580080000000  0.5652220000000 1.0
C      1  0.4200250000000  0.4850030000000  0.4631390000000 1.0
C      1  0.4219940000000  0.5417610000000  0.5114400000000 1.0
C      1  0.4250440000000  0.4762420000000  0.5304010000000 1.0
C      1  0.5731120000000  0.5123660000000  0.4650050000000 1.0
C      1  0.5789980000000  0.4537720000000  0.5055980000000 1.0
C      1  0.5757400000000  0.5275570000000  0.5378730000000 1.0
C      1  0.4896270000000  0.5115560000000  0.5099440000000 1.0
C      1  0.4932880000000  0.4521660000000  0.5095680000000 1.0
C      1  0.4895990000000  0.5084250000000  0.4813630000000 1.0
C      1  0.5210480000000  0.4677970000000  0.5061470000000 1.0
C      1  0.5100330000000  0.5329370000000  0.5213360000000 1.0
C      1  0.5112160000000  0.5000090000000  0.4593710000000 1.0
C      1  0.4363490000000  0.5303430000000  0.4836590000000 1.0
C      1  0.4407870000000  0.5001890000000  0.5212890000000 1.0
C      1  0.4480980000000  0.4763600000000  0.4821560000000 1.0
C      1  0.5682280000000  0.4736690000000  0.4852110000000 1.0
C      1  0.5664040000000  0.5017130000000  0.5297860000000 1.0
C      1  0.5578930000000  0.5290210000000  0.4901590000000 1.0
C      1  0.4892820000000  0.5716590000000  0.5695520000000 1.0
C      1  0.4690840000000  0.4231380000000  0.5358540000000 1.0
C      1  0.4773370000000  0.5076290000000  0.4194240000000 1.0
C      1  0.5189030000000  0.4311090000000  0.5486400000000 1.0
C      1  0.5178680000000  0.5843010000000  0.5309460000000 1.0
C      1  0.5241790000000  0.4861670000000  0.4124840000000 1.0
C      1  0.5566900000000  0.5398770000000  0.4534050000000 1.0
C      1  0.5649620000000  0.5353430000000  0.5636440000000 1.0
C      1  0.5731930000000  0.4271610000000  0.5014500000000 1.0
C      1  0.4287450000000  0.4566500000000  0.4539110000000 1.0
C      1  0.4373280000000  0.4841610000000  0.5575610000000 1.0
C      1  0.4331230000000  0.5670540000000  0.4989770000000 1.0
C      1  0.4950400000000  0.4334490000000  0.5331640000000 1.0
C      1  0.4917430000000  0.5809470000000  0.5416620000000 1.0
C      1  0.5024470000000  0.4998080000000  0.4285580000000 1.0
C      1  0.4390650000000  0.5014290000000  0.4940280000000 1.0
C      1  0.5627200000000  0.4994540000000  0.5013600000000 1.0
END
