TITL C-2782238-9940-933 -0.00519923355470614 125000 -1089.6328786085 0 0 188 (C1) n - 1
REM
REM in /home/nfs/bkarasulu/CARBON/AIRSS/Generating-Clusters/REBO/Higher-Symm/SD-CG/HFTN-CG
REM
REM
REM
REM
REM
REM ./C.cell (12c818d87b63d06a65506943cc24bca4)
REM
REM compiler GCC version 9.2.1 20190827 (Red Hat 9.2.1-1)
REM options -cpp -mtune=generic -march=x86-64 -g -O0 -fpre-include=/usr/include/finclude/math-vector-fortran.h
REM seed -1734577462 -2049384067 -1117694281 360182037 -992861730 -1396854178 -54709952 99740837 1409420924 985793647 -1365015997 1200647626 1897895148 1685053578 -196132791 880003297 863886269 1361187943 482535103 1783712944 -617853865 -1249832326 1084839058 236010952 826625748 -506545729 1508683858 1567318827 1986014172 -1144839736 -1697581899 -164273171 861588869
REM
CELL 1.54180   50.00000   50.00000   50.00000   90.00000   90.00000   90.00000
LATT -1
SFAC C  
C      1  0.5432510000000  0.4085240000000  0.4968620000000 1.0
C      1  0.4756590000000  0.4089040000000  0.4654570000000 1.0
C      1  0.4863070000000  0.4093840000000  0.5388230000000 1.0
C      1  0.5346510000000  0.5886960000000  0.4938900000000 1.0
C      1  0.4729300000000  0.5940400000000  0.4650550000000 1.0
C      1  0.4830440000000  0.5921430000000  0.5403950000000 1.0
C      1  0.4619900000000  0.4107360000000  0.4918030000000 1.0
C      1  0.5253820000000  0.4096390000000  0.4710560000000 1.0
C      1  0.5168280000000  0.4117810000000  0.5383160000000 1.0
C      1  0.4619080000000  0.5885020000000  0.4939450000000 1.0
C      1  0.5225640000000  0.5941590000000  0.4653400000000 1.0
C      1  0.5131680000000  0.5932900000000  0.5398620000000 1.0
C      1  0.4397850000000  0.5539160000000  0.5809690000000 1.0
C      1  0.5949630000000  0.5483660000000  0.5225140000000 1.0
C      1  0.4657080000000  0.5513430000000  0.4083930000000 1.0
C      1  0.4300030000000  0.4474390000000  0.5715330000000 1.0
C      1  0.5984630000000  0.4446160000000  0.5135720000000 1.0
C      1  0.4697590000000  0.4471730000000  0.4036570000000 1.0
C      1  0.5639450000000  0.5512530000000  0.5767380000000 1.0
C      1  0.4022040000000  0.5521980000000  0.5258230000000 1.0
C      1  0.5267850000000  0.5520100000000  0.4048010000000 1.0
C      1  0.5617430000000  0.4465890000000  0.5761290000000 1.0
C      1  0.4022410000000  0.4495930000000  0.5177890000000 1.0
C      1  0.5320480000000  0.4382770000000  0.3995650000000 1.0
C      1  0.5933560000000  0.5207030000000  0.4632320000000 1.0
C      1  0.4192430000000  0.5163500000000  0.4382640000000 1.0
C      1  0.4848790000000  0.5132150000000  0.5980580000000 1.0
C      1  0.5962440000000  0.4871640000000  0.4680110000000 1.0
C      1  0.4253180000000  0.4829390000000  0.4357140000000 1.0
C      1  0.4784380000000  0.4802430000000  0.6015950000000 1.0
C      1  0.4039960000000  0.5201200000000  0.4686710000000 1.0
C      1  0.5764570000000  0.5227670000000  0.4337840000000 1.0
C      1  0.5170040000000  0.5159370000000  0.5973170000000 1.0
C      1  0.4096810000000  0.4866860000000  0.4655440000000 1.0
C      1  0.5785120000000  0.4906890000000  0.4415150000000 1.0
C      1  0.5110440000000  0.4830470000000  0.5988950000000 1.0
C      1  0.4855120000000  0.4511380000000  0.3811240000000 1.0
C      1  0.4023250000000  0.4536460000000  0.5674760000000 1.0
C      1  0.6043040000000  0.4438460000000  0.5431420000000 1.0
C      1  0.4806660000000  0.5442770000000  0.3847100000000 1.0
C      1  0.4105290000000  0.5485700000000  0.5749320000000 1.0
C      1  0.6036420000000  0.5415680000000  0.5487970000000 1.0
C      1  0.5132980000000  0.4479880000000  0.3799520000000 1.0
C      1  0.5901270000000  0.4459040000000  0.5664920000000 1.0
C      1  0.3904750000000  0.4576350000000  0.5424860000000 1.0
C      1  0.5087310000000  0.5450100000000  0.3834940000000 1.0
C      1  0.5907410000000  0.5447790000000  0.5734100000000 1.0
C      1  0.3938310000000  0.5468160000000  0.5526390000000 1.0
C      1  0.5399640000000  0.5780860000000  0.4409180000000 1.0
C      1  0.4343530000000  0.5718510000000  0.4970350000000 1.0
C      1  0.5270000000000  0.5802620000000  0.5673990000000 1.0
C      1  0.5384870000000  0.4232450000000  0.4443510000000 1.0
C      1  0.4325580000000  0.4246770000000  0.4926000000000 1.0
C      1  0.5281640000000  0.4291190000000  0.5646480000000 1.0
C      1  0.4551270000000  0.5779440000000  0.4408810000000 1.0
C      1  0.5628660000000  0.5713460000000  0.4942130000000 1.0
C      1  0.4693690000000  0.5774110000000  0.5678900000000 1.0
C      1  0.4573530000000  0.4230560000000  0.4404540000000 1.0
C      1  0.5733490000000  0.4234630000000  0.4910260000000 1.0
C      1  0.4658900000000  0.4185390000000  0.5618260000000 1.0
C      1  0.4908010000000  0.4378740000000  0.4555070000000 1.0
C      1  0.4780640000000  0.4401200000000  0.5307560000000 1.0
C      1  0.5393280000000  0.4402870000000  0.5029090000000 1.0
C      1  0.4819610000000  0.5626540000000  0.4657180000000 1.0
C      1  0.4736470000000  0.5611020000000  0.5323150000000 1.0
C      1  0.5267060000000  0.5570110000000  0.5027740000000 1.0
C      1  0.5153790000000  0.4418230000000  0.4709100000000 1.0
C      1  0.5201450000000  0.4436070000000  0.5287590000000 1.0
C      1  0.4657050000000  0.4405230000000  0.5079250000000 1.0
C      1  0.5131060000000  0.5629260000000  0.4657430000000 1.0
C      1  0.5273090000000  0.5631210000000  0.5317190000000 1.0
C      1  0.4706850000000  0.5569860000000  0.5034810000000 1.0
C      1  0.5161910000000  0.4746780000000  0.4422120000000 1.0
C      1  0.4455690000000  0.4754790000000  0.5163020000000 1.0
C      1  0.5435510000000  0.4840400000000  0.5430970000000 1.0
C      1  0.5159290000000  0.5147370000000  0.4373060000000 1.0
C      1  0.4376420000000  0.5227150000000  0.5143350000000 1.0
C      1  0.5471380000000  0.5295560000000  0.5430610000000 1.0
C      1  0.4856000000000  0.4766550000000  0.4363920000000 1.0
C      1  0.5637740000000  0.4755390000000  0.5193370000000 1.0
C      1  0.4533550000000  0.4793220000000  0.5466150000000 1.0
C      1  0.4842560000000  0.5159210000000  0.4438520000000 1.0
C      1  0.5573090000000  0.5211270000000  0.5136310000000 1.0
C      1  0.4557540000000  0.5264720000000  0.5411590000000 1.0
C      1  0.5123860000000  0.5677010000000  0.4250640000000 1.0
C      1  0.4267820000000  0.5670940000000  0.5266320000000 1.0
C      1  0.5543290000000  0.5677150000000  0.5513470000000 1.0
C      1  0.5187840000000  0.4252540000000  0.4212020000000 1.0
C      1  0.4252960000000  0.4316620000000  0.5227260000000 1.0
C      1  0.5576530000000  0.4319750000000  0.5477670000000 1.0
C      1  0.4841110000000  0.5677700000000  0.4261480000000 1.0
C      1  0.5721750000000  0.5659960000000  0.5230250000000 1.0
C      1  0.4402560000000  0.5691920000000  0.5520020000000 1.0
C      1  0.4868020000000  0.4293710000000  0.4241810000000 1.0
C      1  0.5715720000000  0.4305750000000  0.5244130000000 1.0
C      1  0.4402230000000  0.4296300000000  0.5501330000000 1.0
C      1  0.4249400000000  0.5629580000000  0.4449570000000 1.0
C      1  0.4866820000000  0.5651770000000  0.5945240000000 1.0
C      1  0.5820390000000  0.5587140000000  0.4688530000000 1.0
C      1  0.4292100000000  0.4400750000000  0.4416360000000 1.0
C      1  0.4773600000000  0.4346550000000  0.5833800000000 1.0
C      1  0.5856700000000  0.4352050000000  0.4614110000000 1.0
C      1  0.5695090000000  0.5612560000000  0.4415590000000 1.0
C      1  0.5157720000000  0.5657820000000  0.5939330000000 1.0
C      1  0.4139500000000  0.5607640000000  0.4721410000000 1.0
C      1  0.5697540000000  0.4340560000000  0.4364600000000 1.0
C      1  0.5061630000000  0.4386870000000  0.5881180000000 1.0
C      1  0.4158110000000  0.4398620000000  0.4671010000000 1.0
C      1  0.5677200000000  0.5139560000000  0.5628800000000 1.0
C      1  0.5184050000000  0.5129930000000  0.4051190000000 1.0
C      1  0.4169220000000  0.5173890000000  0.5386970000000 1.0
C      1  0.5739410000000  0.4813120000000  0.5574490000000 1.0
C      1  0.5257880000000  0.4816950000000  0.4114460000000 1.0
C      1  0.4175690000000  0.4845360000000  0.5295960000000 1.0
C      1  0.4339360000000  0.5175640000000  0.5657420000000 1.0
C      1  0.4856580000000  0.5149540000000  0.4113150000000 1.0
C      1  0.5816000000000  0.5120710000000  0.5332280000000 1.0
C      1  0.4249490000000  0.4857990000000  0.5614460000000 1.0
C      1  0.4926990000000  0.4824660000000  0.4047560000000 1.0
C      1  0.5938960000000  0.4803830000000  0.5310160000000 1.0
C      1  0.5523250000000  0.5105590000000  0.4046270000000 1.0
C      1  0.3985480000000  0.5148420000000  0.5118000000000 1.0
C      1  0.5560580000000  0.5150510000000  0.5915000000000 1.0
C      1  0.5566280000000  0.4781490000000  0.4070280000000 1.0
C      1  0.3989160000000  0.4868960000000  0.5040360000000 1.0
C      1  0.5564150000000  0.4839670000000  0.5865800000000 1.0
C      1  0.4524750000000  0.5139810000000  0.4115590000000 1.0
C      1  0.6036210000000  0.5118610000000  0.5086660000000 1.0
C      1  0.4455020000000  0.5169400000000  0.5943940000000 1.0
C      1  0.4591340000000  0.4855930000000  0.4065190000000 1.0
C      1  0.6111040000000  0.4807300000000  0.5042080000000 1.0
C      1  0.4407980000000  0.4865530000000  0.5899030000000 1.0
C      1  0.4815670000000  0.4879080000000  0.5281920000000 1.0
C      1  0.5348110000000  0.4801510000000  0.5043330000000 1.0
C      1  0.4882550000000  0.4834100000000  0.4693440000000 1.0
C      1  0.4875230000000  0.5210670000000  0.5295840000000 1.0
C      1  0.5287500000000  0.5126170000000  0.4983260000000 1.0
C      1  0.4811750000000  0.5164490000000  0.4768740000000 1.0
C      1  0.5138580000000  0.4911690000000  0.5285810000000 1.0
C      1  0.4722430000000  0.4832270000000  0.4967690000000 1.0
C      1  0.5207640000000  0.4812050000000  0.4753410000000 1.0
C      1  0.5187850000000  0.5243360000000  0.5269580000000 1.0
C      1  0.4676000000000  0.5165890000000  0.5043270000000 1.0
C      1  0.5132510000000  0.5143550000000  0.4712020000000 1.0
C      1  0.5150890000000  0.4596120000000  0.5556530000000 1.0
C      1  0.5441430000000  0.4528800000000  0.4602280000000 1.0
C      1  0.4495540000000  0.4529720000000  0.4837710000000 1.0
C      1  0.5141890000000  0.5490370000000  0.5578860000000 1.0
C      1  0.5350930000000  0.5459090000000  0.4531890000000 1.0
C      1  0.4487530000000  0.5444770000000  0.4827990000000 1.0
C      1  0.4850130000000  0.4591890000000  0.5527990000000 1.0
C      1  0.4629460000000  0.4525650000000  0.4585330000000 1.0
C      1  0.5605370000000  0.4544940000000  0.4855040000000 1.0
C      1  0.4845520000000  0.5479220000000  0.5587120000000 1.0
C      1  0.4596510000000  0.5458320000000  0.4528350000000 1.0
C      1  0.5476460000000  0.5438010000000  0.4821450000000 1.0
C      1  0.3962660000000  0.5416040000000  0.4939660000000 1.0
C      1  0.5385210000000  0.5424930000000  0.5978280000000 1.0
C      1  0.5578260000000  0.5426000000000  0.4151140000000 1.0
C      1  0.3988080000000  0.4608210000000  0.4856240000000 1.0
C      1  0.5337290000000  0.4588770000000  0.5910010000000 1.0
C      1  0.5593550000000  0.4488500000000  0.4095370000000 1.0
C      1  0.5998840000000  0.5389270000000  0.4902210000000 1.0
C      1  0.4657120000000  0.5415750000000  0.5995170000000 1.0
C      1  0.4358080000000  0.5409440000000  0.4212360000000 1.0
C      1  0.6013850000000  0.4566600000000  0.4822070000000 1.0
C      1  0.4556630000000  0.4571100000000  0.5918450000000 1.0
C      1  0.4402410000000  0.4593150000000  0.4157240000000 1.0
C      1  0.4747730000000  0.5196290000000  0.5673750000000 1.0
C      1  0.5646240000000  0.5143170000000  0.4809530000000 1.0
C      1  0.4507090000000  0.5127370000000  0.4514150000000 1.0
C      1  0.4751440000000  0.4870740000000  0.5694440000000 1.0
C      1  0.5716120000000  0.4824040000000  0.4889260000000 1.0
C      1  0.4561340000000  0.4798620000000  0.4458870000000 1.0
C      1  0.5257610000000  0.5217140000000  0.5662540000000 1.0
C      1  0.4347510000000  0.5132410000000  0.4818390000000 1.0
C      1  0.5474920000000  0.5140460000000  0.4506830000000 1.0
C      1  0.5217020000000  0.4890610000000  0.5677190000000 1.0
C      1  0.4339980000000  0.4797390000000  0.4865490000000 1.0
C      1  0.5484520000000  0.4802230000000  0.4459300000000 1.0
C      1  0.4689590000000  0.6062130000000  0.5157820000000 1.0
C      1  0.5264650000000  0.6056780000000  0.5159860000000 1.0
C      1  0.4733760000000  0.3927910000000  0.5153930000000 1.0
C      1  0.5323190000000  0.3952770000000  0.5202550000000 1.0
C      1  0.5013650000000  0.3938350000000  0.4668760000000 1.0
C      1  0.4977070000000  0.6093470000000  0.4625860000000 1.0
C      1  0.5076060000000  0.4518560000000  0.4996680000000 1.0
C      1  0.4983980000000  0.5498650000000  0.4922530000000 1.0
END
