TITL C-2782225-7408-360 -0.000572781006254731 125000 -498.186112858062 0 0 88 (C1) n - 1
REM
REM in /home/nfs/bkarasulu/CARBON/AIRSS/Generating-Clusters/REBO/Higher-Symm/SD-CG/HFTN-CG
REM
REM
REM
REM
REM
REM ./C.cell (12c818d87b63d06a65506943cc24bca4)
REM
REM compiler GCC version 9.2.1 20190827 (Red Hat 9.2.1-1)
REM options -cpp -mtune=generic -march=x86-64 -g -O0 -fpre-include=/usr/include/finclude/math-vector-fortran.h
REM seed 236243516 -725210545 -900033478 602368459 -1352203174 1185416332 -1772240767 -1009496603 -1454571801 -840927988 -563864824 1520255478 -975861932 932321426 -1833927540 -824883193 344952389 1386599105 -1298114337 1666125238 1427919978 1841964126 750683952 -2047631773 -496268887 420113648 -1242822226 -1904638307 -817877063 1213673425 -695639162 1966384335 -1141501721
REM
CELL 1.54180   50.00000   50.00000   50.00000   90.00000   90.00000   90.00000
LATT -1
SFAC C  
C      1  0.5730400000000  0.4637680000000  0.5021200000000 1.0
C      1  0.4893580000000  0.5376210000000  0.5223350000000 1.0
C      1  0.4933380000000  0.4012400000000  0.5283230000000 1.0
C      1  0.5121170000000  0.4372920000000  0.4522750000000 1.0
C      1  0.4841580000000  0.5323370000000  0.4573740000000 1.0
C      1  0.5687430000000  0.5484140000000  0.4800380000000 1.0
C      1  0.5354320000000  0.4527710000000  0.4525690000000 1.0
C      1  0.5439720000000  0.6082380000000  0.4371740000000 1.0
C      1  0.4227350000000  0.4647120000000  0.4952590000000 1.0
C      1  0.5126110000000  0.4882550000000  0.5222380000000 1.0
C      1  0.5370290000000  0.5055220000000  0.5628620000000 1.0
C      1  0.5108320000000  0.5167010000000  0.5349780000000 1.0
C      1  0.4832190000000  0.4529880000000  0.4501610000000 1.0
C      1  0.4541430000000  0.5263300000000  0.4900010000000 1.0
C      1  0.4903670000000  0.4587790000000  0.5650840000000 1.0
C      1  0.5359540000000  0.4794530000000  0.4401770000000 1.0
C      1  0.5167650000000  0.5545950000000  0.5459330000000 1.0
C      1  0.5326030000000  0.4340300000000  0.5429150000000 1.0
C      1  0.5110510000000  0.5267760000000  0.5657580000000 1.0
C      1  0.5129000000000  0.4849260000000  0.5656670000000 1.0
C      1  0.4266180000000  0.5434870000000  0.4816320000000 1.0
C      1  0.4884340000000  0.4692210000000  0.5266880000000 1.0
C      1  0.5351300000000  0.4729330000000  0.5101640000000 1.0
C      1  0.5174630000000  0.4105830000000  0.5374260000000 1.0
C      1  0.5271720000000  0.5657870000000  0.4972820000000 1.0
C      1  0.4835400000000  0.4980270000000  0.5617320000000 1.0
C      1  0.4294050000000  0.4196060000000  0.5496280000000 1.0
C      1  0.4556610000000  0.5600920000000  0.4606480000000 1.0
C      1  0.4962950000000  0.4421990000000  0.5085870000000 1.0
C      1  0.4806160000000  0.5269820000000  0.5754010000000 1.0
C      1  0.4669810000000  0.4229980000000  0.4894970000000 1.0
C      1  0.5204640000000  0.4527990000000  0.5586460000000 1.0
C      1  0.4533700000000  0.5028720000000  0.4434050000000 1.0
C      1  0.4508000000000  0.4529370000000  0.4896130000000 1.0
C      1  0.4286560000000  0.5294370000000  0.5318650000000 1.0
C      1  0.4425970000000  0.4804890000000  0.4314310000000 1.0
C      1  0.4789120000000  0.5304840000000  0.4305260000000 1.0
C      1  0.4636160000000  0.4580480000000  0.5570720000000 1.0
C      1  0.5593520000000  0.4954490000000  0.4506080000000 1.0
C      1  0.5181000000000  0.4557490000000  0.4884380000000 1.0
C      1  0.4817030000000  0.4927060000000  0.4527470000000 1.0
C      1  0.4576940000000  0.4576530000000  0.4341680000000 1.0
C      1  0.5350220000000  0.5857860000000  0.4460390000000 1.0
C      1  0.5412060000000  0.4226050000000  0.4973510000000 1.0
C      1  0.4833220000000  0.5721240000000  0.4593270000000 1.0
C      1  0.4897080000000  0.4978920000000  0.4989080000000 1.0
C      1  0.4391750000000  0.5717890000000  0.4848990000000 1.0
C      1  0.4446200000000  0.5550110000000  0.5327030000000 1.0
C      1  0.5211370000000  0.5376090000000  0.4914820000000 1.0
C      1  0.4556340000000  0.5738240000000  0.5123250000000 1.0
C      1  0.5029880000000  0.5179890000000  0.4171290000000 1.0
C      1  0.5443730000000  0.5347090000000  0.5466360000000 1.0
C      1  0.5301460000000  0.5220440000000  0.4559170000000 1.0
C      1  0.5319670000000  0.5213470000000  0.5111390000000 1.0
C      1  0.5506510000000  0.4450560000000  0.5199340000000 1.0
C      1  0.5509810000000  0.4495320000000  0.4804190000000 1.0
C      1  0.4693230000000  0.4115970000000  0.5170800000000 1.0
C      1  0.4830590000000  0.5508810000000  0.5510520000000 1.0
C      1  0.4529770000000  0.5390190000000  0.5617090000000 1.0
C      1  0.4524330000000  0.4310860000000  0.5395460000000 1.0
C      1  0.5747280000000  0.4804800000000  0.4724060000000 1.0
C      1  0.5680870000000  0.4936320000000  0.5177520000000 1.0
C      1  0.5658810000000  0.5012410000000  0.5487060000000 1.0
C      1  0.4445590000000  0.5278440000000  0.4571880000000 1.0
C      1  0.5139170000000  0.4172870000000  0.4981630000000 1.0
C      1  0.4506960000000  0.5011570000000  0.5063880000000 1.0
C      1  0.5752120000000  0.5445450000000  0.5054470000000 1.0
C      1  0.5487310000000  0.4926120000000  0.4896780000000 1.0
C      1  0.4237100000000  0.4878460000000  0.5060500000000 1.0
C      1  0.5676250000000  0.5299760000000  0.5278220000000 1.0
C      1  0.4684340000000  0.4806840000000  0.4818170000000 1.0
C      1  0.5047190000000  0.4735360000000  0.4674470000000 1.0
C      1  0.4368760000000  0.5097030000000  0.5542650000000 1.0
C      1  0.5098180000000  0.5653960000000  0.4472110000000 1.0
C      1  0.5176310000000  0.5376110000000  0.4361740000000 1.0
C      1  0.4879240000000  0.5303780000000  0.4895270000000 1.0
C      1  0.5093070000000  0.4918580000000  0.4324030000000 1.0
C      1  0.5865170000000  0.4931730000000  0.5653940000000 1.0
C      1  0.4881210000000  0.5832280000000  0.5161650000000 1.0
C      1  0.4519880000000  0.4855890000000  0.5591260000000 1.0
C      1  0.5246070000000  0.5002300000000  0.4722060000000 1.0
C      1  0.5601610000000  0.5287110000000  0.4566260000000 1.0
C      1  0.4778870000000  0.5807430000000  0.4867160000000 1.0
C      1  0.4651370000000  0.4509100000000  0.5177810000000 1.0
C      1  0.4859270000000  0.4245090000000  0.4683180000000 1.0
C      1  0.5413860000000  0.5594010000000  0.4647290000000 1.0
C      1  0.4747490000000  0.4987620000000  0.5293950000000 1.0
C      1  0.5139970000000  0.5737710000000  0.5210600000000 1.0
END
