TITL C-2782236-320-438 -6.54887242904387e-06 125000 -827.144624479659 0 0 141 (C1) n - 1
REM
REM in /home/nfs/bkarasulu/CARBON/AIRSS/Generating-Clusters/REBO/Higher-Symm/SD-CG/HFTN-CG
REM
REM
REM
REM
REM
REM ./C.cell (12c818d87b63d06a65506943cc24bca4)
REM
REM compiler GCC version 9.2.1 20190827 (Red Hat 9.2.1-1)
REM options -cpp -mtune=generic -march=x86-64 -g -O0 -fpre-include=/usr/include/finclude/math-vector-fortran.h
REM seed -51541764 -1851456649 -922516088 1405496592 -2097252785 1764891028 1312743767 -1276131437 -1487341837 -548066110 1668595594 -1498157623 -1867937321 1773621890 610310327 -399257475 86060496 -1683977508 -1336098327 -1105487597 690236956 19410679 56235701 -687158903 -2085249595 1098360376 -185341954 -198072245 -1103002351 586344999 -36187137 -996348721 1973686487
REM
CELL 1.54180   50.00000   50.00000   50.00000   90.00000   90.00000   90.00000
LATT -1
SFAC C  
C      1  0.4187400000000  0.5379850000000  0.4616670000000 1.0
C      1  0.4116470000000  0.4685450000000  0.5392510000000 1.0
C      1  0.4476380000000  0.5032590000000  0.4793740000000 1.0
C      1  0.4463140000000  0.4931730000000  0.5179620000000 1.0
C      1  0.5109490000000  0.4535680000000  0.5034960000000 1.0
C      1  0.5124820000000  0.5553510000000  0.4888840000000 1.0
C      1  0.4127050000000  0.5045000000000  0.4601560000000 1.0
C      1  0.4042310000000  0.4984760000000  0.5340920000000 1.0
C      1  0.4357740000000  0.5207620000000  0.5052760000000 1.0
C      1  0.4431130000000  0.4733850000000  0.4936630000000 1.0
C      1  0.4489690000000  0.5162390000000  0.4478960000000 1.0
C      1  0.4452540000000  0.4894770000000  0.5512080000000 1.0
C      1  0.6047770000000  0.4768290000000  0.5529480000000 1.0
C      1  0.5806520000000  0.5345400000000  0.4484690000000 1.0
C      1  0.4819890000000  0.5269670000000  0.5209530000000 1.0
C      1  0.4901350000000  0.4764920000000  0.4784210000000 1.0
C      1  0.4935620000000  0.5117930000000  0.4415210000000 1.0
C      1  0.4959860000000  0.4910090000000  0.5558210000000 1.0
C      1  0.5682210000000  0.4861970000000  0.5035810000000 1.0
C      1  0.5602070000000  0.5177210000000  0.4934900000000 1.0
C      1  0.5544760000000  0.4296240000000  0.5301490000000 1.0
C      1  0.5520870000000  0.5966760000000  0.4730920000000 1.0
C      1  0.5206370000000  0.5985630000000  0.4600250000000 1.0
C      1  0.5019900000000  0.3899190000000  0.5457000000000 1.0
C      1  0.5157810000000  0.5103300000000  0.3985310000000 1.0
C      1  0.5165850000000  0.4944780000000  0.5997100000000 1.0
C      1  0.4715070000000  0.5822590000000  0.4284240000000 1.0
C      1  0.4659820000000  0.4220700000000  0.5633890000000 1.0
C      1  0.5625550000000  0.5034520000000  0.4131440000000 1.0
C      1  0.5537750000000  0.4992260000000  0.5712730000000 1.0
C      1  0.5540560000000  0.4718920000000  0.5310950000000 1.0
C      1  0.5539860000000  0.5194280000000  0.4604630000000 1.0
C      1  0.5288020000000  0.5199660000000  0.4807410000000 1.0
C      1  0.5362390000000  0.4911940000000  0.5112240000000 1.0
C      1  0.5426920000000  0.5305350000000  0.5650200000000 1.0
C      1  0.5483250000000  0.4638810000000  0.4302960000000 1.0
C      1  0.5396750000000  0.4199330000000  0.5060450000000 1.0
C      1  0.5439630000000  0.5944370000000  0.5041240000000 1.0
C      1  0.4133460000000  0.5487180000000  0.4875710000000 1.0
C      1  0.4055930000000  0.4520600000000  0.5153160000000 1.0
C      1  0.3893560000000  0.5019390000000  0.5061910000000 1.0
C      1  0.3986250000000  0.4876050000000  0.4823960000000 1.0
C      1  0.5193060000000  0.4807380000000  0.4883480000000 1.0
C      1  0.5052250000000  0.5278630000000  0.5041220000000 1.0
C      1  0.4373350000000  0.5542860000000  0.4455300000000 1.0
C      1  0.4283080000000  0.4526110000000  0.5581170000000 1.0
C      1  0.4643810000000  0.5444180000000  0.5432720000000 1.0
C      1  0.4737680000000  0.4530800000000  0.4606310000000 1.0
C      1  0.5793260000000  0.4418830000000  0.5233490000000 1.0
C      1  0.5695280000000  0.5683550000000  0.4822590000000 1.0
C      1  0.4779190000000  0.5558620000000  0.5709390000000 1.0
C      1  0.4842240000000  0.4473140000000  0.4311570000000 1.0
C      1  0.5030390000000  0.5332710000000  0.4647390000000 1.0
C      1  0.5017770000000  0.4677450000000  0.5331840000000 1.0
C      1  0.5382270000000  0.4804850000000  0.4646690000000 1.0
C      1  0.5288610000000  0.5172360000000  0.5205780000000 1.0
C      1  0.4446330000000  0.5401090000000  0.4197140000000 1.0
C      1  0.4420280000000  0.4632130000000  0.5811150000000 1.0
C      1  0.4619800000000  0.5550390000000  0.4844170000000 1.0
C      1  0.4738850000000  0.4434520000000  0.5186690000000 1.0
C      1  0.4511230000000  0.4668900000000  0.4419560000000 1.0
C      1  0.4426190000000  0.5215930000000  0.5560010000000 1.0
C      1  0.4690160000000  0.5860410000000  0.4794680000000 1.0
C      1  0.4601670000000  0.4144420000000  0.5246850000000 1.0
C      1  0.5371070000000  0.4486750000000  0.4588190000000 1.0
C      1  0.5287090000000  0.5382090000000  0.5389410000000 1.0
C      1  0.4554620000000  0.5430630000000  0.5107500000000 1.0
C      1  0.4678910000000  0.4555600000000  0.4922580000000 1.0
C      1  0.4789060000000  0.5020190000000  0.4697070000000 1.0
C      1  0.4771940000000  0.4989500000000  0.5294610000000 1.0
C      1  0.5478740000000  0.5201390000000  0.4296600000000 1.0
C      1  0.5474920000000  0.4740200000000  0.5611480000000 1.0
C      1  0.4229410000000  0.5669630000000  0.5088900000000 1.0
C      1  0.4050100000000  0.4230140000000  0.5162030000000 1.0
C      1  0.4611220000000  0.5293500000000  0.5799170000000 1.0
C      1  0.4683230000000  0.4728690000000  0.4151120000000 1.0
C      1  0.5132950000000  0.4320970000000  0.5617180000000 1.0
C      1  0.5201860000000  0.5663480000000  0.4213370000000 1.0
C      1  0.4044040000000  0.5266380000000  0.5053820000000 1.0
C      1  0.4143420000000  0.4648650000000  0.4910920000000 1.0
C      1  0.5295300000000  0.4502650000000  0.5300310000000 1.0
C      1  0.5367390000000  0.5663330000000  0.4768390000000 1.0
C      1  0.4982560000000  0.4782930000000  0.5856610000000 1.0
C      1  0.4941240000000  0.5219100000000  0.4114130000000 1.0
C      1  0.5215570000000  0.5260500000000  0.5880990000000 1.0
C      1  0.5284840000000  0.4828260000000  0.4100930000000 1.0
C      1  0.6110500000000  0.5174570000000  0.5234620000000 1.0
C      1  0.6084590000000  0.4966540000000  0.4753020000000 1.0
C      1  0.5790740000000  0.5621160000000  0.4531780000000 1.0
C      1  0.5968950000000  0.4537180000000  0.5414010000000 1.0
C      1  0.4291010000000  0.4817820000000  0.4481180000000 1.0
C      1  0.4154820000000  0.5253030000000  0.5435980000000 1.0
C      1  0.4536980000000  0.4943980000000  0.4001830000000 1.0
C      1  0.4702950000000  0.5034900000000  0.5991160000000 1.0
C      1  0.5399510000000  0.3931950000000  0.5777850000000 1.0
C      1  0.5640240000000  0.5800580000000  0.4364430000000 1.0
C      1  0.5704400000000  0.5467830000000  0.5073510000000 1.0
C      1  0.5762930000000  0.4542560000000  0.4943420000000 1.0
C      1  0.5302570000000  0.4533560000000  0.5698540000000 1.0
C      1  0.5308950000000  0.5403350000000  0.4202310000000 1.0
C      1  0.4924450000000  0.5166120000000  0.5769040000000 1.0
C      1  0.4973070000000  0.4843000000000  0.4241530000000 1.0
C      1  0.5592690000000  0.5763310000000  0.5200000000000 1.0
C      1  0.5556110000000  0.4324090000000  0.4813270000000 1.0
C      1  0.5749610000000  0.5218510000000  0.5586650000000 1.0
C      1  0.5678800000000  0.4823410000000  0.4493980000000 1.0
C      1  0.5050490000000  0.5746370000000  0.5711420000000 1.0
C      1  0.5004030000000  0.4192840000000  0.4313500000000 1.0
C      1  0.5037580000000  0.5514940000000  0.5927080000000 1.0
C      1  0.5157280000000  0.4557870000000  0.4260520000000 1.0
C      1  0.4398300000000  0.4274630000000  0.5499820000000 1.0
C      1  0.4556870000000  0.5756860000000  0.4508050000000 1.0
C      1  0.4300740000000  0.4100950000000  0.5154050000000 1.0
C      1  0.4435860000000  0.5856890000000  0.5020480000000 1.0
C      1  0.5115230000000  0.5627410000000  0.5225180000000 1.0
C      1  0.5140270000000  0.4328570000000  0.4783550000000 1.0
C      1  0.4673330000000  0.5233960000000  0.4013660000000 1.0
C      1  0.4705260000000  0.4695090000000  0.5952250000000 1.0
C      1  0.5458260000000  0.4098830000000  0.4582910000000 1.0
C      1  0.5508340000000  0.5770980000000  0.5472300000000 1.0
C      1  0.4706970000000  0.5349380000000  0.4646600000000 1.0
C      1  0.4681440000000  0.4676740000000  0.5396750000000 1.0
C      1  0.5180880000000  0.4144120000000  0.4513560000000 1.0
C      1  0.5225100000000  0.5758530000000  0.5501930000000 1.0
C      1  0.5099210000000  0.4137490000000  0.5053610000000 1.0
C      1  0.5149470000000  0.5911430000000  0.5060690000000 1.0
C      1  0.5892350000000  0.4729060000000  0.4724000000000 1.0
C      1  0.5866830000000  0.5346710000000  0.5303490000000 1.0
C      1  0.4351390000000  0.5088060000000  0.4193740000000 1.0
C      1  0.4420200000000  0.4944080000000  0.5845700000000 1.0
C      1  0.3814980000000  0.4094950000000  0.5183110000000 1.0
C      1  0.4142270000000  0.5530500000000  0.5336430000000 1.0
C      1  0.5197960000000  0.4040810000000  0.5634130000000 1.0
C      1  0.5356680000000  0.5849740000000  0.4368020000000 1.0
C      1  0.6022900000000  0.5044720000000  0.5502310000000 1.0
C      1  0.5906530000000  0.5065380000000  0.4517270000000 1.0
C      1  0.5002890000000  0.5946370000000  0.4808420000000 1.0
C      1  0.4910030000000  0.4035390000000  0.5229240000000 1.0
C      1  0.4875150000000  0.4339950000000  0.5486490000000 1.0
C      1  0.4939500000000  0.5742650000000  0.4158210000000 1.0
C      1  0.6188350000000  0.5082400000000  0.4983760000000 1.0
END
