TITL C-2782228-2999-206 0.00373177923390448 125000 -721.673689701674 0 0 128 (C1) n - 1
REM
REM in /home/nfs/bkarasulu/CARBON/AIRSS/Generating-Clusters/REBO/Higher-Symm/SD-CG/HFTN-CG
REM
REM
REM
REM
REM
REM ./C.cell (12c818d87b63d06a65506943cc24bca4)
REM
REM compiler GCC version 9.2.1 20190827 (Red Hat 9.2.1-1)
REM options -cpp -mtune=generic -march=x86-64 -g -O0 -fpre-include=/usr/include/finclude/math-vector-fortran.h
REM seed -704174919 -670647251 -2070110829 -641265287 -1204432640 315173724 -986555772 -2137703993 -1104456495 1497807241 960342354 1195047154 -666466455 2065868740 1697767659 1903384472 -1300985367 369187396 666186392 550097093 -1076101629 922942238 1676608186 533989243 418636203 -1786357502 1259640986 420907880 1170143247 1039507735 414081182 1668161783 -729367765
REM
CELL 1.54180   50.00000   50.00000   50.00000   90.00000   90.00000   90.00000
LATT -1
SFAC C  
C      1  0.5718160000000  0.5508710000000  0.5210400000000 1.0
C      1  0.4840150000000  0.5836160000000  0.5376010000000 1.0
C      1  0.4207710000000  0.5099960000000  0.5195470000000 1.0
C      1  0.4695190000000  0.4219880000000  0.5262680000000 1.0
C      1  0.5650560000000  0.4431570000000  0.5307270000000 1.0
C      1  0.4662330000000  0.4099770000000  0.4966610000000 1.0
C      1  0.5779370000000  0.4326280000000  0.5028300000000 1.0
C      1  0.5882310000000  0.5460110000000  0.4931760000000 1.0
C      1  0.4774540000000  0.5909180000000  0.5069040000000 1.0
C      1  0.4036830000000  0.5143720000000  0.4901620000000 1.0
C      1  0.4777580000000  0.4840530000000  0.5861750000000 1.0
C      1  0.5055300000000  0.4651090000000  0.5891270000000 1.0
C      1  0.5282320000000  0.4905210000000  0.5898910000000 1.0
C      1  0.5133920000000  0.5206610000000  0.5874230000000 1.0
C      1  0.4820810000000  0.5121230000000  0.5855840000000 1.0
C      1  0.5515360000000  0.4685010000000  0.4416560000000 1.0
C      1  0.5337070000000  0.5584890000000  0.4442680000000 1.0
C      1  0.4494530000000  0.5677480000000  0.4490300000000 1.0
C      1  0.4412550000000  0.4783710000000  0.4467600000000 1.0
C      1  0.5012970000000  0.4414460000000  0.4507850000000 1.0
C      1  0.5463500000000  0.5362870000000  0.5388790000000 1.0
C      1  0.4772770000000  0.5514000000000  0.5448740000000 1.0
C      1  0.4397020000000  0.4923440000000  0.5419280000000 1.0
C      1  0.4910370000000  0.4444880000000  0.5361780000000 1.0
C      1  0.5474530000000  0.4695700000000  0.5413690000000 1.0
C      1  0.5841610000000  0.5465890000000  0.4650940000000 1.0
C      1  0.4828690000000  0.5858740000000  0.4810500000000 1.0
C      1  0.4154960000000  0.5183670000000  0.4658550000000 1.0
C      1  0.4624930000000  0.4243540000000  0.4740070000000 1.0
C      1  0.5672650000000  0.4333600000000  0.4778340000000 1.0
C      1  0.5754900000000  0.4050570000000  0.5622080000000 1.0
C      1  0.6024390000000  0.5276650000000  0.5663710000000 1.0
C      1  0.5190100000000  0.6077920000000  0.5712560000000 1.0
C      1  0.4089100000000  0.5496310000000  0.5684960000000 1.0
C      1  0.4478140000000  0.4354810000000  0.5709170000000 1.0
C      1  0.5104360000000  0.4430070000000  0.5634140000000 1.0
C      1  0.5541970000000  0.4896900000000  0.5680220000000 1.0
C      1  0.5265790000000  0.5437130000000  0.5658830000000 1.0
C      1  0.4627110000000  0.5324480000000  0.5690990000000 1.0
C      1  0.4538670000000  0.4729100000000  0.5662980000000 1.0
C      1  0.4237360000000  0.4394100000000  0.5138040000000 1.0
C      1  0.5391010000000  0.4127710000000  0.5206970000000 1.0
C      1  0.5866170000000  0.5164920000000  0.5077180000000 1.0
C      1  0.5261210000000  0.5916590000000  0.5173570000000 1.0
C      1  0.4142060000000  0.5479100000000  0.5090170000000 1.0
C      1  0.5208560000000  0.4723530000000  0.4667130000000 1.0
C      1  0.5495460000000  0.5116310000000  0.4620220000000 1.0
C      1  0.4877510000000  0.5328340000000  0.4581630000000 1.0
C      1  0.4621980000000  0.5234880000000  0.4443390000000 1.0
C      1  0.4891510000000  0.4790860000000  0.4632800000000 1.0
C      1  0.5116210000000  0.5927360000000  0.5434180000000 1.0
C      1  0.4125580000000  0.5362320000000  0.5395590000000 1.0
C      1  0.4425980000000  0.4297500000000  0.5375790000000 1.0
C      1  0.5560670000000  0.4186080000000  0.5480790000000 1.0
C      1  0.5863320000000  0.5259050000000  0.5383740000000 1.0
C      1  0.4110520000000  0.4789570000000  0.5073810000000 1.0
C      1  0.4994290000000  0.4096090000000  0.5188890000000 1.0
C      1  0.5752900000000  0.4709970000000  0.5128850000000 1.0
C      1  0.5471370000000  0.5656060000000  0.5117090000000 1.0
C      1  0.4434530000000  0.5636870000000  0.5080400000000 1.0
C      1  0.5578250000000  0.4092430000000  0.4662590000000 1.0
C      1  0.5968760000000  0.5229790000000  0.4530410000000 1.0
C      1  0.5028880000000  0.5958630000000  0.4639080000000 1.0
C      1  0.4093430000000  0.5420820000000  0.4515720000000 1.0
C      1  0.4404900000000  0.4255970000000  0.4579980000000 1.0
C      1  0.5264180000000  0.4179700000000  0.5594540000000 1.0
C      1  0.5830520000000  0.5020610000000  0.5611450000000 1.0
C      1  0.5289040000000  0.5757240000000  0.5668430000000 1.0
C      1  0.4390660000000  0.5501930000000  0.5564110000000 1.0
C      1  0.4277680000000  0.4562000000000  0.5534920000000 1.0
C      1  0.5427520000000  0.5884860000000  0.4873830000000 1.0
C      1  0.4195610000000  0.5728100000000  0.4864890000000 1.0
C      1  0.4086710000000  0.4527440000000  0.4859810000000 1.0
C      1  0.5223410000000  0.3981120000000  0.4965430000000 1.0
C      1  0.5914070000000  0.4882810000000  0.4891230000000 1.0
C      1  0.5052000000000  0.4750360000000  0.5574310000000 1.0
C      1  0.5243110000000  0.4985620000000  0.5561470000000 1.0
C      1  0.5040360000000  0.5231460000000  0.5540320000000 1.0
C      1  0.4752890000000  0.5118880000000  0.5462540000000 1.0
C      1  0.4779150000000  0.4824530000000  0.5463710000000 1.0
C      1  0.5097320000000  0.5259710000000  0.4097680000000 1.0
C      1  0.4817000000000  0.5193190000000  0.4022890000000 1.0
C      1  0.4813310000000  0.4902350000000  0.4085960000000 1.0
C      1  0.5084220000000  0.4789470000000  0.4079830000000 1.0
C      1  0.5267550000000  0.5025050000000  0.4085790000000 1.0
C      1  0.5631230000000  0.4554130000000  0.4219550000000 1.0
C      1  0.5420140000000  0.5687770000000  0.4187950000000 1.0
C      1  0.4538650000000  0.5612380000000  0.4213850000000 1.0
C      1  0.4158200000000  0.4678430000000  0.4296290000000 1.0
C      1  0.5123970000000  0.4167760000000  0.4529870000000 1.0
C      1  0.4644360000000  0.5116700000000  0.4870690000000 1.0
C      1  0.4688360000000  0.4678250000000  0.4955970000000 1.0
C      1  0.5283540000000  0.4618400000000  0.4973350000000 1.0
C      1  0.5292800000000  0.5091570000000  0.4886800000000 1.0
C      1  0.4909590000000  0.5478770000000  0.4947100000000 1.0
C      1  0.5113570000000  0.5360200000000  0.4390640000000 1.0
C      1  0.4615910000000  0.5338860000000  0.4172900000000 1.0
C      1  0.4708890000000  0.4854600000000  0.4376490000000 1.0
C      1  0.5125060000000  0.4650770000000  0.4344720000000 1.0
C      1  0.5377040000000  0.4957220000000  0.4389660000000 1.0
C      1  0.5147630000000  0.5641170000000  0.5007530000000 1.0
C      1  0.4435940000000  0.5298930000000  0.5033090000000 1.0
C      1  0.4390500000000  0.4638000000000  0.4961240000000 1.0
C      1  0.5189680000000  0.4355340000000  0.5082740000000 1.0
C      1  0.5599030000000  0.4974830000000  0.4978180000000 1.0
C      1  0.5810170000000  0.5013960000000  0.4619820000000 1.0
C      1  0.5280660000000  0.5831350000000  0.4634010000000 1.0
C      1  0.4228910000000  0.5660610000000  0.4591820000000 1.0
C      1  0.4236860000000  0.4514090000000  0.4583010000000 1.0
C      1  0.5302370000000  0.4025390000000  0.4697070000000 1.0
C      1  0.5809660000000  0.4744150000000  0.5454930000000 1.0
C      1  0.5571910000000  0.5651090000000  0.5533900000000 1.0
C      1  0.4526770000000  0.5709970000000  0.5350250000000 1.0
C      1  0.4094620000000  0.4769330000000  0.5389990000000 1.0
C      1  0.5107400000000  0.3987700000000  0.5462200000000 1.0
C      1  0.4432240000000  0.5060610000000  0.4610950000000 1.0
C      1  0.4795760000000  0.4491350000000  0.4725400000000 1.0
C      1  0.5505360000000  0.4573790000000  0.4719070000000 1.0
C      1  0.5560460000000  0.5422350000000  0.4574870000000 1.0
C      1  0.4716360000000  0.5598280000000  0.4690320000000 1.0
C      1  0.4571160000000  0.4941250000000  0.5143440000000 1.0
C      1  0.4892270000000  0.4709970000000  0.5187200000000 1.0
C      1  0.5307110000000  0.4817240000000  0.5198800000000 1.0
C      1  0.5342700000000  0.5158030000000  0.5217680000000 1.0
C      1  0.4849760000000  0.5299020000000  0.5196740000000 1.0
C      1  0.4980670000000  0.5162750000000  0.4837140000000 1.0
C      1  0.5039630000000  0.5004210000000  0.4413060000000 1.0
C      1  0.5036140000000  0.5017520000000  0.5202760000000 1.0
END
