TITL C-2782230-7391-559 -0.000761262813762337 125000 -1129.03599114031 0 0 198 (C1) n - 1
REM
REM in /home/nfs/bkarasulu/CARBON/AIRSS/Generating-Clusters/REBO/Higher-Symm/SD-CG/HFTN-CG
REM
REM
REM
REM
REM
REM ./C.cell (12c818d87b63d06a65506943cc24bca4)
REM
REM compiler GCC version 9.2.1 20190827 (Red Hat 9.2.1-1)
REM options -cpp -mtune=generic -march=x86-64 -g -O0 -fpre-include=/usr/include/finclude/math-vector-fortran.h
REM seed 1597850461 -700648253 -400127871 -1602088796 10532666 106549537 -1558773351 -1886319527 -293645924 -1635991405 834946503 -961131052 -444290675 -1504009525 1018505921 -2146557762 -1218676258 -1381279129 697521261 -1365142611 752216007 -1079714264 -888687240 385336483 -202532220 -933846993 -649701965 -1955002124 -2069451355 -951902765 383816810 830958574 1543361018
REM
CELL 1.54180   50.00000   50.00000   50.00000   90.00000   90.00000   90.00000
LATT -1
SFAC C  
C      1  0.4181050000000  0.5546930000000  0.4558390000000 1.0
C      1  0.5908810000000  0.5375880000000  0.4532130000000 1.0
C      1  0.4994970000000  0.4153960000000  0.4542580000000 1.0
C      1  0.4543270000000  0.4585620000000  0.4838270000000 1.0
C      1  0.4811340000000  0.5708070000000  0.4883520000000 1.0
C      1  0.5694230000000  0.4817750000000  0.4733370000000 1.0
C      1  0.4052260000000  0.4416870000000  0.5042170000000 1.0
C      1  0.4919150000000  0.6094610000000  0.5015540000000 1.0
C      1  0.5923990000000  0.4322680000000  0.4965670000000 1.0
C      1  0.5205980000000  0.4385560000000  0.5896390000000 1.0
C      1  0.4241190000000  0.5074970000000  0.5902680000000 1.0
C      1  0.5454370000000  0.5547640000000  0.5857890000000 1.0
C      1  0.5855520000000  0.4801450000000  0.4444170000000 1.0
C      1  0.4565360000000  0.4531430000000  0.4523070000000 1.0
C      1  0.4799640000000  0.5846810000000  0.4218970000000 1.0
C      1  0.5420290000000  0.5020930000000  0.4678740000000 1.0
C      1  0.4826510000000  0.4738720000000  0.4739540000000 1.0
C      1  0.4813320000000  0.5514020000000  0.4648080000000 1.0
C      1  0.4587310000000  0.5855020000000  0.5486240000000 1.0
C      1  0.5709510000000  0.4943630000000  0.5471050000000 1.0
C      1  0.4628810000000  0.4258890000000  0.5396850000000 1.0
C      1  0.5439000000000  0.4819330000000  0.6007230000000 1.0
C      1  0.4467310000000  0.4798280000000  0.6077050000000 1.0
C      1  0.5125380000000  0.5391740000000  0.6100180000000 1.0
C      1  0.4890640000000  0.4148300000000  0.5831620000000 1.0
C      1  0.4393400000000  0.5413850000000  0.5752890000000 1.0
C      1  0.5764740000000  0.5437040000000  0.5649360000000 1.0
C      1  0.5064430000000  0.5969260000000  0.5517980000000 1.0
C      1  0.5729890000000  0.4468510000000  0.5427020000000 1.0
C      1  0.4281870000000  0.4591950000000  0.5496010000000 1.0
C      1  0.5216860000000  0.4656180000000  0.4982950000000 1.0
C      1  0.4626640000000  0.5079350000000  0.5060250000000 1.0
C      1  0.5205140000000  0.5287130000000  0.5069630000000 1.0
C      1  0.5853740000000  0.4216480000000  0.4710010000000 1.0
C      1  0.3866890000000  0.4610250000000  0.4837730000000 1.0
C      1  0.5000480000000  0.6072080000000  0.4713850000000 1.0
C      1  0.5595130000000  0.4697650000000  0.4159430000000 1.0
C      1  0.4376160000000  0.4855680000000  0.4081960000000 1.0
C      1  0.5130860000000  0.5657540000000  0.4100160000000 1.0
C      1  0.5168600000000  0.5832160000000  0.4658050000000 1.0
C      1  0.5640640000000  0.4337310000000  0.4582010000000 1.0
C      1  0.4164110000000  0.4681320000000  0.4765630000000 1.0
C      1  0.4881360000000  0.4404060000000  0.4732500000000 1.0
C      1  0.4521730000000  0.5503740000000  0.4585640000000 1.0
C      1  0.5672890000000  0.5213720000000  0.4705980000000 1.0
C      1  0.6076670000000  0.4563530000000  0.4947890000000 1.0
C      1  0.4251390000000  0.4223160000000  0.5056320000000 1.0
C      1  0.4608090000000  0.6093550000000  0.5076700000000 1.0
C      1  0.5185500000000  0.5113240000000  0.3853230000000 1.0
C      1  0.4980000000000  0.4840150000000  0.3865170000000 1.0
C      1  0.4859240000000  0.5132430000000  0.3894180000000 1.0
C      1  0.4186600000000  0.5686990000000  0.4932040000000 1.0
C      1  0.5992600000000  0.5301570000000  0.4925390000000 1.0
C      1  0.4724930000000  0.3827980000000  0.4838610000000 1.0
C      1  0.5426530000000  0.3884620000000  0.4947160000000 1.0
C      1  0.3785690000000  0.5073160000000  0.4967520000000 1.0
C      1  0.5685850000000  0.5914090000000  0.4907840000000 1.0
C      1  0.4824380000000  0.5607090000000  0.5149130000000 1.0
C      1  0.5516140000000  0.4817150000000  0.5008950000000 1.0
C      1  0.4650100000000  0.4741540000000  0.5098150000000 1.0
C      1  0.3924530000000  0.5342780000000  0.5124870000000 1.0
C      1  0.5786090000000  0.5663390000000  0.5115810000000 1.0
C      1  0.5145310000000  0.3908210000000  0.5138210000000 1.0
C      1  0.4647020000000  0.4837040000000  0.4218980000000 1.0
C      1  0.5072320000000  0.5325840000000  0.4172010000000 1.0
C      1  0.5285150000000  0.4831440000000  0.4118250000000 1.0
C      1  0.4855880000000  0.4683510000000  0.4427260000000 1.0
C      1  0.4964480000000  0.5638070000000  0.4391000000000 1.0
C      1  0.5554590000000  0.4955870000000  0.4380610000000 1.0
C      1  0.5290420000000  0.4448010000000  0.4228480000000 1.0
C      1  0.4409690000000  0.5228110000000  0.4483130000000 1.0
C      1  0.5464550000000  0.5461130000000  0.4199280000000 1.0
C      1  0.4431510000000  0.5992470000000  0.5290840000000 1.0
C      1  0.6013010000000  0.4886200000000  0.5219170000000 1.0
C      1  0.4459420000000  0.4076470000000  0.5222220000000 1.0
C      1  0.4189190000000  0.5865640000000  0.5213170000000 1.0
C      1  0.6066700000000  0.5152130000000  0.5207240000000 1.0
C      1  0.4607390000000  0.3830360000000  0.5118830000000 1.0
C      1  0.4841440000000  0.5795500000000  0.5363580000000 1.0
C      1  0.5719970000000  0.4731070000000  0.5236440000000 1.0
C      1  0.4545340000000  0.4579190000000  0.5340570000000 1.0
C      1  0.5690670000000  0.4311410000000  0.5163930000000 1.0
C      1  0.4135330000000  0.4731470000000  0.5107210000000 1.0
C      1  0.5168380000000  0.5862280000000  0.5005820000000 1.0
C      1  0.5317300000000  0.5299100000000  0.5668360000000 1.0
C      1  0.5229700000000  0.4700340000000  0.5759050000000 1.0
C      1  0.4532930000000  0.4976750000000  0.5788850000000 1.0
C      1  0.4052980000000  0.5590970000000  0.5296150000000 1.0
C      1  0.5919610000000  0.5422800000000  0.5299180000000 1.0
C      1  0.4850940000000  0.4022230000000  0.5163440000000 1.0
C      1  0.5629160000000  0.5744830000000  0.4291410000000 1.0
C      1  0.5363080000000  0.4138600000000  0.4360850000000 1.0
C      1  0.4081000000000  0.5141780000000  0.4452210000000 1.0
C      1  0.5288030000000  0.5424300000000  0.3917950000000 1.0
C      1  0.5379420000000  0.4564320000000  0.3929230000000 1.0
C      1  0.4327670000000  0.5028830000000  0.3873370000000 1.0
C      1  0.4759430000000  0.4655210000000  0.6146640000000 1.0
C      1  0.4789930000000  0.5346980000000  0.6151680000000 1.0
C      1  0.5371030000000  0.5156530000000  0.6052750000000 1.0
C      1  0.4804180000000  0.4281810000000  0.5030420000000 1.0
C      1  0.4345140000000  0.5501620000000  0.5164210000000 1.0
C      1  0.5702060000000  0.5272980000000  0.5100390000000 1.0
C      1  0.5799490000000  0.4569690000000  0.5734050000000 1.0
C      1  0.4307600000000  0.4417530000000  0.5747040000000 1.0
C      1  0.4893920000000  0.5799450000000  0.5758970000000 1.0
C      1  0.3885810000000  0.4949050000000  0.4664570000000 1.0
C      1  0.5649430000000  0.5835860000000  0.4578090000000 1.0
C      1  0.5393260000000  0.4003430000000  0.4627500000000 1.0
C      1  0.4875090000000  0.4838710000000  0.5636870000000 1.0
C      1  0.4750450000000  0.5040420000000  0.5419720000000 1.0
C      1  0.5079480000000  0.4972790000000  0.5415590000000 1.0
C      1  0.4745100000000  0.4579830000000  0.5602900000000 1.0
C      1  0.4868000000000  0.5493550000000  0.5637820000000 1.0
C      1  0.5348370000000  0.4992570000000  0.5415860000000 1.0
C      1  0.5199920000000  0.4161690000000  0.5354180000000 1.0
C      1  0.4162890000000  0.5208030000000  0.5329490000000 1.0
C      1  0.5533500000000  0.5613280000000  0.5321980000000 1.0
C      1  0.4503770000000  0.4286270000000  0.4885180000000 1.0
C      1  0.4614060000000  0.5909630000000  0.4839600000000 1.0
C      1  0.6013460000000  0.4786200000000  0.4809250000000 1.0
C      1  0.5903270000000  0.4984820000000  0.4187630000000 1.0
C      1  0.4580280000000  0.4335020000000  0.4253440000000 1.0
C      1  0.4557450000000  0.5738990000000  0.4125890000000 1.0
C      1  0.4615910000000  0.4991660000000  0.4513620000000 1.0
C      1  0.5332450000000  0.5216500000000  0.4363660000000 1.0
C      1  0.5148690000000  0.4698040000000  0.4387910000000 1.0
C      1  0.5054010000000  0.4229520000000  0.4246670000000 1.0
C      1  0.4219010000000  0.5387270000000  0.4259960000000 1.0
C      1  0.5793090000000  0.5453890000000  0.4261100000000 1.0
C      1  0.4300910000000  0.4467050000000  0.4331730000000 1.0
C      1  0.4969730000000  0.6036410000000  0.4094080000000 1.0
C      1  0.5976930000000  0.4516020000000  0.4391670000000 1.0
C      1  0.5825460000000  0.4852880000000  0.5722960000000 1.0
C      1  0.4580960000000  0.4216860000000  0.5704890000000 1.0
C      1  0.4561460000000  0.5715490000000  0.5766880000000 1.0
C      1  0.5535220000000  0.5619270000000  0.4809080000000 1.0
C      1  0.5277610000000  0.4182160000000  0.4883600000000 1.0
C      1  0.4105860000000  0.5122280000000  0.4848430000000 1.0
C      1  0.5266600000000  0.5421750000000  0.5354540000000 1.0
C      1  0.5205330000000  0.4469570000000  0.5507790000000 1.0
C      1  0.4434020000000  0.5061240000000  0.5473870000000 1.0
C      1  0.4810250000000  0.5048030000000  0.4789310000000 1.0
C      1  0.5016880000000  0.5277540000000  0.4783980000000 1.0
C      1  0.5277890000000  0.4740130000000  0.4657580000000 1.0
C      1  0.5450760000000  0.5893820000000  0.5146440000000 1.0
C      1  0.5502070000000  0.4056930000000  0.5232320000000 1.0
C      1  0.3958450000000  0.4957730000000  0.5221220000000 1.0
C      1  0.5393000000000  0.5951060000000  0.5471480000000 1.0
C      1  0.5491880000000  0.4027650000000  0.5573220000000 1.0
C      1  0.3887610000000  0.5028090000000  0.5546590000000 1.0
C      1  0.5527120000000  0.4498620000000  0.5924840000000 1.0
C      1  0.4229060000000  0.4729640000000  0.5864960000000 1.0
C      1  0.5145630000000  0.5620670000000  0.5893820000000 1.0
C      1  0.4918340000000  0.4440040000000  0.5376270000000 1.0
C      1  0.4631530000000  0.5399980000000  0.5533190000000 1.0
C      1  0.5589690000000  0.5227520000000  0.5481520000000 1.0
C      1  0.5661260000000  0.5295090000000  0.5941140000000 1.0
C      1  0.4940460000000  0.4381630000000  0.6074710000000 1.0
C      1  0.4472330000000  0.5271090000000  0.6052500000000 1.0
C      1  0.4820300000000  0.4893690000000  0.5931020000000 1.0
C      1  0.4976340000000  0.5112130000000  0.6037600000000 1.0
C      1  0.5184340000000  0.5035400000000  0.5795130000000 1.0
C      1  0.5865220000000  0.5574560000000  0.4797190000000 1.0
C      1  0.5034250000000  0.3951340000000  0.4815520000000 1.0
C      1  0.4027060000000  0.5431970000000  0.4812960000000 1.0
C      1  0.5762200000000  0.4449460000000  0.4218140000000 1.0
C      1  0.4180740000000  0.4695560000000  0.4218230000000 1.0
C      1  0.5246870000000  0.5943530000000  0.4049320000000 1.0
C      1  0.4675280000000  0.4472440000000  0.5884860000000 1.0
C      1  0.4579040000000  0.5589280000000  0.6058530000000 1.0
C      1  0.5710150000000  0.4983230000000  0.5944370000000 1.0
C      1  0.5990720000000  0.5082700000000  0.4692140000000 1.0
C      1  0.4692340000000  0.4110410000000  0.4687910000000 1.0
C      1  0.4378460000000  0.5784180000000  0.4702730000000 1.0
C      1  0.4506770000000  0.5458550000000  0.4131990000000 1.0
C      1  0.5731950000000  0.5180730000000  0.4102110000000 1.0
C      1  0.4820070000000  0.4375640000000  0.4113270000000 1.0
C      1  0.4343550000000  0.4966710000000  0.4976770000000 1.0
C      1  0.5263110000000  0.5557130000000  0.4922060000000 1.0
C      1  0.5426370000000  0.4407530000000  0.5022160000000 1.0
C      1  0.5216220000000  0.5671010000000  0.5563820000000 1.0
C      1  0.5489060000000  0.4359470000000  0.5615840000000 1.0
C      1  0.4176900000000  0.4875160000000  0.5563020000000 1.0
C      1  0.4847220000000  0.4653430000000  0.4029880000000 1.0
C      1  0.4739580000000  0.5297950000000  0.4105800000000 1.0
C      1  0.5477920000000  0.5091620000000  0.4013010000000 1.0
C      1  0.5463260000000  0.4492930000000  0.4715320000000 1.0
C      1  0.4353080000000  0.4876810000000  0.4652100000000 1.0
C      1  0.5204720000000  0.5494660000000  0.4586050000000 1.0
C      1  0.4943530000000  0.4587370000000  0.5090080000000 1.0
C      1  0.4615260000000  0.5368210000000  0.5214170000000 1.0
C      1  0.5467770000000  0.5120610000000  0.5061230000000 1.0
C      1  0.5603730000000  0.5735240000000  0.5630660000000 1.0
C      1  0.5182970000000  0.4116030000000  0.5691220000000 1.0
C      1  0.4115350000000  0.5256480000000  0.5661370000000 1.0
C      1  0.5631310000000  0.4212190000000  0.4202800000000 1.0
C      1  0.3993680000000  0.4838200000000  0.4367790000000 1.0
C      1  0.5510820000000  0.5964330000000  0.4106920000000 1.0
END
