TITL C-2782233-7966-195 0.000417455392238791 125000 -171.819401880569 0 0 32 (C1) n - 1
REM
REM in /home/nfs/bkarasulu/CARBON/AIRSS/Generating-Clusters/REBO/Higher-Symm/SD-CG/HFTN-CG
REM
REM
REM
REM
REM
REM ./C.cell (12c818d87b63d06a65506943cc24bca4)
REM
REM compiler GCC version 9.2.1 20190827 (Red Hat 9.2.1-1)
REM options -cpp -mtune=generic -march=x86-64 -g -O0 -fpre-include=/usr/include/finclude/math-vector-fortran.h
REM seed -1861626691 -231340844 -932201 -1753433080 -1738635739 1152221745 1056523961 785887504 1411205966 2034110815 -1416716421 -1611897396 1342261008 382084546 -2118046327 -163200024 -1344321158 -917236603 -1044214085 -1997081552 1960816879 1608721863 1159419668 1033026869 -541096927 -1558644526 -128559762 1277920478 478069946 -2013239151 818867754 -938704994 1584497553
REM
CELL 1.54180   50.00000   50.00000   50.00000   90.00000   90.00000   90.00000
LATT -1
SFAC C  
C      1  0.5482040000000  0.5272500000000  0.4869550000000 1.0
C      1  0.5387340000000  0.4754030000000  0.5092400000000 1.0
C      1  0.5463560000000  0.5262720000000  0.5117280000000 1.0
C      1  0.5397310000000  0.4762550000000  0.4845460000000 1.0
C      1  0.5323330000000  0.5168130000000  0.5366450000000 1.0
C      1  0.5303910000000  0.4893920000000  0.4584800000000 1.0
C      1  0.5337050000000  0.5201370000000  0.4614470000000 1.0
C      1  0.5292160000000  0.4855410000000  0.5359870000000 1.0
C      1  0.4718840000000  0.5555210000000  0.4875250000000 1.0
C      1  0.4652050000000  0.4416550000000  0.5128780000000 1.0
C      1  0.4702790000000  0.5610360000000  0.5142560000000 1.0
C      1  0.4672530000000  0.4361300000000  0.4861840000000 1.0
C      1  0.4991750000000  0.4798340000000  0.4751410000000 1.0
C      1  0.4962470000000  0.5147630000000  0.5305690000000 1.0
C      1  0.4926830000000  0.4841910000000  0.5332970000000 1.0
C      1  0.4998860000000  0.5111000000000  0.4723160000000 1.0
C      1  0.5043590000000  0.4581010000000  0.5201020000000 1.0
C      1  0.5095150000000  0.5372150000000  0.4882120000000 1.0
C      1  0.5065750000000  0.4564590000000  0.4948590000000 1.0
C      1  0.5084570000000  0.5388850000000  0.5135250000000 1.0
C      1  0.4478630000000  0.4846150000000  0.4713010000000 1.0
C      1  0.4446110000000  0.5143310000000  0.5250830000000 1.0
C      1  0.4428940000000  0.4891710000000  0.5258370000000 1.0
C      1  0.4486270000000  0.5097910000000  0.4703140000000 1.0
C      1  0.5386350000000  0.5294070000000  0.5606290000000 1.0
C      1  0.5342880000000  0.4780700000000  0.4335080000000 1.0
C      1  0.5357660000000  0.5369150000000  0.4395520000000 1.0
C      1  0.5378350000000  0.4715900000000  0.5586460000000 1.0
C      1  0.4700630000000  0.5284950000000  0.5169160000000 1.0
C      1  0.4701930000000  0.4685740000000  0.4837570000000 1.0
C      1  0.4722000000000  0.5251470000000  0.4807470000000 1.0
C      1  0.4668350000000  0.4719430000000  0.5198190000000 1.0
END
