TITL C-2782238-9940-760 -0.00309794647965183 125000 -809.978747184214 0 0 141 (C1) n - 1
REM
REM in /home/nfs/bkarasulu/CARBON/AIRSS/Generating-Clusters/REBO/Higher-Symm/SD-CG/HFTN-CG
REM
REM
REM
REM
REM
REM ./C.cell (12c818d87b63d06a65506943cc24bca4)
REM
REM compiler GCC version 9.2.1 20190827 (Red Hat 9.2.1-1)
REM options -cpp -mtune=generic -march=x86-64 -g -O0 -fpre-include=/usr/include/finclude/math-vector-fortran.h
REM seed 566882210 978931107 260770768 1898781755 1266003182 -1721862954 1923804178 7218154 1260600361 -1614340390 -1079901526 294018126 899798282 -416987963 1310474739 -469405650 -1710011724 -1571160050 -1877630760 1644248811 -909434477 1839597232 -751421038 -1965655700 1863398795 1268368915 -118174044 969886095 -1403816977 866307247 -1638241079 -954195846 -1365362256
REM
CELL 1.54180   50.00000   50.00000   50.00000   90.00000   90.00000   90.00000
LATT -1
SFAC C  
C      1  0.4959930000000  0.5196680000000  0.4355920000000 1.0
C      1  0.5204350000000  0.5156040000000  0.5590010000000 1.0
C      1  0.4855290000000  0.4870660000000  0.4387620000000 1.0
C      1  0.5158090000000  0.4823160000000  0.5543900000000 1.0
C      1  0.5285190000000  0.5166190000000  0.4440770000000 1.0
C      1  0.4885770000000  0.5114490000000  0.5564900000000 1.0
C      1  0.5180580000000  0.4866500000000  0.4379740000000 1.0
C      1  0.4851100000000  0.4786680000000  0.5535620000000 1.0
C      1  0.4316930000000  0.5094070000000  0.5574060000000 1.0
C      1  0.5588920000000  0.5183240000000  0.4287680000000 1.0
C      1  0.4265120000000  0.4755240000000  0.5561240000000 1.0
C      1  0.5774680000000  0.4901220000000  0.4265740000000 1.0
C      1  0.5712010000000  0.5226140000000  0.5559630000000 1.0
C      1  0.4283720000000  0.5233600000000  0.4174130000000 1.0
C      1  0.5782490000000  0.4907650000000  0.5649650000000 1.0
C      1  0.4251450000000  0.4911400000000  0.4238260000000 1.0
C      1  0.4328430000000  0.4324880000000  0.4855610000000 1.0
C      1  0.5579980000000  0.4246450000000  0.5157060000000 1.0
C      1  0.4426770000000  0.5705430000000  0.4891560000000 1.0
C      1  0.5651130000000  0.5668750000000  0.5199720000000 1.0
C      1  0.5591280000000  0.4237410000000  0.4815660000000 1.0
C      1  0.4371230000000  0.4334550000000  0.5194280000000 1.0
C      1  0.5597830000000  0.5748110000000  0.4873040000000 1.0
C      1  0.4402780000000  0.5582420000000  0.5208040000000 1.0
C      1  0.5759020000000  0.5211230000000  0.4895730000000 1.0
C      1  0.4089370000000  0.5162640000000  0.5098590000000 1.0
C      1  0.5759550000000  0.4773390000000  0.4825640000000 1.0
C      1  0.4279500000000  0.4892950000000  0.5090010000000 1.0
C      1  0.4270300000000  0.5176510000000  0.4809680000000 1.0
C      1  0.5947490000000  0.5266280000000  0.5116890000000 1.0
C      1  0.4089700000000  0.4802010000000  0.4822090000000 1.0
C      1  0.5685820000000  0.4762710000000  0.5157760000000 1.0
C      1  0.5328160000000  0.5461210000000  0.4175440000000 1.0
C      1  0.4555140000000  0.5474450000000  0.5912290000000 1.0
C      1  0.5381630000000  0.4546390000000  0.4251840000000 1.0
C      1  0.4562860000000  0.4519790000000  0.5953290000000 1.0
C      1  0.4650120000000  0.5389770000000  0.4167730000000 1.0
C      1  0.5406670000000  0.5471230000000  0.5891220000000 1.0
C      1  0.4567280000000  0.4471600000000  0.4238020000000 1.0
C      1  0.5404050000000  0.4480700000000  0.5861320000000 1.0
C      1  0.5569780000000  0.4806510000000  0.5843220000000 1.0
C      1  0.4469470000000  0.4753510000000  0.4061370000000 1.0
C      1  0.5524700000000  0.5152540000000  0.5828910000000 1.0
C      1  0.4548600000000  0.5087770000000  0.4039570000000 1.0
C      1  0.4409560000000  0.4806650000000  0.5839290000000 1.0
C      1  0.5501730000000  0.4836500000000  0.4116250000000 1.0
C      1  0.4459760000000  0.5144690000000  0.5864280000000 1.0
C      1  0.5395800000000  0.5153990000000  0.4030800000000 1.0
C      1  0.4811380000000  0.4347980000000  0.5795470000000 1.0
C      1  0.5150150000000  0.4377310000000  0.4435140000000 1.0
C      1  0.4816870000000  0.5599980000000  0.5734820000000 1.0
C      1  0.5168810000000  0.5634260000000  0.4421520000000 1.0
C      1  0.5129150000000  0.4322160000000  0.5762620000000 1.0
C      1  0.4810440000000  0.4349580000000  0.4444680000000 1.0
C      1  0.5140650000000  0.5611240000000  0.5728080000000 1.0
C      1  0.4833430000000  0.5576330000000  0.4390520000000 1.0
C      1  0.5261310000000  0.4850360000000  0.5839390000000 1.0
C      1  0.4783420000000  0.4771680000000  0.4097070000000 1.0
C      1  0.5200330000000  0.5139680000000  0.5932280000000 1.0
C      1  0.4880250000000  0.5085240000000  0.4054260000000 1.0
C      1  0.4731760000000  0.4854180000000  0.5824890000000 1.0
C      1  0.5182910000000  0.4818420000000  0.4042450000000 1.0
C      1  0.4788860000000  0.5160510000000  0.5872290000000 1.0
C      1  0.5125490000000  0.5097620000000  0.3857780000000 1.0
C      1  0.5165560000000  0.5915960000000  0.4624930000000 1.0
C      1  0.4871120000000  0.5713760000000  0.5454110000000 1.0
C      1  0.5092730000000  0.4181830000000  0.4693760000000 1.0
C      1  0.4835900000000  0.4227360000000  0.5510920000000 1.0
C      1  0.4878520000000  0.5839020000000  0.4601990000000 1.0
C      1  0.5170980000000  0.5764500000000  0.5447290000000 1.0
C      1  0.4802940000000  0.4161140000000  0.4723870000000 1.0
C      1  0.5136130000000  0.4172170000000  0.5485760000000 1.0
C      1  0.5150890000000  0.4555070000000  0.4822680000000 1.0
C      1  0.4860570000000  0.4524850000000  0.5095810000000 1.0
C      1  0.5165390000000  0.5466690000000  0.4881550000000 1.0
C      1  0.4889170000000  0.5425740000000  0.5167820000000 1.0
C      1  0.4812620000000  0.4555830000000  0.4786670000000 1.0
C      1  0.5172370000000  0.4516060000000  0.5137690000000 1.0
C      1  0.4853360000000  0.5526240000000  0.4849230000000 1.0
C      1  0.5211450000000  0.5461800000000  0.5192260000000 1.0
C      1  0.5806880000000  0.4473290000000  0.4722340000000 1.0
C      1  0.4177300000000  0.4579280000000  0.5123040000000 1.0
C      1  0.5865300000000  0.5592900000000  0.4747380000000 1.0
C      1  0.4150810000000  0.5468020000000  0.5050910000000 1.0
C      1  0.4041720000000  0.4490870000000  0.4843470000000 1.0
C      1  0.5810050000000  0.4461390000000  0.5057570000000 1.0
C      1  0.4210350000000  0.5506950000000  0.4736400000000 1.0
C      1  0.5900320000000  0.5553620000000  0.5045710000000 1.0
C      1  0.4768510000000  0.5224390000000  0.4636900000000 1.0
C      1  0.5368350000000  0.5255680000000  0.5358510000000 1.0
C      1  0.4748130000000  0.4832420000000  0.4679290000000 1.0
C      1  0.5319540000000  0.4724240000000  0.5311000000000 1.0
C      1  0.5286670000000  0.5213150000000  0.4754660000000 1.0
C      1  0.4720150000000  0.5219630000000  0.5324780000000 1.0
C      1  0.5279900000000  0.4818740000000  0.4702630000000 1.0
C      1  0.4693640000000  0.4705450000000  0.5297340000000 1.0
C      1  0.5144420000000  0.4493660000000  0.4013330000000 1.0
C      1  0.4857160000000  0.4653680000000  0.6046470000000 1.0
C      1  0.5112170000000  0.5416200000000  0.3941510000000 1.0
C      1  0.4843830000000  0.5405740000000  0.6079740000000 1.0
C      1  0.4856570000000  0.4455320000000  0.4059650000000 1.0
C      1  0.5140630000000  0.4625190000000  0.6021920000000 1.0
C      1  0.4860820000000  0.5526090000000  0.3973240000000 1.0
C      1  0.5137190000000  0.5409160000000  0.6089850000000 1.0
C      1  0.5800440000000  0.5313270000000  0.4595760000000 1.0
C      1  0.4057370000000  0.5045020000000  0.5385800000000 1.0
C      1  0.5765310000000  0.4975040000000  0.4577530000000 1.0
C      1  0.3948800000000  0.4770510000000  0.5445670000000 1.0
C      1  0.4195100000000  0.5210720000000  0.4495400000000 1.0
C      1  0.5941460000000  0.5122460000000  0.5356220000000 1.0
C      1  0.4170670000000  0.4882740000000  0.4558430000000 1.0
C      1  0.6008170000000  0.4839860000000  0.5463470000000 1.0
C      1  0.4623910000000  0.4191610000000  0.4929810000000 1.0
C      1  0.5259860000000  0.4226830000000  0.5224970000000 1.0
C      1  0.4725530000000  0.5851830000000  0.4876510000000 1.0
C      1  0.5337660000000  0.5776510000000  0.5173620000000 1.0
C      1  0.5285860000000  0.4168100000000  0.4899370000000 1.0
C      1  0.4699400000000  0.4281050000000  0.5247480000000 1.0
C      1  0.5311690000000  0.5931800000000  0.4872730000000 1.0
C      1  0.4706870000000  0.5705180000000  0.5175360000000 1.0
C      1  0.4592850000000  0.5562630000000  0.4636310000000 1.0
C      1  0.5595620000000  0.5493750000000  0.5439600000000 1.0
C      1  0.4539910000000  0.4448750000000  0.4635070000000 1.0
C      1  0.5570040000000  0.4516650000000  0.5365400000000 1.0
C      1  0.5386440000000  0.5591370000000  0.4682390000000 1.0
C      1  0.4447200000000  0.5362440000000  0.5417740000000 1.0
C      1  0.5417160000000  0.4452340000000  0.4635890000000 1.0
C      1  0.4452720000000  0.4550730000000  0.5409590000000 1.0
C      1  0.4427110000000  0.5441690000000  0.4403180000000 1.0
C      1  0.5533090000000  0.5654450000000  0.5670630000000 1.0
C      1  0.4370400000000  0.4652930000000  0.4432340000000 1.0
C      1  0.5618880000000  0.4466500000000  0.5639990000000 1.0
C      1  0.5542330000000  0.5470780000000  0.4440880000000 1.0
C      1  0.4343660000000  0.5478070000000  0.5678050000000 1.0
C      1  0.5609670000000  0.4679130000000  0.4468870000000 1.0
C      1  0.4437760000000  0.4413780000000  0.5675430000000 1.0
C      1  0.5510260000000  0.4998950000000  0.4886990000000 1.0
C      1  0.4594250000000  0.4968650000000  0.5154120000000 1.0
C      1  0.4549950000000  0.5054720000000  0.4836380000000 1.0
C      1  0.5451430000000  0.4999850000000  0.5206000000000 1.0
C      1  0.5025280000000  0.5027640000000  0.4711220000000 1.0
END
