TITL C-2782227-3064-1479 -0.00031588514923381 125000 -458.466604010991 0 0 78 (C1) n - 1
REM
REM in /home/nfs/bkarasulu/CARBON/AIRSS/Generating-Clusters/REBO/Higher-Symm/SD-CG/HFTN-CG
REM
REM
REM
REM
REM
REM ./C.cell (12c818d87b63d06a65506943cc24bca4)
REM
REM compiler GCC version 9.2.1 20190827 (Red Hat 9.2.1-1)
REM options -cpp -mtune=generic -march=x86-64 -g -O0 -fpre-include=/usr/include/finclude/math-vector-fortran.h
REM seed -1568045408 899749853 1663544458 -1170469583 -1421195500 348103385 1821566239 -194000130 476041820 -1665354811 -876361840 -363412260 1419111870 -1468321202 -1063527150 549534649 -1142913475 -29849119 1423925451 1451340724 1450771875 -497577267 302923291 -1554173383 1294289009 671977292 -1144275828 2092396263 -1517776991 1258909963 624635404 -1278886880 402386800
REM
CELL 1.54180   50.00000   50.00000   50.00000   90.00000   90.00000   90.00000
LATT -1
SFAC C  
C      1  0.5355960000000  0.4878690000000  0.5080900000000 1.0
C      1  0.5826060000000  0.5083910000000  0.5083540000000 1.0
C      1  0.5610770000000  0.4990970000000  0.4598950000000 1.0
C      1  0.5190730000000  0.5463840000000  0.4542900000000 1.0
C      1  0.4821870000000  0.4680650000000  0.4638260000000 1.0
C      1  0.5544810000000  0.4840020000000  0.4311140000000 1.0
C      1  0.5056070000000  0.4857380000000  0.4713440000000 1.0
C      1  0.5076990000000  0.5154890000000  0.5209470000000 1.0
C      1  0.5025980000000  0.4917750000000  0.5447940000000 1.0
C      1  0.4927260000000  0.4900600000000  0.6011500000000 1.0
C      1  0.4739140000000  0.5254200000000  0.4281470000000 1.0
C      1  0.5059620000000  0.4276570000000  0.4975330000000 1.0
C      1  0.4543950000000  0.4800750000000  0.4480870000000 1.0
C      1  0.5510120000000  0.5158920000000  0.4318000000000 1.0
C      1  0.5323110000000  0.5177030000000  0.5444090000000 1.0
C      1  0.4127600000000  0.4989870000000  0.4471380000000 1.0
C      1  0.5133450000000  0.4392640000000  0.5224170000000 1.0
C      1  0.5830170000000  0.5109560000000  0.4764230000000 1.0
C      1  0.4576380000000  0.4507490000000  0.4785310000000 1.0
C      1  0.5441520000000  0.4532130000000  0.4857070000000 1.0
C      1  0.4713160000000  0.4963550000000  0.5827080000000 1.0
C      1  0.4935730000000  0.5543570000000  0.4651300000000 1.0
C      1  0.4889850000000  0.5591120000000  0.4949230000000 1.0
C      1  0.4289600000000  0.5196620000000  0.5212420000000 1.0
C      1  0.4938930000000  0.5407750000000  0.5809940000000 1.0
C      1  0.4847040000000  0.5016590000000  0.4852370000000 1.0
C      1  0.5678820000000  0.4849110000000  0.5184440000000 1.0
C      1  0.4851450000000  0.4352640000000  0.4642360000000 1.0
C      1  0.5273540000000  0.5314300000000  0.4280030000000 1.0
C      1  0.4349750000000  0.4536450000000  0.5192850000000 1.0
C      1  0.5192910000000  0.5296760000000  0.5902810000000 1.0
C      1  0.4556270000000  0.5047980000000  0.5205070000000 1.0
C      1  0.5300810000000  0.5183760000000  0.4959400000000 1.0
C      1  0.5125910000000  0.4429940000000  0.4463680000000 1.0
C      1  0.5271020000000  0.4906230000000  0.5647490000000 1.0
C      1  0.5108460000000  0.5678640000000  0.5105760000000 1.0
C      1  0.5490480000000  0.5429300000000  0.4974410000000 1.0
C      1  0.4749680000000  0.4828030000000  0.5575500000000 1.0
C      1  0.5706380000000  0.4786700000000  0.5492740000000 1.0
C      1  0.4580180000000  0.4981330000000  0.4766860000000 1.0
C      1  0.4722940000000  0.5459080000000  0.5396680000000 1.0
C      1  0.4787280000000  0.5266410000000  0.5158460000000 1.0
C      1  0.5732030000000  0.5389280000000  0.5202510000000 1.0
C      1  0.5459070000000  0.4675240000000  0.5571100000000 1.0
C      1  0.5010300000000  0.5128780000000  0.4207000000000 1.0
C      1  0.5006950000000  0.4812210000000  0.4115770000000 1.0
C      1  0.5178100000000  0.5595970000000  0.5373500000000 1.0
C      1  0.5400140000000  0.5364990000000  0.5713710000000 1.0
C      1  0.4676280000000  0.5257060000000  0.5807990000000 1.0
C      1  0.5388030000000  0.4826540000000  0.4757310000000 1.0
C      1  0.4352480000000  0.4964910000000  0.4309280000000 1.0
C      1  0.5796950000000  0.5402770000000  0.4864730000000 1.0
C      1  0.4928080000000  0.4578140000000  0.4237640000000 1.0
C      1  0.5186220000000  0.4960120000000  0.4440330000000 1.0
C      1  0.4648580000000  0.5363470000000  0.4862500000000 1.0
C      1  0.4814580000000  0.4610330000000  0.5319170000000 1.0
C      1  0.4499460000000  0.5156800000000  0.4163180000000 1.0
C      1  0.4342520000000  0.4660780000000  0.4813160000000 1.0
C      1  0.5490120000000  0.5461200000000  0.5400110000000 1.0
C      1  0.5348350000000  0.5694340000000  0.4953770000000 1.0
C      1  0.5231260000000  0.4359750000000  0.4765780000000 1.0
C      1  0.4544620000000  0.4779370000000  0.5235690000000 1.0
C      1  0.5396190000000  0.4480370000000  0.5352500000000 1.0
C      1  0.4659700000000  0.4561020000000  0.4294560000000 1.0
C      1  0.4614190000000  0.4391770000000  0.5189610000000 1.0
C      1  0.5568100000000  0.4543220000000  0.5114540000000 1.0
C      1  0.4514890000000  0.5365960000000  0.5583150000000 1.0
C      1  0.4715250000000  0.5383280000000  0.4529530000000 1.0
C      1  0.5116920000000  0.4726900000000  0.5208860000000 1.0
C      1  0.4019710000000  0.5362730000000  0.5589420000000 1.0
C      1  0.5180810000000  0.5003900000000  0.5928400000000 1.0
C      1  0.4256210000000  0.5318000000000  0.5465400000000 1.0
C      1  0.5264370000000  0.5191990000000  0.4658150000000 1.0
C      1  0.4961320000000  0.5533830000000  0.5542720000000 1.0
C      1  0.5301850000000  0.4667880000000  0.4342440000000 1.0
C      1  0.4215670000000  0.4940340000000  0.4755440000000 1.0
C      1  0.4355650000000  0.5200810000000  0.4897900000000 1.0
C      1  0.4743250000000  0.4252240000000  0.4942320000000 1.0
END
