TITL C-2782240-8521-89 -0.000969748756865204 125000 -1027.55929437691 0 0 179 (C1) n - 1
REM
REM in /home/nfs/bkarasulu/CARBON/AIRSS/Generating-Clusters/REBO/Higher-Symm/SD-CG/HFTN-CG
REM
REM
REM
REM
REM
REM ./C.cell (12c818d87b63d06a65506943cc24bca4)
REM
REM compiler GCC version 9.2.1 20190827 (Red Hat 9.2.1-1)
REM options -cpp -mtune=generic -march=x86-64 -g -O0 -fpre-include=/usr/include/finclude/math-vector-fortran.h
REM seed -1068353854 2084564273 -706297359 602030123 301618101 340252200 -248522784 2130082158 1316446696 -1147045337 -311122365 -1058837170 1054667554 -946085517 -153483042 -59104638 -1512740669 1282689579 36819296 1740537623 -1958015740 -1639528819 1896617386 1107335283 1313537347 -197391884 -2099903092 1427700862 1336807478 1661899411 -1281017662 1845598877 1643442249
REM
CELL 1.54180   50.00000   50.00000   50.00000   90.00000   90.00000   90.00000
LATT -1
SFAC C  
C      1  0.4311690000000  0.4220990000000  0.4940910000000 1.0
C      1  0.4248670000000  0.4738150000000  0.5698590000000 1.0
C      1  0.4280560000000  0.5621570000000  0.5489030000000 1.0
C      1  0.4290270000000  0.5643390000000  0.4551800000000 1.0
C      1  0.4230090000000  0.4811880000000  0.4225840000000 1.0
C      1  0.4862990000000  0.5008380000000  0.4618140000000 1.0
C      1  0.5033370000000  0.4711530000000  0.4823540000000 1.0
C      1  0.5218620000000  0.4643910000000  0.5259590000000 1.0
C      1  0.5061590000000  0.5174030000000  0.5383640000000 1.0
C      1  0.5085190000000  0.5350090000000  0.4952470000000 1.0
C      1  0.4794450000000  0.4189060000000  0.4427300000000 1.0
C      1  0.4790280000000  0.4128230000000  0.5662990000000 1.0
C      1  0.4732460000000  0.5406860000000  0.6057960000000 1.0
C      1  0.4759720000000  0.6091170000000  0.4947800000000 1.0
C      1  0.4798380000000  0.5223030000000  0.4019890000000 1.0
C      1  0.5040350000000  0.4757160000000  0.4279210000000 1.0
C      1  0.5124050000000  0.4235690000000  0.5036160000000 1.0
C      1  0.5064350000000  0.4833500000000  0.5775400000000 1.0
C      1  0.5117450000000  0.5658770000000  0.5349650000000 1.0
C      1  0.5089270000000  0.5560850000000  0.4540250000000 1.0
C      1  0.5001070000000  0.5969120000000  0.5428850000000 1.0
C      1  0.5034690000000  0.5669110000000  0.4233490000000 1.0
C      1  0.4998940000000  0.4495540000000  0.4077540000000 1.0
C      1  0.5008200000000  0.3964690000000  0.5204950000000 1.0
C      1  0.4973600000000  0.4924230000000  0.6082370000000 1.0
C      1  0.5367620000000  0.4716250000000  0.5875670000000 1.0
C      1  0.5327150000000  0.5772770000000  0.5573230000000 1.0
C      1  0.5363120000000  0.5762320000000  0.4530980000000 1.0
C      1  0.5362140000000  0.4783840000000  0.4174820000000 1.0
C      1  0.5391920000000  0.4088090000000  0.4937990000000 1.0
C      1  0.4721140000000  0.4917990000000  0.5384560000000 1.0
C      1  0.4777480000000  0.5310000000000  0.5335700000000 1.0
C      1  0.4817830000000  0.5242620000000  0.4821590000000 1.0
C      1  0.4731240000000  0.4730790000000  0.4706600000000 1.0
C      1  0.4709180000000  0.4552310000000  0.4993740000000 1.0
C      1  0.5285810000000  0.5385870000000  0.5229250000000 1.0
C      1  0.5326480000000  0.5418500000000  0.4730470000000 1.0
C      1  0.5160360000000  0.4850670000000  0.4561680000000 1.0
C      1  0.5267460000000  0.4534170000000  0.4974910000000 1.0
C      1  0.5160030000000  0.4906870000000  0.5473220000000 1.0
C      1  0.5448230000000  0.5658450000000  0.4917290000000 1.0
C      1  0.5405300000000  0.5147510000000  0.4334360000000 1.0
C      1  0.5390060000000  0.4403480000000  0.4692500000000 1.0
C      1  0.5449410000000  0.4720160000000  0.5484810000000 1.0
C      1  0.5361780000000  0.5366710000000  0.5563220000000 1.0
C      1  0.4536590000000  0.5318750000000  0.5529730000000 1.0
C      1  0.4614320000000  0.5558800000000  0.4885740000000 1.0
C      1  0.4529520000000  0.5008710000000  0.4399330000000 1.0
C      1  0.4544010000000  0.4461730000000  0.4724790000000 1.0
C      1  0.4631200000000  0.4615530000000  0.5427510000000 1.0
C      1  0.5179790000000  0.4518640000000  0.5557960000000 1.0
C      1  0.5101970000000  0.5378640000000  0.5724360000000 1.0
C      1  0.5116960000000  0.5672460000000  0.4952180000000 1.0
C      1  0.5150720000000  0.5188250000000  0.4230750000000 1.0
C      1  0.5177500000000  0.4302480000000  0.4548670000000 1.0
C      1  0.6089900000000  0.4730880000000  0.5125080000000 1.0
C      1  0.6241280000000  0.4931010000000  0.4978000000000 1.0
C      1  0.6174260000000  0.4917300000000  0.4703080000000 1.0
C      1  0.5968630000000  0.4707520000000  0.4655780000000 1.0
C      1  0.5969120000000  0.4562020000000  0.4921290000000 1.0
C      1  0.4645800000000  0.4742970000000  0.5947600000000 1.0
C      1  0.4659210000000  0.5807450000000  0.5552020000000 1.0
C      1  0.4698210000000  0.5728480000000  0.4438930000000 1.0
C      1  0.4650590000000  0.4666220000000  0.3989970000000 1.0
C      1  0.4664020000000  0.4016810000000  0.5010910000000 1.0
C      1  0.5218550000000  0.4294730000000  0.4138260000000 1.0
C      1  0.5253690000000  0.4043850000000  0.5416360000000 1.0
C      1  0.5172840000000  0.5147200000000  0.6169550000000 1.0
C      1  0.5215360000000  0.6082240000000  0.5205450000000 1.0
C      1  0.5259270000000  0.5532470000000  0.4059480000000 1.0
C      1  0.5602900000000  0.4963610000000  0.5107140000000 1.0
C      1  0.5557690000000  0.5295110000000  0.5043180000000 1.0
C      1  0.5531610000000  0.5197150000000  0.4710300000000 1.0
C      1  0.5433780000000  0.4902340000000  0.4673480000000 1.0
C      1  0.5520920000000  0.4748840000000  0.4903340000000 1.0
C      1  0.4978740000000  0.5038940000000  0.3830420000000 1.0
C      1  0.4975530000000  0.3960460000000  0.4592710000000 1.0
C      1  0.4956610000000  0.4345180000000  0.5871140000000 1.0
C      1  0.4938330000000  0.5659780000000  0.5956640000000 1.0
C      1  0.4984730000000  0.6072180000000  0.4693390000000 1.0
C      1  0.5496380000000  0.4474900000000  0.5796940000000 1.0
C      1  0.5360940000000  0.5663950000000  0.5830660000000 1.0
C      1  0.5452970000000  0.5984470000000  0.4688080000000 1.0
C      1  0.5487380000000  0.4963410000000  0.3990410000000 1.0
C      1  0.5461950000000  0.4010440000000  0.4677550000000 1.0
C      1  0.4225290000000  0.4504190000000  0.4769330000000 1.0
C      1  0.4292190000000  0.4603080000000  0.5397740000000 1.0
C      1  0.4201890000000  0.5293990000000  0.5486720000000 1.0
C      1  0.4279410000000  0.5574400000000  0.4887570000000 1.0
C      1  0.4196330000000  0.5064160000000  0.4445910000000 1.0
C      1  0.5567670000000  0.5874030000000  0.5454770000000 1.0
C      1  0.5579580000000  0.5603820000000  0.4423740000000 1.0
C      1  0.5550820000000  0.4616640000000  0.4325540000000 1.0
C      1  0.5608010000000  0.4174890000000  0.5110650000000 1.0
C      1  0.5551000000000  0.4930480000000  0.5937000000000 1.0
C      1  0.4455950000000  0.4732210000000  0.5005510000000 1.0
C      1  0.4449680000000  0.4933110000000  0.5239350000000 1.0
C      1  0.4326440000000  0.5189500000000  0.5122510000000 1.0
C      1  0.4329640000000  0.5180480000000  0.4841560000000 1.0
C      1  0.4375010000000  0.4897470000000  0.4754460000000 1.0
C      1  0.5668630000000  0.4386490000000  0.4687380000000 1.0
C      1  0.5728010000000  0.4797300000000  0.5525540000000 1.0
C      1  0.5882340000000  0.5485040000000  0.5621760000000 1.0
C      1  0.5792820000000  0.5448160000000  0.4894370000000 1.0
C      1  0.5713230000000  0.5083120000000  0.4460040000000 1.0
C      1  0.5797820000000  0.5724820000000  0.5525970000000 1.0
C      1  0.5758970000000  0.5514120000000  0.4622640000000 1.0
C      1  0.5752800000000  0.4768960000000  0.4473070000000 1.0
C      1  0.5780020000000  0.4346590000000  0.4959720000000 1.0
C      1  0.5759190000000  0.4972130000000  0.5745290000000 1.0
C      1  0.4413540000000  0.4558660000000  0.4360090000000 1.0
C      1  0.4489400000000  0.4306330000000  0.5218420000000 1.0
C      1  0.4424480000000  0.5019260000000  0.5765400000000 1.0
C      1  0.4461040000000  0.5699410000000  0.5224470000000 1.0
C      1  0.4471570000000  0.5401080000000  0.4416850000000 1.0
C      1  0.4137560000000  0.4677110000000  0.4522610000000 1.0
C      1  0.4173680000000  0.4408240000000  0.5176640000000 1.0
C      1  0.4108660000000  0.5035880000000  0.5646050000000 1.0
C      1  0.4162800000000  0.5548070000000  0.5180900000000 1.0
C      1  0.4129970000000  0.5380530000000  0.4402980000000 1.0
C      1  0.4701800000000  0.4734730000000  0.4309470000000 1.0
C      1  0.4815870000000  0.4301670000000  0.5112750000000 1.0
C      1  0.4747570000000  0.4935930000000  0.5691170000000 1.0
C      1  0.4783130000000  0.5618230000000  0.5300300000000 1.0
C      1  0.4779570000000  0.5420280000000  0.4553730000000 1.0
C      1  0.4122600000000  0.4685290000000  0.5018270000000 1.0
C      1  0.4140100000000  0.4904000000000  0.5351290000000 1.0
C      1  0.4018860000000  0.5259900000000  0.5216270000000 1.0
C      1  0.4109010000000  0.5338170000000  0.4721910000000 1.0
C      1  0.4038270000000  0.4936470000000  0.4719870000000 1.0
C      1  0.4681210000000  0.5067090000000  0.6062390000000 1.0
C      1  0.4703920000000  0.6008580000000  0.5276080000000 1.0
C      1  0.4742390000000  0.5530830000000  0.4159690000000 1.0
C      1  0.4696230000000  0.4367830000000  0.4153900000000 1.0
C      1  0.4707690000000  0.4006800000000  0.5354530000000 1.0
C      1  0.5947220000000  0.4751170000000  0.5363020000000 1.0
C      1  0.5874390000000  0.5227900000000  0.5705660000000 1.0
C      1  0.6020710000000  0.5509860000000  0.5038900000000 1.0
C      1  0.5931550000000  0.5232590000000  0.4374150000000 1.0
C      1  0.5835330000000  0.4377600000000  0.4473120000000 1.0
C      1  0.4480000000000  0.4247370000000  0.4396200000000 1.0
C      1  0.4518560000000  0.4246260000000  0.5527830000000 1.0
C      1  0.4461780000000  0.5294430000000  0.5919640000000 1.0
C      1  0.4480040000000  0.5934810000000  0.5020740000000 1.0
C      1  0.4498890000000  0.5287090000000  0.4115610000000 1.0
C      1  0.5548510000000  0.4101620000000  0.4434680000000 1.0
C      1  0.5599770000000  0.4306320000000  0.5607910000000 1.0
C      1  0.5483390000000  0.5392480000000  0.5861210000000 1.0
C      1  0.5577750000000  0.5924630000000  0.4962980000000 1.0
C      1  0.5634860000000  0.5214180000000  0.4091540000000 1.0
C      1  0.5143370000000  0.5991440000000  0.4940400000000 1.0
C      1  0.5176910000000  0.5270650000000  0.3922140000000 1.0
C      1  0.5161470000000  0.4060920000000  0.4344040000000 1.0
C      1  0.5168120000000  0.4206150000000  0.5642020000000 1.0
C      1  0.5128660000000  0.5415870000000  0.6041580000000 1.0
C      1  0.4949380000000  0.3916920000000  0.4870810000000 1.0
C      1  0.4914970000000  0.4587950000000  0.6051270000000 1.0
C      1  0.4926120000000  0.5838640000000  0.5736460000000 1.0
C      1  0.4957600000000  0.5924650000000  0.4449620000000 1.0
C      1  0.4940890000000  0.4757350000000  0.3865020000000 1.0
C      1  0.4848960000000  0.5105720000000  0.4321380000000 1.0
C      1  0.4912370000000  0.4399930000000  0.4643670000000 1.0
C      1  0.4861090000000  0.4447010000000  0.5558970000000 1.0
C      1  0.4808520000000  0.5357300000000  0.5730460000000 1.0
C      1  0.4821310000000  0.5758000000000  0.4916050000000 1.0
C      1  0.5501330000000  0.6030680000000  0.5224710000000 1.0
C      1  0.5523260000000  0.5491760000000  0.4168350000000 1.0
C      1  0.5478750000000  0.4336860000000  0.4287840000000 1.0
C      1  0.5526730000000  0.4146390000000  0.5382310000000 1.0
C      1  0.5442540000000  0.5168770000000  0.6039050000000 1.0
C      1  0.4481550000000  0.5584980000000  0.5740420000000 1.0
C      1  0.4501150000000  0.5844250000000  0.4693160000000 1.0
C      1  0.4475580000000  0.4950050000000  0.4060940000000 1.0
C      1  0.4525320000000  0.4123240000000  0.4714270000000 1.0
C      1  0.4499980000000  0.4522880000000  0.5728970000000 1.0
C      1  0.3981330000000  0.4969160000000  0.5054650000000 1.0
C      1  0.4791100000000  0.5090400000000  0.5103510000000 1.0
C      1  0.5296580000000  0.5005020000000  0.5110550000000 1.0
C      1  0.5051390000000  0.4932700000000  0.5039240000000 1.0
END
