TITL C-2782225-7408-1362 -0.000753804112855163 125000 -374.756469849895 0 0 67 (C1) n - 1
REM
REM in /home/nfs/bkarasulu/CARBON/AIRSS/Generating-Clusters/REBO/Higher-Symm/SD-CG/HFTN-CG
REM
REM
REM
REM
REM
REM ./C.cell (12c818d87b63d06a65506943cc24bca4)
REM
REM compiler GCC version 9.2.1 20190827 (Red Hat 9.2.1-1)
REM options -cpp -mtune=generic -march=x86-64 -g -O0 -fpre-include=/usr/include/finclude/math-vector-fortran.h
REM seed 59661843 -524989209 663536157 -1097273816 -63915123 -1687515725 1413995546 246352699 -2035957516 -145848381 303852994 1973322290 1271759141 -318030362 825254105 140570509 1460031648 -2142048546 -2109901347 -2012820757 511319607 -1583137889 -1926994082 -646682869 1929171906 -32178197 -1705644448 -1712495098 995142935 -1582591489 99489072 708222718 -1782421207
REM
CELL 1.54180   50.00000   50.00000   50.00000   90.00000   90.00000   90.00000
LATT -1
SFAC C  
C      1  0.4889690000000  0.5666980000000  0.5018170000000 1.0
C      1  0.4350150000000  0.4567550000000  0.4999040000000 1.0
C      1  0.5614220000000  0.4750140000000  0.5043750000000 1.0
C      1  0.5231900000000  0.4480670000000  0.5533600000000 1.0
C      1  0.5363030000000  0.5481490000000  0.5569410000000 1.0
C      1  0.4467160000000  0.5106310000000  0.5515740000000 1.0
C      1  0.5091060000000  0.5162800000000  0.4239980000000 1.0
C      1  0.4815650000000  0.4965490000000  0.4222080000000 1.0
C      1  0.5126700000000  0.4821410000000  0.4242450000000 1.0
C      1  0.5147350000000  0.4809570000000  0.4811000000000 1.0
C      1  0.5157560000000  0.5342170000000  0.4768760000000 1.0
C      1  0.4646130000000  0.4947020000000  0.4762000000000 1.0
C      1  0.5321860000000  0.4376890000000  0.4955150000000 1.0
C      1  0.5343310000000  0.5672160000000  0.4936500000000 1.0
C      1  0.4307840000000  0.5035180000000  0.4951720000000 1.0
C      1  0.5026470000000  0.4541410000000  0.4957820000000 1.0
C      1  0.5400370000000  0.5342620000000  0.5003760000000 1.0
C      1  0.4602240000000  0.5210310000000  0.4937270000000 1.0
C      1  0.4928970000000  0.5090430000000  0.5795960000000 1.0
C      1  0.4996250000000  0.4792210000000  0.5648250000000 1.0
C      1  0.5242030000000  0.5101920000000  0.5656100000000 1.0
C      1  0.4893810000000  0.4451590000000  0.4572610000000 1.0
C      1  0.5526290000000  0.5191780000000  0.4554140000000 1.0
C      1  0.4573910000000  0.5352370000000  0.4529770000000 1.0
C      1  0.4937330000000  0.5227970000000  0.5001900000000 1.0
C      1  0.4768500000000  0.4761490000000  0.5000780000000 1.0
C      1  0.5226590000000  0.5046120000000  0.5023280000000 1.0
C      1  0.4501770000000  0.5528310000000  0.4716530000000 1.0
C      1  0.4732620000000  0.4318020000000  0.4742620000000 1.0
C      1  0.5704780000000  0.5159060000000  0.4749410000000 1.0
C      1  0.5522690000000  0.4552870000000  0.4838500000000 1.0
C      1  0.5087370000000  0.5731810000000  0.4817980000000 1.0
C      1  0.4289220000000  0.4777270000000  0.4811200000000 1.0
C      1  0.4517200000000  0.4358160000000  0.4905780000000 1.0
C      1  0.5736750000000  0.4986020000000  0.4956920000000 1.0
C      1  0.4623450000000  0.5643790000000  0.4930850000000 1.0
C      1  0.5449900000000  0.4664160000000  0.4595080000000 1.0
C      1  0.5045890000000  0.5578580000000  0.4549370000000 1.0
C      1  0.4456840000000  0.4761290000000  0.4547100000000 1.0
C      1  0.5395660000000  0.4319690000000  0.5280440000000 1.0
C      1  0.5349580000000  0.5637670000000  0.5266960000000 1.0
C      1  0.4238100000000  0.5018020000000  0.5278880000000 1.0
C      1  0.4676480000000  0.4917150000000  0.5653120000000 1.0
C      1  0.5337110000000  0.4773930000000  0.5668560000000 1.0
C      1  0.5075640000000  0.5390250000000  0.5724550000000 1.0
C      1  0.5179190000000  0.5265840000000  0.5360770000000 1.0
C      1  0.4629180000000  0.4940930000000  0.5254970000000 1.0
C      1  0.5122540000000  0.4760370000000  0.5333950000000 1.0
C      1  0.5061320000000  0.4375370000000  0.5254410000000 1.0
C      1  0.5556620000000  0.5376910000000  0.5305140000000 1.0
C      1  0.4438210000000  0.5288640000000  0.5224910000000 1.0
C      1  0.4882610000000  0.5286940000000  0.4484640000000 1.0
C      1  0.4785970000000  0.4727390000000  0.4463670000000 1.0
C      1  0.5326020000000  0.4957550000000  0.4489040000000 1.0
C      1  0.5401470000000  0.4656940000000  0.5224310000000 1.0
C      1  0.5031330000000  0.5542590000000  0.5229520000000 1.0
C      1  0.4378460000000  0.4709870000000  0.5246060000000 1.0
C      1  0.5271430000000  0.5349570000000  0.4443580000000 1.0
C      1  0.4565140000000  0.5052580000000  0.4435070000000 1.0
C      1  0.5158590000000  0.4601820000000  0.4502700000000 1.0
C      1  0.4767490000000  0.5250150000000  0.5295910000000 1.0
C      1  0.4825080000000  0.4597800000000  0.5295320000000 1.0
C      1  0.5445180000000  0.5064880000000  0.5284580000000 1.0
C      1  0.4838920000000  0.5380500000000  0.5536580000000 1.0
C      1  0.4651130000000  0.4641380000000  0.5518680000000 1.0
C      1  0.5549580000000  0.4904270000000  0.5497590000000 1.0
C      1  0.4992690000000  0.4978250000000  0.4578320000000 1.0
END
