TITL C-2782225-7408-1331 0.00153629244695164 125000 -287.526343520492 0 0 51 (C1) n - 1
REM
REM in /home/nfs/bkarasulu/CARBON/AIRSS/Generating-Clusters/REBO/Higher-Symm/SD-CG/HFTN-CG
REM
REM
REM
REM
REM
REM ./C.cell (12c818d87b63d06a65506943cc24bca4)
REM
REM compiler GCC version 9.2.1 20190827 (Red Hat 9.2.1-1)
REM options -cpp -mtune=generic -march=x86-64 -g -O0 -fpre-include=/usr/include/finclude/math-vector-fortran.h
REM seed 1099686176 -457767806 -866851321 -1422553559 -819510161 -700837925 -905349617 232723151 250439947 -1103807681 585407951 -1089169113 582462176 518938140 -1036844448 -1068726304 -1389843480 -316488511 274746328 -1725572785 1761404397 -649648873 -1167767039 47829219 1999220350 16698280 1259514893 24424044 446575612 -550650358 1745909156 -276597023 1074531382
REM
CELL 1.54180   50.00000   50.00000   50.00000   90.00000   90.00000   90.00000
LATT -1
SFAC C  
C      1  0.4424120000000  0.5252610000000  0.4921650000000 1.0
C      1  0.4383280000000  0.4731000000000  0.5016860000000 1.0
C      1  0.5425880000000  0.5196180000000  0.5021910000000 1.0
C      1  0.5448220000000  0.4739630000000  0.4982100000000 1.0
C      1  0.4417750000000  0.4997490000000  0.5227010000000 1.0
C      1  0.4412690000000  0.4986790000000  0.4712460000000 1.0
C      1  0.5509130000000  0.4996600000000  0.5278700000000 1.0
C      1  0.5481710000000  0.4946220000000  0.4719170000000 1.0
C      1  0.4949670000000  0.4703540000000  0.5443890000000 1.0
C      1  0.4857580000000  0.5256230000000  0.4437820000000 1.0
C      1  0.5214800000000  0.4709990000000  0.4502590000000 1.0
C      1  0.5233210000000  0.5306710000000  0.5586270000000 1.0
C      1  0.4925060000000  0.5467780000000  0.4614160000000 1.0
C      1  0.4944310000000  0.4528200000000  0.5211730000000 1.0
C      1  0.5221860000000  0.4517570000000  0.4714600000000 1.0
C      1  0.5252840000000  0.5514040000000  0.5393390000000 1.0
C      1  0.5183660000000  0.5456990000000  0.4802150000000 1.0
C      1  0.5348640000000  0.4583560000000  0.5334600000000 1.0
C      1  0.4809380000000  0.5434400000000  0.5220520000000 1.0
C      1  0.4730560000000  0.4489880000000  0.4720630000000 1.0
C      1  0.5321050000000  0.4786160000000  0.5560370000000 1.0
C      1  0.5230370000000  0.5214270000000  0.4564190000000 1.0
C      1  0.4809720000000  0.5222220000000  0.5487200000000 1.0
C      1  0.4720090000000  0.4785880000000  0.4555700000000 1.0
C      1  0.5506070000000  0.4437650000000  0.5115400000000 1.0
C      1  0.5463140000000  0.5501810000000  0.4977520000000 1.0
C      1  0.4538320000000  0.4468090000000  0.4944480000000 1.0
C      1  0.4598060000000  0.5516560000000  0.4968710000000 1.0
C      1  0.5503040000000  0.5079970000000  0.4420050000000 1.0
C      1  0.5560970000000  0.4978930000000  0.5589360000000 1.0
C      1  0.4490240000000  0.4973030000000  0.4409980000000 1.0
C      1  0.4587450000000  0.5021080000000  0.5487310000000 1.0
C      1  0.5456660000000  0.5637930000000  0.5215420000000 1.0
C      1  0.5443170000000  0.4372810000000  0.4825840000000 1.0
C      1  0.4715010000000  0.5615070000000  0.4739680000000 1.0
C      1  0.4686640000000  0.4373670000000  0.5172360000000 1.0
C      1  0.5480950000000  0.5224580000000  0.5714150000000 1.0
C      1  0.5442330000000  0.4798970000000  0.4350110000000 1.0
C      1  0.4688990000000  0.4766370000000  0.5570830000000 1.0
C      1  0.4608170000000  0.5201950000000  0.4308940000000 1.0
C      1  0.4986200000000  0.4496520000000  0.4880520000000 1.0
C      1  0.5094360000000  0.5492010000000  0.5130160000000 1.0
C      1  0.5005310000000  0.4957850000000  0.4508890000000 1.0
C      1  0.5070530000000  0.5014090000000  0.5525620000000 1.0
C      1  0.5207970000000  0.4856130000000  0.5185530000000 1.0
C      1  0.5183870000000  0.5062830000000  0.4850070000000 1.0
C      1  0.4688970000000  0.5161170000000  0.5116410000000 1.0
C      1  0.4674350000000  0.4845790000000  0.4880230000000 1.0
C      1  0.5689860000000  0.4980930000000  0.4988750000000 1.0
C      1  0.4191370000000  0.5008820000000  0.4971750000000 1.0
C      1  0.4935990000000  0.4962570000000  0.5025610000000 1.0
END
