TITL C-2782227-3064-1031 -4.49328975247745e-07 125000 -101.157804262284 0 0 18 (Td) n - 1
REM
REM in /home/nfs/bkarasulu/CARBON/AIRSS/Generating-Clusters/REBO/Higher-Symm/SD-CG/HFTN-CG
REM
REM
REM
REM
REM
REM ./C.cell (12c818d87b63d06a65506943cc24bca4)
REM
REM compiler GCC version 9.2.1 20190827 (Red Hat 9.2.1-1)
REM options -cpp -mtune=generic -march=x86-64 -g -O0 -fpre-include=/usr/include/finclude/math-vector-fortran.h
REM seed -234265555 -576039010 -1015101113 999885601 -364347867 1599034607 1058740552 -529030757 1444377489 1711748969 -317197092 1531305222 -1797009414 446949597 953453650 731708608 1969262874 -1541308361 626273430 -1277386414 -1177364816 38548212 -377595710 872524509 790509244 -2025977163 1907369268 214801228 -645772696 -710741005 -2079076237 -637199495 47093028
REM
CELL 1.54180   50.00000   50.00000   50.00000   90.00000   90.00000   90.00000
LATT -1
SFAC C  
C      1  0.5180740000000  0.4788050000000  0.4612470000000 1.0
C      1  0.4611400000000  0.5196350000000  0.4836910000000 1.0
C      1  0.4814580000000  0.4604350000000  0.5223550000000 1.0
C      1  0.5217870000000  0.5187070000000  0.5421150000000 1.0
C      1  0.4835850000000  0.5173910000000  0.4603560000000 1.0
C      1  0.4832050000000  0.4842720000000  0.5443120000000 1.0
C      1  0.4598330000000  0.4846300000000  0.5217970000000 1.0
C      1  0.5414470000000  0.4784470000000  0.4837630000000 1.0
C      1  0.5442320000000  0.5164620000000  0.5187800000000 1.0
C      1  0.4853320000000  0.5412270000000  0.4823130000000 1.0
C      1  0.5226060000000  0.5406560000000  0.5182220000000 1.0
C      1  0.5172550000000  0.4568560000000  0.4851400000000 1.0
C      1  0.5045190000000  0.5507630000000  0.4998520000000 1.0
C      1  0.5026950000000  0.5018940000000  0.5530490000000 1.0
C      1  0.5526670000000  0.4968960000000  0.5010960000000 1.0
C      1  0.4988060000000  0.4488250000000  0.5041630000000 1.0
C      1  0.5006310000000  0.4976930000000  0.4509670000000 1.0
C      1  0.4506590000000  0.5026910000000  0.5029190000000 1.0
END
