TITL C-2782237-5345-1286 0.2964375136818 125000 -689.694473838773 0 0 117 (C1) n - 1
REM
REM in /home/nfs/bkarasulu/CARBON/AIRSS/Generating-Clusters/REBO/Higher-Symm/SD-CG/HFTN-CG
REM
REM
REM
REM
REM
REM ./C.cell (12c818d87b63d06a65506943cc24bca4)
REM
REM compiler GCC version 9.2.1 20190827 (Red Hat 9.2.1-1)
REM options -cpp -mtune=generic -march=x86-64 -g -O0 -fpre-include=/usr/include/finclude/math-vector-fortran.h
REM seed 375603855 1185834024 1501214412 1014177076 308479548 1101409446 -1507679084 -1368231361 2005456899 1883104281 -568532858 -1214336970 1486830805 -1309482063 247179538 1473439482 -594633051 -1161283704 -1435311366 2006109689 -1326748501 1565983680 -615558951 -707736854 657526514 193882445 -831885653 1516045836 -522744120 314822629 -483002547 1261145456 -1532188464
REM
CELL 1.54180   50.00000   50.00000   50.00000   90.00000   90.00000   90.00000
LATT -1
SFAC C  
C      1  0.4923010000000  0.5092840000000  0.3996830000000 1.0
C      1  0.5792730000000  0.5067070000000  0.4517390000000 1.0
C      1  0.5514280000000  0.5086510000000  0.5824890000000 1.0
C      1  0.4562400000000  0.5058340000000  0.5876490000000 1.0
C      1  0.3802300000000  0.5243350000000  0.4874790000000 1.0
C      1  0.4236000000000  0.4663170000000  0.4952960000000 1.0
C      1  0.4810610000000  0.4747270000000  0.4246200000000 1.0
C      1  0.5700480000000  0.4666600000000  0.4589110000000 1.0
C      1  0.5759540000000  0.4650070000000  0.5432150000000 1.0
C      1  0.4759200000000  0.4554820000000  0.5765190000000 1.0
C      1  0.3589950000000  0.5097970000000  0.4825270000000 1.0
C      1  0.5164770000000  0.4947630000000  0.4068390000000 1.0
C      1  0.5887270000000  0.5030430000000  0.4778360000000 1.0
C      1  0.5260710000000  0.5045510000000  0.5917250000000 1.0
C      1  0.4421910000000  0.4979490000000  0.5641950000000 1.0
C      1  0.5729310000000  0.5336180000000  0.4442630000000 1.0
C      1  0.5518700000000  0.5279750000000  0.5588010000000 1.0
C      1  0.4633540000000  0.5339160000000  0.5875950000000 1.0
C      1  0.4026100000000  0.5396580000000  0.4926970000000 1.0
C      1  0.4807160000000  0.5321140000000  0.4106970000000 1.0
C      1  0.5676060000000  0.4383590000000  0.4602010000000 1.0
C      1  0.5670700000000  0.4387060000000  0.5495380000000 1.0
C      1  0.4764900000000  0.4321370000000  0.5629510000000 1.0
C      1  0.4246380000000  0.4351800000000  0.4974060000000 1.0
C      1  0.4765970000000  0.4466430000000  0.4264200000000 1.0
C      1  0.5082240000000  0.5232900000000  0.5290110000000 1.0
C      1  0.4801080000000  0.5279830000000  0.5123740000000 1.0
C      1  0.4924130000000  0.5157920000000  0.4833810000000 1.0
C      1  0.5217860000000  0.5266070000000  0.4753610000000 1.0
C      1  0.5326270000000  0.5288660000000  0.5072200000000 1.0
C      1  0.4909740000000  0.4849420000000  0.4877390000000 1.0
C      1  0.5117740000000  0.4709240000000  0.4674960000000 1.0
C      1  0.5332120000000  0.4622190000000  0.4920290000000 1.0
C      1  0.5222420000000  0.4656980000000  0.5218790000000 1.0
C      1  0.4966360000000  0.4803290000000  0.5163260000000 1.0
C      1  0.5486950000000  0.5116650000000  0.5307250000000 1.0
C      1  0.4867750000000  0.4985730000000  0.5386060000000 1.0
C      1  0.4570070000000  0.5082730000000  0.5000810000000 1.0
C      1  0.4920460000000  0.5149600000000  0.4512860000000 1.0
C      1  0.5416520000000  0.5045850000000  0.4662510000000 1.0
C      1  0.4557330000000  0.5445050000000  0.4299830000000 1.0
C      1  0.5720360000000  0.5403460000000  0.4178140000000 1.0
C      1  0.5614530000000  0.5490630000000  0.5356700000000 1.0
C      1  0.5091320000000  0.5638390000000  0.5843150000000 1.0
C      1  0.4205330000000  0.5388230000000  0.5156270000000 1.0
C      1  0.4177700000000  0.4839830000000  0.5234610000000 1.0
C      1  0.4566870000000  0.4905520000000  0.4270600000000 1.0
C      1  0.5678270000000  0.4819800000000  0.4312840000000 1.0
C      1  0.5914560000000  0.4848690000000  0.5259330000000 1.0
C      1  0.4781360000000  0.4847900000000  0.5938930000000 1.0
C      1  0.4903090000000  0.5411120000000  0.5972440000000 1.0
C      1  0.4320850000000  0.5118850000000  0.5204180000000 1.0
C      1  0.4629050000000  0.5162470000000  0.4427740000000 1.0
C      1  0.5421720000000  0.5029850000000  0.4358310000000 1.0
C      1  0.5789340000000  0.5105210000000  0.5228010000000 1.0
C      1  0.5238780000000  0.5740580000000  0.4572550000000 1.0
C      1  0.5460870000000  0.5681570000000  0.5120010000000 1.0
C      1  0.5018910000000  0.5702700000000  0.5515700000000 1.0
C      1  0.4434970000000  0.5640020000000  0.5166410000000 1.0
C      1  0.4632960000000  0.5685690000000  0.4562570000000 1.0
C      1  0.5519050000000  0.5766390000000  0.4568600000000 1.0
C      1  0.5503210000000  0.5786520000000  0.5441080000000 1.0
C      1  0.4740320000000  0.5741870000000  0.5665780000000 1.0
C      1  0.4273180000000  0.5774210000000  0.4919500000000 1.0
C      1  0.4805090000000  0.5755370000000  0.4313430000000 1.0
C      1  0.5448690000000  0.4300010000000  0.5350160000000 1.0
C      1  0.4912690000000  0.4290920000000  0.5397080000000 1.0
C      1  0.4475160000000  0.4201960000000  0.4982340000000 1.0
C      1  0.4680050000000  0.4384470000000  0.4517150000000 1.0
C      1  0.5454310000000  0.4288090000000  0.4739910000000 1.0
C      1  0.5150870000000  0.4584830000000  0.5689910000000 1.0
C      1  0.4619540000000  0.4558780000000  0.5267450000000 1.0
C      1  0.4417030000000  0.4790440000000  0.4711240000000 1.0
C      1  0.5229610000000  0.4466010000000  0.4311120000000 1.0
C      1  0.5708580000000  0.4584340000000  0.5043660000000 1.0
C      1  0.4766110000000  0.4318930000000  0.5116180000000 1.0
C      1  0.4697730000000  0.4638790000000  0.4742280000000 1.0
C      1  0.5190850000000  0.4391590000000  0.4626120000000 1.0
C      1  0.5483500000000  0.4346510000000  0.5050910000000 1.0
C      1  0.5180540000000  0.4432570000000  0.5430070000000 1.0
C      1  0.5652780000000  0.5527540000000  0.4639090000000 1.0
C      1  0.5374820000000  0.5583170000000  0.5659990000000 1.0
C      1  0.4584410000000  0.5513480000000  0.5648090000000 1.0
C      1  0.4172460000000  0.5574240000000  0.4750690000000 1.0
C      1  0.4958540000000  0.5536250000000  0.4245030000000 1.0
C      1  0.4582840000000  0.5093770000000  0.5400150000000 1.0
C      1  0.4470630000000  0.5126740000000  0.4707030000000 1.0
C      1  0.5168070000000  0.5199590000000  0.4293770000000 1.0
C      1  0.5814390000000  0.5225380000000  0.4974760000000 1.0
C      1  0.5092380000000  0.5242010000000  0.5814700000000 1.0
C      1  0.4726300000000  0.5746310000000  0.5088080000000 1.0
C      1  0.4782910000000  0.5770390000000  0.4807040000000 1.0
C      1  0.5073260000000  0.5817470000000  0.4785020000000 1.0
C      1  0.5187300000000  0.5789110000000  0.5045440000000 1.0
C      1  0.4974130000000  0.5769750000000  0.5230580000000 1.0
C      1  0.4399420000000  0.5441080000000  0.4598330000000 1.0
C      1  0.5163550000000  0.5464310000000  0.4482240000000 1.0
C      1  0.5597040000000  0.5437900000000  0.4924580000000 1.0
C      1  0.5135670000000  0.5384140000000  0.5540080000000 1.0
C      1  0.4577840000000  0.5413100000000  0.5347810000000 1.0
C      1  0.5966850000000  0.4454450000000  0.4879100000000 1.0
C      1  0.5239400000000  0.4481630000000  0.5982240000000 1.0
C      1  0.4454450000000  0.4529660000000  0.5488940000000 1.0
C      1  0.4134870000000  0.4634430000000  0.4299200000000 1.0
C      1  0.5139290000000  0.4293260000000  0.4130520000000 1.0
C      1  0.5526490000000  0.4807820000000  0.4768290000000 1.0
C      1  0.5519380000000  0.4794730000000  0.5237620000000 1.0
C      1  0.4921800000000  0.4822980000000  0.5630060000000 1.0
C      1  0.4512180000000  0.4784710000000  0.5098640000000 1.0
C      1  0.5012400000000  0.4855930000000  0.4424440000000 1.0
C      1  0.5115380000000  0.4793690000000  0.5975560000000 1.0
C      1  0.4279140000000  0.4755160000000  0.5523930000000 1.0
C      1  0.4349380000000  0.4769530000000  0.4403900000000 1.0
C      1  0.5364710000000  0.4724670000000  0.4215260000000 1.0
C      1  0.5964560000000  0.4782390000000  0.4938330000000 1.0
C      1  0.4928080000000  0.4393310000000  0.4826520000000 1.0
C      1  0.4667800000000  0.4186600000000  0.4753450000000 1.0
END
