TITL C-2782228-2999-414 0.00371305515870604 125000 -139.516098917982 0 0 24 (C1) n - 1
REM
REM in /home/nfs/bkarasulu/CARBON/AIRSS/Generating-Clusters/REBO/Higher-Symm/SD-CG/HFTN-CG
REM
REM
REM
REM
REM
REM ./C.cell (12c818d87b63d06a65506943cc24bca4)
REM
REM compiler GCC version 9.2.1 20190827 (Red Hat 9.2.1-1)
REM options -cpp -mtune=generic -march=x86-64 -g -O0 -fpre-include=/usr/include/finclude/math-vector-fortran.h
REM seed 849284909 -2132756099 -622022441 313150052 1346694825 1812111863 -218811354 1383722373 -353052948 310787857 -141822919 -2061301371 121646264 -773265836 600793782 323668962 -1770112645 1144180920 -1947434883 18478125 -1302594056 1710290982 -1844957358 1217060607 927611362 -1355662242 -714387466 1745185665 -790423807 1112757831 -243833566 1705824466 -1347868475
REM
CELL 1.54180   50.00000   50.00000   50.00000   90.00000   90.00000   90.00000
LATT -1
SFAC C  
C      1  0.5318440000000  0.5259050000000  0.5089610000000 1.0
C      1  0.4947400000000  0.5202360000000  0.5407930000000 1.0
C      1  0.4552780000000  0.5173500000000  0.5113630000000 1.0
C      1  0.4736570000000  0.5203960000000  0.4651400000000 1.0
C      1  0.5220530000000  0.5282470000000  0.4705520000000 1.0
C      1  0.4591380000000  0.4656150000000  0.5125080000000 1.0
C      1  0.4976520000000  0.4687640000000  0.5421470000000 1.0
C      1  0.5300150000000  0.4673880000000  0.5055040000000 1.0
C      1  0.5267640000000  0.4678930000000  0.4659550000000 1.0
C      1  0.4876690000000  0.4668690000000  0.4727850000000 1.0
C      1  0.5191650000000  0.5100670000000  0.5292900000000 1.0
C      1  0.4698350000000  0.5074110000000  0.5341600000000 1.0
C      1  0.4599530000000  0.5056900000000  0.4854600000000 1.0
C      1  0.5005110000000  0.5137780000000  0.4577170000000 1.0
C      1  0.5451630000000  0.5111310000000  0.4846880000000 1.0
C      1  0.4714040000000  0.4782030000000  0.5352280000000 1.0
C      1  0.5199050000000  0.4808450000000  0.5284470000000 1.0
C      1  0.5464050000000  0.4827980000000  0.4842470000000 1.0
C      1  0.5043270000000  0.4854070000000  0.4542770000000 1.0
C      1  0.4651330000000  0.4769910000000  0.4868110000000 1.0
C      1  0.5057640000000  0.4210750000000  0.4934580000000 1.0
C      1  0.5035240000000  0.5720460000000  0.4987760000000 1.0
C      1  0.5101080000000  0.4472990000000  0.4875170000000 1.0
C      1  0.5168140000000  0.5495250000000  0.4939480000000 1.0
END
