TITL C-2782228-2999-1144 -0.439147633318288 125000 -766.434766457595 0 0 131 (C1) n - 1
REM
REM in /home/nfs/bkarasulu/CARBON/AIRSS/Generating-Clusters/REBO/Higher-Symm/SD-CG/HFTN-CG
REM
REM
REM
REM
REM
REM ./C.cell (12c818d87b63d06a65506943cc24bca4)
REM
REM compiler GCC version 9.2.1 20190827 (Red Hat 9.2.1-1)
REM options -cpp -mtune=generic -march=x86-64 -g -O0 -fpre-include=/usr/include/finclude/math-vector-fortran.h
REM seed -1614603315 74394579 -1228747760 -2124460946 1768202055 -1885678674 -433673098 973113263 -1531695243 -1674995826 -1137471661 708493439 -656831096 -713567463 -1485346044 -2008400985 1115122785 632989986 -1753042165 -804948377 1383829103 491276956 1851734510 -1717658995 -1062078933 1556884526 470870392 1255318872 -1578507373 1435308833 -1783534860 1552105512 -1929495442
REM
CELL 1.54180   50.00000   50.00000   50.00000   90.00000   90.00000   90.00000
LATT -1
SFAC C  
C      1  0.4866370000000  0.5248540000000  0.4079320000000 1.0
C      1  0.5140450000000  0.4738650000000  0.4004570000000 1.0
C      1  0.4801700000000  0.5207390000000  0.5869760000000 1.0
C      1  0.5202750000000  0.4783380000000  0.5944240000000 1.0
C      1  0.4687110000000  0.5849480000000  0.4540960000000 1.0
C      1  0.5403950000000  0.4209240000000  0.4527330000000 1.0
C      1  0.4581640000000  0.5860560000000  0.5451500000000 1.0
C      1  0.5464840000000  0.4224200000000  0.5449790000000 1.0
C      1  0.4544320000000  0.5286290000000  0.5801650000000 1.0
C      1  0.5467500000000  0.4696030000000  0.5926780000000 1.0
C      1  0.4617030000000  0.5363070000000  0.4130310000000 1.0
C      1  0.5377970000000  0.4691850000000  0.4165610000000 1.0
C      1  0.4578470000000  0.4467800000000  0.4282750000000 1.0
C      1  0.5452770000000  0.5516530000000  0.4290770000000 1.0
C      1  0.4636270000000  0.4482810000000  0.5737890000000 1.0
C      1  0.5386660000000  0.5520740000000  0.5752790000000 1.0
C      1  0.4518980000000  0.4772750000000  0.4869920000000 1.0
C      1  0.5354330000000  0.5230910000000  0.4884980000000 1.0
C      1  0.4440880000000  0.4764340000000  0.5128670000000 1.0
C      1  0.5421890000000  0.5243550000000  0.5150790000000 1.0
C      1  0.4851080000000  0.5551480000000  0.5676110000000 1.0
C      1  0.5159770000000  0.4457230000000  0.5720800000000 1.0
C      1  0.5012820000000  0.5539310000000  0.4380420000000 1.0
C      1  0.5092030000000  0.4424230000000  0.4242500000000 1.0
C      1  0.5083730000000  0.4969110000000  0.4530470000000 1.0
C      1  0.4768420000000  0.5103720000000  0.4544530000000 1.0
C      1  0.5450070000000  0.4950080000000  0.5565010000000 1.0
C      1  0.4581290000000  0.5116460000000  0.5410430000000 1.0
C      1  0.4311290000000  0.5194540000000  0.4809690000000 1.0
C      1  0.5438250000000  0.4776210000000  0.4870690000000 1.0
C      1  0.4227830000000  0.5198720000000  0.5084380000000 1.0
C      1  0.5553270000000  0.4773840000000  0.5126650000000 1.0
C      1  0.3948090000000  0.4960740000000  0.4919890000000 1.0
C      1  0.5958050000000  0.4878920000000  0.4857100000000 1.0
C      1  0.3927670000000  0.4961250000000  0.5199460000000 1.0
C      1  0.5935760000000  0.4890420000000  0.5136630000000 1.0
C      1  0.5260620000000  0.4983600000000  0.4802910000000 1.0
C      1  0.4524760000000  0.5021650000000  0.4752840000000 1.0
C      1  0.5477750000000  0.5001220000000  0.5271920000000 1.0
C      1  0.4355030000000  0.5002470000000  0.5234330000000 1.0
C      1  0.4063330000000  0.4753940000000  0.4756140000000 1.0
C      1  0.5959500000000  0.5105900000000  0.4678760000000 1.0
C      1  0.4026080000000  0.4747570000000  0.5365030000000 1.0
C      1  0.5894600000000  0.5130610000000  0.5290860000000 1.0
C      1  0.5830670000000  0.5159370000000  0.4427610000000 1.0
C      1  0.4179980000000  0.4748160000000  0.4495750000000 1.0
C      1  0.5764810000000  0.5194630000000  0.5540420000000 1.0
C      1  0.4190600000000  0.4745450000000  0.5600590000000 1.0
C      1  0.5113570000000  0.5361050000000  0.4588120000000 1.0
C      1  0.4992140000000  0.4582400000000  0.4498260000000 1.0
C      1  0.5014420000000  0.5393090000000  0.5429840000000 1.0
C      1  0.4985430000000  0.4646530000000  0.5505180000000 1.0
C      1  0.5732270000000  0.5533730000000  0.4815640000000 1.0
C      1  0.4406940000000  0.4388990000000  0.4870020000000 1.0
C      1  0.5689720000000  0.5554940000000  0.5154080000000 1.0
C      1  0.4346130000000  0.4387890000000  0.5210550000000 1.0
C      1  0.5259140000000  0.5228440000000  0.5515040000000 1.0
C      1  0.4704920000000  0.4841360000000  0.5518600000000 1.0
C      1  0.5338020000000  0.5166840000000  0.4440840000000 1.0
C      1  0.4739770000000  0.4781950000000  0.4466690000000 1.0
C      1  0.5349320000000  0.4769030000000  0.4435380000000 1.0
C      1  0.4564390000000  0.5362740000000  0.4451230000000 1.0
C      1  0.5607190000000  0.4668550000000  0.5618990000000 1.0
C      1  0.4401520000000  0.5388110000000  0.5510070000000 1.0
C      1  0.5161290000000  0.5061460000000  0.5789680000000 1.0
C      1  0.4860090000000  0.4902950000000  0.5785320000000 1.0
C      1  0.5193000000000  0.5044730000000  0.4155970000000 1.0
C      1  0.4867530000000  0.4941170000000  0.4193590000000 1.0
C      1  0.5919810000000  0.5356580000000  0.5120310000000 1.0
C      1  0.4056910000000  0.4511810000000  0.5207360000000 1.0
C      1  0.5991180000000  0.5346260000000  0.4830170000000 1.0
C      1  0.4121470000000  0.4523760000000  0.4911920000000 1.0
C      1  0.4226980000000  0.5438350000000  0.5237320000000 1.0
C      1  0.5721710000000  0.4609620000000  0.5320430000000 1.0
C      1  0.4319820000000  0.5410600000000  0.4633120000000 1.0
C      1  0.5537120000000  0.4667740000000  0.4626750000000 1.0
C      1  0.4545680000000  0.5788720000000  0.5140220000000 1.0
C      1  0.5471100000000  0.4351450000000  0.5149980000000 1.0
C      1  0.4540580000000  0.5806790000000  0.4820960000000 1.0
C      1  0.5462290000000  0.4338920000000  0.4837440000000 1.0
C      1  0.5028170000000  0.3961390000000  0.5171090000000 1.0
C      1  0.5066110000000  0.6061470000000  0.5190990000000 1.0
C      1  0.5001660000000  0.3967990000000  0.4884580000000 1.0
C      1  0.5099540000000  0.6076480000000  0.4904100000000 1.0
C      1  0.4957270000000  0.4723090000000  0.4809280000000 1.0
C      1  0.4964610000000  0.5316320000000  0.4867720000000 1.0
C      1  0.4994180000000  0.4730400000000  0.5195190000000 1.0
C      1  0.4805290000000  0.5245200000000  0.5224000000000 1.0
C      1  0.5388510000000  0.5757080000000  0.5521180000000 1.0
C      1  0.4641910000000  0.4289580000000  0.5457710000000 1.0
C      1  0.5445620000000  0.5688500000000  0.4584870000000 1.0
C      1  0.4606520000000  0.4256690000000  0.4548780000000 1.0
C      1  0.4525870000000  0.4133410000000  0.5157760000000 1.0
C      1  0.5541750000000  0.5832480000000  0.5219400000000 1.0
C      1  0.4492410000000  0.4078530000000  0.4822390000000 1.0
C      1  0.5579690000000  0.5820590000000  0.4879870000000 1.0
C      1  0.5757690000000  0.4477430000000  0.4734650000000 1.0
C      1  0.4269050000000  0.5652520000000  0.4765430000000 1.0
C      1  0.5778940000000  0.4454050000000  0.5047120000000 1.0
C      1  0.4270350000000  0.5660970000000  0.5074760000000 1.0
C      1  0.5504990000000  0.5369920000000  0.4656790000000 1.0
C      1  0.4607270000000  0.4566600000000  0.4667510000000 1.0
C      1  0.5437370000000  0.5474260000000  0.5360030000000 1.0
C      1  0.4553770000000  0.4597680000000  0.5366140000000 1.0
C      1  0.5257900000000  0.5815110000000  0.4823360000000 1.0
C      1  0.4801980000000  0.4204730000000  0.4819610000000 1.0
C      1  0.5221040000000  0.5787240000000  0.5232170000000 1.0
C      1  0.4833040000000  0.4205280000000  0.5216910000000 1.0
C      1  0.5323940000000  0.4290740000000  0.4271140000000 1.0
C      1  0.4748770000000  0.5617800000000  0.4405950000000 1.0
C      1  0.5428420000000  0.4407280000000  0.5655150000000 1.0
C      1  0.4586580000000  0.5633070000000  0.5612140000000 1.0
C      1  0.5170600000000  0.4109320000000  0.4701650000000 1.0
C      1  0.4897310000000  0.5960400000000  0.4730960000000 1.0
C      1  0.5204820000000  0.4118970000000  0.5332830000000 1.0
C      1  0.4860880000000  0.5920560000000  0.5338150000000 1.0
C      1  0.4406340000000  0.4640660000000  0.5735470000000 1.0
C      1  0.5594290000000  0.5337730000000  0.5703760000000 1.0
C      1  0.4358410000000  0.4634000000000  0.4321810000000 1.0
C      1  0.5668510000000  0.5336730000000  0.4293310000000 1.0
C      1  0.4846160000000  0.4606890000000  0.4125810000000 1.0
C      1  0.5174410000000  0.5385080000000  0.4145400000000 1.0
C      1  0.4914810000000  0.4600780000000  0.5893580000000 1.0
C      1  0.5091740000000  0.5391080000000  0.5837570000000 1.0
C      1  0.5181060000000  0.4458840000000  0.5294140000000 1.0
C      1  0.4799120000000  0.5589740000000  0.5254410000000 1.0
C      1  0.5163570000000  0.4451520000000  0.4735660000000 1.0
C      1  0.4836150000000  0.5635940000000  0.4842780000000 1.0
C      1  0.4883150000000  0.4461590000000  0.5015980000000 1.0
C      1  0.5118400000000  0.5581490000000  0.5015350000000 1.0
C      1  0.4920710000000  0.5006050000000  0.5006170000000 1.0
END
