TITL C-2782235-7892-126 0.00538911837580516 125000 -382.450176288815 0 0 70 (C1) n - 1
REM
REM in /home/nfs/bkarasulu/CARBON/AIRSS/Generating-Clusters/REBO/Higher-Symm/SD-CG/HFTN-CG
REM
REM
REM
REM
REM
REM ./C.cell (12c818d87b63d06a65506943cc24bca4)
REM
REM compiler GCC version 9.2.1 20190827 (Red Hat 9.2.1-1)
REM options -cpp -mtune=generic -march=x86-64 -g -O0 -fpre-include=/usr/include/finclude/math-vector-fortran.h
REM seed 277471511 1624137943 -1948345617 1893833175 1480944836 586207203 1951062768 -88858654 -498022204 1626527316 936564851 -1854063470 784211159 1328565643 -631951801 -1140742334 836249840 -461583339 1043438106 -1866133544 -1218759486 2028935429 2059950982 -1778722078 -682608913 -452145243 -2107861889 757716006 142425857 -2123019438 -16739110 -2135299474 911340873
REM
CELL 1.54180   50.00000   50.00000   50.00000   90.00000   90.00000   90.00000
LATT -1
SFAC C  
C      1  0.5396710000000  0.4966850000000  0.4825220000000 1.0
C      1  0.5317000000000  0.5245240000000  0.4925590000000 1.0
C      1  0.5111510000000  0.5467690000000  0.4783510000000 1.0
C      1  0.4800760000000  0.5458120000000  0.4877110000000 1.0
C      1  0.4593910000000  0.5272190000000  0.5027770000000 1.0
C      1  0.4413170000000  0.5017070000000  0.4970850000000 1.0
C      1  0.4573480000000  0.4743240000000  0.4986700000000 1.0
C      1  0.4736600000000  0.4531510000000  0.4796970000000 1.0
C      1  0.5057670000000  0.4499750000000  0.4796080000000 1.0
C      1  0.5294660000000  0.4690470000000  0.4944130000000 1.0
C      1  0.4791630000000  0.5655210000000  0.5632110000000 1.0
C      1  0.4540940000000  0.5463370000000  0.5568880000000 1.0
C      1  0.4372490000000  0.4992320000000  0.5676110000000 1.0
C      1  0.4561700000000  0.4617630000000  0.5581270000000 1.0
C      1  0.4707380000000  0.4334250000000  0.5663060000000 1.0
C      1  0.5253500000000  0.4240640000000  0.5579440000000 1.0
C      1  0.5539610000000  0.4627430000000  0.5498330000000 1.0
C      1  0.5596900000000  0.5012340000000  0.5583430000000 1.0
C      1  0.5525060000000  0.5313370000000  0.5497660000000 1.0
C      1  0.5289970000000  0.5615480000000  0.5600780000000 1.0
C      1  0.5334320000000  0.5261120000000  0.5220090000000 1.0
C      1  0.5171320000000  0.5483590000000  0.5374150000000 1.0
C      1  0.4894490000000  0.5483270000000  0.5391660000000 1.0
C      1  0.4655170000000  0.5268410000000  0.5320430000000 1.0
C      1  0.4627980000000  0.4987160000000  0.5450510000000 1.0
C      1  0.4643440000000  0.4715320000000  0.5266330000000 1.0
C      1  0.4836390000000  0.4473010000000  0.5380490000000 1.0
C      1  0.5133520000000  0.4486210000000  0.5401790000000 1.0
C      1  0.5325560000000  0.4680040000000  0.5238960000000 1.0
C      1  0.5408520000000  0.4969720000000  0.5343550000000 1.0
C      1  0.5201150000000  0.5504150000000  0.5869570000000 1.0
C      1  0.4915040000000  0.5537640000000  0.5901560000000 1.0
C      1  0.4643890000000  0.5364130000000  0.5857240000000 1.0
C      1  0.4564930000000  0.5094520000000  0.5896620000000 1.0
C      1  0.4735460000000  0.4853530000000  0.5754140000000 1.0
C      1  0.4886350000000  0.4568810000000  0.5804870000000 1.0
C      1  0.5182800000000  0.4522010000000  0.5755130000000 1.0
C      1  0.5432580000000  0.4691490000000  0.5756120000000 1.0
C      1  0.5460980000000  0.4971580000000  0.5871050000000 1.0
C      1  0.5396830000000  0.5281210000000  0.5796140000000 1.0
C      1  0.4736840000000  0.5201910000000  0.3892360000000 1.0
C      1  0.4652040000000  0.4976910000000  0.4039120000000 1.0
C      1  0.4761930000000  0.4721390000000  0.3980530000000 1.0
C      1  0.4925650000000  0.4590350000000  0.4168630000000 1.0
C      1  0.5222820000000  0.4597150000000  0.4166720000000 1.0
C      1  0.5454750000000  0.4774280000000  0.4149810000000 1.0
C      1  0.5492750000000  0.5062840000000  0.4241010000000 1.0
C      1  0.5404800000000  0.5327570000000  0.4241590000000 1.0
C      1  0.5140740000000  0.5410810000000  0.4119370000000 1.0
C      1  0.4948630000000  0.5367270000000  0.3929230000000 1.0
C      1  0.4562550000000  0.4771420000000  0.4470490000000 1.0
C      1  0.4818980000000  0.4591800000000  0.4472420000000 1.0
C      1  0.5151660000000  0.4521110000000  0.4488800000000 1.0
C      1  0.5476540000000  0.4603630000000  0.4471960000000 1.0
C      1  0.5528260000000  0.4912260000000  0.4515470000000 1.0
C      1  0.5429770000000  0.5483440000000  0.4501020000000 1.0
C      1  0.5093820000000  0.5474830000000  0.4442260000000 1.0
C      1  0.4795970000000  0.5462330000000  0.4538610000000 1.0
C      1  0.4576340000000  0.5253450000000  0.4449730000000 1.0
C      1  0.4571240000000  0.5009340000000  0.4311480000000 1.0
C      1  0.5228660000000  0.5745620000000  0.4867030000000 1.0
C      1  0.4667430000000  0.5716830000000  0.4726470000000 1.0
C      1  0.4468150000000  0.5313130000000  0.4712450000000 1.0
C      1  0.4154610000000  0.5030630000000  0.4919760000000 1.0
C      1  0.4409100000000  0.4733880000000  0.4691840000000 1.0
C      1  0.4597590000000  0.4257150000000  0.4822720000000 1.0
C      1  0.5115260000000  0.4213810000000  0.4908150000000 1.0
C      1  0.5454460000000  0.4495950000000  0.4758120000000 1.0
C      1  0.5724400000000  0.4972640000000  0.4781730000000 1.0
C      1  0.5508950000000  0.5445190000000  0.4755740000000 1.0
END
