TITL C-2782235-7892-1383 0.00118514403103604 125000 -1075.69794748555 0 0 187 (C1) n - 1
REM
REM in /home/nfs/bkarasulu/CARBON/AIRSS/Generating-Clusters/REBO/Higher-Symm/SD-CG/HFTN-CG
REM
REM
REM
REM
REM
REM ./C.cell (12c818d87b63d06a65506943cc24bca4)
REM
REM compiler GCC version 9.2.1 20190827 (Red Hat 9.2.1-1)
REM options -cpp -mtune=generic -march=x86-64 -g -O0 -fpre-include=/usr/include/finclude/math-vector-fortran.h
REM seed -26809469 -292145849 1955128364 1725321981 -850070928 324163115 -230065462 -358232705 -1022344164 763173805 -1711983167 -132034192 683205939 1688922561 -12518869 2113676750 -985001253 1657945499 -921628808 -1890493708 1058445827 999539821 1723341446 885558975 -2082926064 1024817518 -2015564759 59708579 566113790 2069969920 1964584678 1153040160 -1760886204
REM
CELL 1.54180   50.00000   50.00000   50.00000   90.00000   90.00000   90.00000
LATT -1
SFAC C  
C      1  0.4405590000000  0.4863160000000  0.4227580000000 1.0
C      1  0.5120020000000  0.4365140000000  0.5748410000000 1.0
C      1  0.5568250000000  0.5139600000000  0.4252940000000 1.0
C      1  0.4943140000000  0.5592170000000  0.5618910000000 1.0
C      1  0.5351200000000  0.5313400000000  0.3898520000000 1.0
C      1  0.4818070000000  0.5446530000000  0.6042840000000 1.0
C      1  0.4620580000000  0.4673930000000  0.3940560000000 1.0
C      1  0.5271310000000  0.4562990000000  0.6060420000000 1.0
C      1  0.4395250000000  0.5681940000000  0.4824690000000 1.0
C      1  0.4308930000000  0.4321240000000  0.5196090000000 1.0
C      1  0.5690480000000  0.4294410000000  0.4802780000000 1.0
C      1  0.5685830000000  0.5658580000000  0.5210330000000 1.0
C      1  0.4333490000000  0.5570090000000  0.4525540000000 1.0
C      1  0.4401110000000  0.4330040000000  0.5524860000000 1.0
C      1  0.5685860000000  0.4429570000000  0.4551140000000 1.0
C      1  0.5586710000000  0.5735670000000  0.5526870000000 1.0
C      1  0.4854740000000  0.6061510000000  0.5514090000000 1.0
C      1  0.3941880000000  0.4788740000000  0.4465960000000 1.0
C      1  0.5207730000000  0.3900120000000  0.5438100000000 1.0
C      1  0.6024000000000  0.5226040000000  0.4527520000000 1.0
C      1  0.4627560000000  0.5192980000000  0.6089020000000 1.0
C      1  0.4913310000000  0.4677990000000  0.3822480000000 1.0
C      1  0.5267940000000  0.4829910000000  0.6199890000000 1.0
C      1  0.5068660000000  0.5275150000000  0.3784680000000 1.0
C      1  0.4768070000000  0.3971350000000  0.4436900000000 1.0
C      1  0.6055020000000  0.4683200000000  0.5584950000000 1.0
C      1  0.5343310000000  0.5989140000000  0.4352390000000 1.0
C      1  0.3901620000000  0.5305270000000  0.5487450000000 1.0
C      1  0.4741720000000  0.4024870000000  0.4942380000000 1.0
C      1  0.5974710000000  0.4743560000000  0.5071460000000 1.0
C      1  0.5291350000000  0.5948760000000  0.4942020000000 1.0
C      1  0.4040120000000  0.5205810000000  0.5020170000000 1.0
C      1  0.4665250000000  0.4596820000000  0.4448500000000 1.0
C      1  0.5373030000000  0.4709600000000  0.5577270000000 1.0
C      1  0.5287560000000  0.5390290000000  0.4388240000000 1.0
C      1  0.4673270000000  0.5311880000000  0.5526810000000 1.0
C      1  0.5242440000000  0.5788260000000  0.4102210000000 1.0
C      1  0.4324160000000  0.5333400000000  0.5808690000000 1.0
C      1  0.4725320000000  0.4180920000000  0.4167710000000 1.0
C      1  0.5790570000000  0.4674110000000  0.5804140000000 1.0
C      1  0.5708040000000  0.4367600000000  0.5263900000000 1.0
C      1  0.5739510000000  0.5897980000000  0.4734260000000 1.0
C      1  0.4276770000000  0.5547890000000  0.5287150000000 1.0
C      1  0.4348080000000  0.4204670000000  0.4699240000000 1.0
C      1  0.4616430000000  0.4765110000000  0.5161860000000 1.0
C      1  0.5198290000000  0.4742160000000  0.4778350000000 1.0
C      1  0.5384770000000  0.5156000000000  0.5334740000000 1.0
C      1  0.4715570000000  0.5406750000000  0.4840990000000 1.0
C      1  0.5295970000000  0.5112760000000  0.4584860000000 1.0
C      1  0.4983920000000  0.5270230000000  0.5385370000000 1.0
C      1  0.4635040000000  0.4907510000000  0.4563440000000 1.0
C      1  0.5086150000000  0.4621420000000  0.5443230000000 1.0
C      1  0.5649730000000  0.4996580000000  0.5581460000000 1.0
C      1  0.4969980000000  0.5600300000000  0.4507110000000 1.0
C      1  0.4410190000000  0.4866990000000  0.5486370000000 1.0
C      1  0.5015100000000  0.4444630000000  0.4555080000000 1.0
C      1  0.4704590000000  0.5379390000000  0.5152480000000 1.0
C      1  0.4537530000000  0.4670900000000  0.4860080000000 1.0
C      1  0.5286790000000  0.4634990000000  0.5103980000000 1.0
C      1  0.5328790000000  0.5442750000000  0.4794190000000 1.0
C      1  0.5348490000000  0.5514290000000  0.4105590000000 1.0
C      1  0.4609180000000  0.5470090000000  0.5801640000000 1.0
C      1  0.4594750000000  0.4487020000000  0.4167920000000 1.0
C      1  0.5469560000000  0.4571090000000  0.5849160000000 1.0
C      1  0.4224010000000  0.4824710000000  0.5739040000000 1.0
C      1  0.5206310000000  0.4278170000000  0.4355200000000 1.0
C      1  0.5803630000000  0.5237380000000  0.5757530000000 1.0
C      1  0.4777310000000  0.5768400000000  0.4301460000000 1.0
C      1  0.5422520000000  0.4757150000000  0.4456570000000 1.0
C      1  0.5314500000000  0.5447420000000  0.5597480000000 1.0
C      1  0.4570000000000  0.5268620000000  0.4413620000000 1.0
C      1  0.4718050000000  0.4576820000000  0.5628170000000 1.0
C      1  0.5721820000000  0.5245170000000  0.5368210000000 1.0
C      1  0.4721770000000  0.5692690000000  0.4719670000000 1.0
C      1  0.4323270000000  0.4649870000000  0.5269720000000 1.0
C      1  0.5271390000000  0.4412490000000  0.4744950000000 1.0
C      1  0.5470750000000  0.5015380000000  0.3952300000000 1.0
C      1  0.5093180000000  0.5372890000000  0.6095750000000 1.0
C      1  0.4505050000000  0.4988280000000  0.3927940000000 1.0
C      1  0.4978470000000  0.4430360000000  0.6043360000000 1.0
C      1  0.5377540000000  0.4310000000000  0.5573640000000 1.0
C      1  0.5685010000000  0.5403370000000  0.4413100000000 1.0
C      1  0.4639960000000  0.5706280000000  0.5574880000000 1.0
C      1  0.4276770000000  0.4596140000000  0.4365250000000 1.0
C      1  0.4692330000000  0.4505680000000  0.5324520000000 1.0
C      1  0.5526330000000  0.4709770000000  0.4783370000000 1.0
C      1  0.5406540000000  0.5475080000000  0.5290890000000 1.0
C      1  0.4472830000000  0.5264080000000  0.4739490000000 1.0
C      1  0.4821760000000  0.6053500000000  0.5199240000000 1.0
C      1  0.3977020000000  0.4736180000000  0.4777050000000 1.0
C      1  0.5231860000000  0.3952510000000  0.5122450000000 1.0
C      1  0.5991740000000  0.5272630000000  0.4842470000000 1.0
C      1  0.4011350000000  0.4863230000000  0.5475170000000 1.0
C      1  0.5179060000000  0.4082700000000  0.4660370000000 1.0
C      1  0.6006090000000  0.5135760000000  0.5471670000000 1.0
C      1  0.4895850000000  0.5992530000000  0.4528400000000 1.0
C      1  0.5329740000000  0.5624130000000  0.5038800000000 1.0
C      1  0.4379300000000  0.5170420000000  0.5055090000000 1.0
C      1  0.4719790000000  0.4354530000000  0.5019870000000 1.0
C      1  0.5652340000000  0.4783510000000  0.5091030000000 1.0
C      1  0.4774330000000  0.5191580000000  0.3909860000000 1.0
C      1  0.4766740000000  0.4886680000000  0.6074500000000 1.0
C      1  0.5213490000000  0.4792780000000  0.3935150000000 1.0
C      1  0.5073970000000  0.5078060000000  0.6140580000000 1.0
C      1  0.4193420000000  0.5282950000000  0.4543380000000 1.0
C      1  0.4694390000000  0.4181420000000  0.5437140000000 1.0
C      1  0.5799920000000  0.4728670000000  0.4577980000000 1.0
C      1  0.5336330000000  0.5886140000000  0.5495550000000 1.0
C      1  0.5021290000000  0.5622510000000  0.4974280000000 1.0
C      1  0.4303750000000  0.4887690000000  0.4949790000000 1.0
C      1  0.4991060000000  0.4505230000000  0.5014050000000 1.0
C      1  0.5549810000000  0.5068140000000  0.4981240000000 1.0
C      1  0.3921520000000  0.5086420000000  0.5309980000000 1.0
C      1  0.4913300000000  0.3967010000000  0.4684950000000 1.0
C      1  0.6075420000000  0.4873560000000  0.5369900000000 1.0
C      1  0.5161080000000  0.6031340000000  0.4638890000000 1.0
C      1  0.4717770000000  0.4999030000000  0.4261250000000 1.0
C      1  0.5013060000000  0.4689740000000  0.5748780000000 1.0
C      1  0.5254820000000  0.5006290000000  0.4284400000000 1.0
C      1  0.5028360000000  0.5295400000000  0.5710610000000 1.0
C      1  0.5793340000000  0.5541930000000  0.4906950000000 1.0
C      1  0.4580260000000  0.5854790000000  0.5055980000000 1.0
C      1  0.4157310000000  0.4492480000000  0.4942450000000 1.0
C      1  0.5457820000000  0.4092290000000  0.4895800000000 1.0
C      1  0.4047770000000  0.4761070000000  0.5108780000000 1.0
C      1  0.5202060000000  0.4256880000000  0.5018870000000 1.0
C      1  0.5744590000000  0.5269260000000  0.5077740000000 1.0
C      1  0.4878790000000  0.5893780000000  0.4913690000000 1.0
C      1  0.4532910000000  0.4193070000000  0.4445920000000 1.0
C      1  0.5825950000000  0.4465620000000  0.5532660000000 1.0
C      1  0.5592620000000  0.5849460000000  0.4515990000000 1.0
C      1  0.4194350000000  0.5384190000000  0.5533400000000 1.0
C      1  0.4519590000000  0.5295960000000  0.4080860000000 1.0
C      1  0.4698000000000  0.4601290000000  0.5973470000000 1.0
C      1  0.5473000000000  0.4716490000000  0.4120770000000 1.0
C      1  0.5314820000000  0.5456040000000  0.5938240000000 1.0
C      1  0.4944780000000  0.4810840000000  0.4127630000000 1.0
C      1  0.5169600000000  0.4900840000000  0.5872690000000 1.0
C      1  0.5038530000000  0.5195120000000  0.4115930000000 1.0
C      1  0.4827090000000  0.5101210000000  0.5827610000000 1.0
C      1  0.5606930000000  0.5488980000000  0.5762060000000 1.0
C      1  0.4539920000000  0.5577310000000  0.4274040000000 1.0
C      1  0.4421620000000  0.4563440000000  0.5772550000000 1.0
C      1  0.5455900000000  0.4444040000000  0.4323840000000 1.0
C      1  0.5427350000000  0.4422550000000  0.5304790000000 1.0
C      1  0.5582110000000  0.5479050000000  0.4664990000000 1.0
C      1  0.4560220000000  0.5637370000000  0.5289670000000 1.0
C      1  0.4333990000000  0.4517840000000  0.4656730000000 1.0
C      1  0.4023610000000  0.5070940000000  0.4737350000000 1.0
C      1  0.4913540000000  0.4055990000000  0.5205500000000 1.0
C      1  0.5890700000000  0.4948940000000  0.4816030000000 1.0
C      1  0.5130740000000  0.5915150000000  0.5222890000000 1.0
C      1  0.5831210000000  0.4435510000000  0.5019350000000 1.0
C      1  0.5615190000000  0.5892140000000  0.4978440000000 1.0
C      1  0.4184320000000  0.5515180000000  0.5020840000000 1.0
C      1  0.4413460000000  0.4109020000000  0.4968000000000 1.0
C      1  0.5329540000000  0.5035830000000  0.5642900000000 1.0
C      1  0.4977020000000  0.5285530000000  0.4419750000000 1.0
C      1  0.4702120000000  0.4980690000000  0.5553820000000 1.0
C      1  0.4966860000000  0.4735110000000  0.4429210000000 1.0
C      1  0.5026350000000  0.5312810000000  0.4831450000000 1.0
C      1  0.4747180000000  0.5041960000000  0.5161220000000 1.0
C      1  0.4866320000000  0.4757850000000  0.4852880000000 1.0
C      1  0.5275960000000  0.4959100000000  0.5105090000000 1.0
C      1  0.4969120000000  0.5812130000000  0.4052170000000 1.0
C      1  0.4256270000000  0.5083050000000  0.5916790000000 1.0
C      1  0.5047080000000  0.4175830000000  0.4138210000000 1.0
C      1  0.5834200000000  0.4970150000000  0.5932270000000 1.0
C      1  0.5980520000000  0.5467320000000  0.4364010000000 1.0
C      1  0.4601830000000  0.6016730000000  0.5651890000000 1.0
C      1  0.3990820000000  0.4551920000000  0.4297550000000 1.0
C      1  0.5425580000000  0.4025880000000  0.5577170000000 1.0
C      1  0.5044270000000  0.4333680000000  0.5358710000000 1.0
C      1  0.5590570000000  0.5080440000000  0.4676450000000 1.0
C      1  0.5027420000000  0.5596800000000  0.5297600000000 1.0
C      1  0.4322810000000  0.4915810000000  0.4629530000000 1.0
C      1  0.4413100000000  0.5180410000000  0.5364890000000 1.0
C      1  0.4715710000000  0.4361200000000  0.4681270000000 1.0
C      1  0.5652230000000  0.4734960000000  0.5407560000000 1.0
C      1  0.5292710000000  0.5688910000000  0.4485870000000 1.0
C      1  0.5062100000000  0.5887180000000  0.5614300000000 1.0
C      1  0.4142910000000  0.5013200000000  0.4361800000000 1.0
C      1  0.4982930000000  0.4096830000000  0.5594850000000 1.0
C      1  0.5813440000000  0.5018450000000  0.4431790000000 1.0
C      1  0.4964340000000  0.5016060000000  0.4574390000000 1.0
C      1  0.4975100000000  0.4923030000000  0.5374960000000 1.0
C      1  0.5016080000000  0.5041310000000  0.4969120000000 1.0
END
