TITL C-2782228-2999-1294 1.05332947350147e-07 125000 -93.1551999044732 0 0 16 (Td) n - 1
REM
REM in /home/nfs/bkarasulu/CARBON/AIRSS/Generating-Clusters/REBO/Higher-Symm/SD-CG/HFTN-CG
REM
REM
REM
REM
REM
REM ./C.cell (12c818d87b63d06a65506943cc24bca4)
REM
REM compiler GCC version 9.2.1 20190827 (Red Hat 9.2.1-1)
REM options -cpp -mtune=generic -march=x86-64 -g -O0 -fpre-include=/usr/include/finclude/math-vector-fortran.h
REM seed 1542163327 -478934322 -184763033 -1113832660 -1298894331 499690506 2085910689 -482130313 463203262 -1070861456 2030794607 -18004824 -175349623 -722032458 -405692507 1818176387 -710457643 -564222755 -1783588906 -1524954812 -1568287068 -1130185584 -1138913396 -789932271 -710755752 1849142562 1561237678 368625580 -1136836723 1194052429 -1862672002 -535308803 -945959245
REM
CELL 1.54180   50.00000   50.00000   50.00000   90.00000   90.00000   90.00000
LATT -1
SFAC C  
C      1  0.4905970000000  0.5441640000000  0.5095620000000 1.0
C      1  0.5440880000000  0.5099480000000  0.4902870000000 1.0
C      1  0.5098720000000  0.4906730000000  0.5437780000000 1.0
C      1  0.4905970000000  0.4564570000000  0.4902870000000 1.0
C      1  0.5098720000000  0.5441640000000  0.4902870000000 1.0
C      1  0.5098720000000  0.4564570000000  0.5095620000000 1.0
C      1  0.5440880000000  0.4906730000000  0.5095620000000 1.0
C      1  0.4563810000000  0.5099480000000  0.5095620000000 1.0
C      1  0.4563810000000  0.4906730000000  0.4902870000000 1.0
C      1  0.5098720000000  0.5099480000000  0.4560710000000 1.0
C      1  0.4905970000000  0.4906730000000  0.4560710000000 1.0
C      1  0.4905970000000  0.5099480000000  0.5437780000000 1.0
C      1  0.4762320000000  0.5243130000000  0.5239270000000 1.0
C      1  0.5242370000000  0.5243130000000  0.4759210000000 1.0
C      1  0.5242370000000  0.4763070000000  0.5239270000000 1.0
C      1  0.4762320000000  0.4763070000000  0.4759210000000 1.0
END
