TITL C-2782236-320-856 0.000528474867887993 125000 -225.709646952593 0 0 42 (C1) n - 1
REM
REM in /home/nfs/bkarasulu/CARBON/AIRSS/Generating-Clusters/REBO/Higher-Symm/SD-CG/HFTN-CG
REM
REM
REM
REM
REM
REM ./C.cell (12c818d87b63d06a65506943cc24bca4)
REM
REM compiler GCC version 9.2.1 20190827 (Red Hat 9.2.1-1)
REM options -cpp -mtune=generic -march=x86-64 -g -O0 -fpre-include=/usr/include/finclude/math-vector-fortran.h
REM seed -1299401599 -722783379 -68833808 -598220403 -741814074 1265974577 -1761362134 952422534 -1547457006 1843537750 1573475407 1092074513 -1149945893 -911016657 115184960 -1350824753 1678668627 -2111263832 106551568 1717297880 -188330780 -1873105327 66047460 550543964 -73763271 50060640 -1911169145 -1656734302 -1926351746 205835301 -1804060776 21957824 1773184314
REM
CELL 1.54180   50.00000   50.00000   50.00000   90.00000   90.00000   90.00000
LATT -1
SFAC C  
C      1  0.5232550000000  0.5493390000000  0.4945970000000 1.0
C      1  0.5236890000000  0.4511160000000  0.5052540000000 1.0
C      1  0.5373020000000  0.4587020000000  0.5501520000000 1.0
C      1  0.5367460000000  0.5399000000000  0.4503160000000 1.0
C      1  0.4828720000000  0.4396710000000  0.4843410000000 1.0
C      1  0.4825320000000  0.5608640000000  0.5155150000000 1.0
C      1  0.4396890000000  0.5464630000000  0.5292160000000 1.0
C      1  0.4397430000000  0.4531900000000  0.4706220000000 1.0
C      1  0.4623180000000  0.4837160000000  0.5048200000000 1.0
C      1  0.4626100000000  0.5162870000000  0.4950060000000 1.0
C      1  0.5110700000000  0.4489690000000  0.4802250000000 1.0
C      1  0.5109280000000  0.5522130000000  0.5197340000000 1.0
C      1  0.5315490000000  0.5756990000000  0.4811230000000 1.0
C      1  0.5313140000000  0.4242610000000  0.5180550000000 1.0
C      1  0.4412260000000  0.5400050000000  0.5022860000000 1.0
C      1  0.4412020000000  0.4597380000000  0.4975370000000 1.0
C      1  0.4709840000000  0.4514640000000  0.5123040000000 1.0
C      1  0.4709240000000  0.5486190000000  0.4875350000000 1.0
C      1  0.5456780000000  0.5221230000000  0.4695190000000 1.0
C      1  0.5465040000000  0.4766710000000  0.5312250000000 1.0
C      1  0.4658220000000  0.5518160000000  0.5395720000000 1.0
C      1  0.4659360000000  0.4481850000000  0.4602410000000 1.0
C      1  0.5070630000000  0.5326170000000  0.4760930000000 1.0
C      1  0.5081250000000  0.4677380000000  0.5243550000000 1.0
C      1  0.5083600000000  0.5086970000000  0.5587530000000 1.0
C      1  0.5074530000000  0.4923610000000  0.4410410000000 1.0
C      1  0.5060010000000  0.4940250000000  0.5331870000000 1.0
C      1  0.5053230000000  0.5064020000000  0.4669840000000 1.0
C      1  0.4928070000000  0.4691590000000  0.4596930000000 1.0
C      1  0.4930170000000  0.5312400000000  0.5397720000000 1.0
C      1  0.4880970000000  0.4455220000000  0.5398440000000 1.0
C      1  0.4878640000000  0.5549160000000  0.4598210000000 1.0
C      1  0.5204400000000  0.4356250000000  0.5439720000000 1.0
C      1  0.5205290000000  0.5636570000000  0.4555450000000 1.0
C      1  0.5496080000000  0.5132510000000  0.4963900000000 1.0
C      1  0.5503230000000  0.4856600000000  0.5043760000000 1.0
C      1  0.4900770000000  0.5111340000000  0.5127260000000 1.0
C      1  0.4901280000000  0.4885300000000  0.4874260000000 1.0
C      1  0.5542850000000  0.4668570000000  0.4848680000000 1.0
C      1  0.5523660000000  0.5321840000000  0.5159860000000 1.0
C      1  0.4722840000000  0.4416440000000  0.5622660000000 1.0
C      1  0.4719540000000  0.5597660000000  0.4377060000000 1.0
END
