TITL C-2782240-8521-318 0.000958791400764621 125000 -262.105749350154 0 0 47 (C2v) n - 1
REM
REM in /home/nfs/bkarasulu/CARBON/AIRSS/Generating-Clusters/REBO/Higher-Symm/SD-CG/HFTN-CG
REM
REM
REM
REM
REM
REM ./C.cell (12c818d87b63d06a65506943cc24bca4)
REM
REM compiler GCC version 9.2.1 20190827 (Red Hat 9.2.1-1)
REM options -cpp -mtune=generic -march=x86-64 -g -O0 -fpre-include=/usr/include/finclude/math-vector-fortran.h
REM seed 1416027443 120660840 1224701519 -1768320620 262502818 -376879767 1697331594 536243789 1601488395 1450759453 102542846 1915522149 2047320285 -715966729 583317873 -142873019 -329915289 624961896 -935516741 -1295279019 -765009526 -1936051390 -2123832499 -976699854 1135449934 349658621 813916054 1757473273 -123334876 -1544568906 -1887264917 2033917716 -372074655
REM
CELL 1.54180   50.00000   50.00000   50.00000   90.00000   90.00000   90.00000
LATT -1
SFAC C  
C      1  0.5052220000000  0.4717410000000  0.4386710000000 1.0
C      1  0.5308780000000  0.4952820000000  0.4372580000000 1.0
C      1  0.5113830000000  0.5299860000000  0.4372910000000 1.0
C      1  0.4779320000000  0.5203200000000  0.4387170000000 1.0
C      1  0.4546170000000  0.4752650000000  0.4417310000000 1.0
C      1  0.5053070000000  0.4716740000000  0.5603320000000 1.0
C      1  0.5309650000000  0.4952150000000  0.5617340000000 1.0
C      1  0.5114700000000  0.5299180000000  0.5617670000000 1.0
C      1  0.4780170000000  0.5202540000000  0.5603770000000 1.0
C      1  0.4546980000000  0.4752020000000  0.5573470000000 1.0
C      1  0.4892310000000  0.5579720000000  0.4831660000000 1.0
C      1  0.4440280000000  0.5091500000000  0.4826690000000 1.0
C      1  0.4780790000000  0.4485350000000  0.4826120000000 1.0
C      1  0.5432910000000  0.4617390000000  0.4830760000000 1.0
C      1  0.5503020000000  0.5289790000000  0.4824680000000 1.0
C      1  0.4892540000000  0.5579540000000  0.5159530000000 1.0
C      1  0.4440520000000  0.5091320000000  0.5164610000000 1.0
C      1  0.4781030000000  0.4485170000000  0.5164040000000 1.0
C      1  0.5433140000000  0.4617210000000  0.5158630000000 1.0
C      1  0.5503260000000  0.5289600000000  0.5165340000000 1.0
C      1  0.4544720000000  0.5029720000000  0.5479540000000 1.0
C      1  0.4782880000000  0.4605760000000  0.5479140000000 1.0
C      1  0.5361350000000  0.4653550000000  0.5473080000000 1.0
C      1  0.5418240000000  0.5241540000000  0.5491450000000 1.0
C      1  0.4886480000000  0.5498880000000  0.5473870000000 1.0
C      1  0.4544040000000  0.5030240000000  0.4511540000000 1.0
C      1  0.4782200000000  0.4606280000000  0.4511140000000 1.0
C      1  0.5360680000000  0.4654070000000  0.4516450000000 1.0
C      1  0.5417550000000  0.5242080000000  0.4498630000000 1.0
C      1  0.4885800000000  0.5499400000000  0.4517240000000 1.0
C      1  0.4958620000000  0.5263690000000  0.5237450000000 1.0
C      1  0.4759760000000  0.5046050000000  0.5225390000000 1.0
C      1  0.4908500000000  0.4781260000000  0.5225140000000 1.0
C      1  0.5197840000000  0.4837850000000  0.5237050000000 1.0
C      1  0.5226570000000  0.5134100000000  0.5243330000000 1.0
C      1  0.4958280000000  0.5263950000000  0.4753300000000 1.0
C      1  0.4759430000000  0.5046300000000  0.4765410000000 1.0
C      1  0.4908180000000  0.4781520000000  0.4765160000000 1.0
C      1  0.5197500000000  0.4838120000000  0.4752900000000 1.0
C      1  0.5226220000000  0.5134370000000  0.4746910000000 1.0
C      1  0.5647640000000  0.4443480000000  0.4994450000000 1.0
C      1  0.4855630000000  0.5853350000000  0.4995770000000 1.0
C      1  0.4176000000000  0.5159920000000  0.4995870000000 1.0
C      1  0.5740520000000  0.5423050000000  0.4994920000000 1.0
C      1  0.4701860000000  0.4223820000000  0.4994990000000 1.0
C      1  0.5004480000000  0.5008860000000  0.5752880000000 1.0
C      1  0.5003420000000  0.5009690000000  0.4237540000000 1.0
END
