TITL C-2782232-2968-972 0.000592123935203476 125000 -231.058896563039 0 0 42 (C1) n - 1
REM
REM in /home/nfs/bkarasulu/CARBON/AIRSS/Generating-Clusters/REBO/Higher-Symm/SD-CG/HFTN-CG
REM
REM
REM
REM
REM
REM ./C.cell (12c818d87b63d06a65506943cc24bca4)
REM
REM compiler GCC version 9.2.1 20190827 (Red Hat 9.2.1-1)
REM options -cpp -mtune=generic -march=x86-64 -g -O0 -fpre-include=/usr/include/finclude/math-vector-fortran.h
REM seed 999448521 -812654424 107375835 -274120773 651957589 -385761413 1362668688 640857194 -1099017149 1457566021 -328808778 -123007588 -17147166 285984400 -385041511 1660256404 1464869669 -144654761 -187295856 1359358686 853090317 -839355951 1925005726 977295989 -1942825914 -2104850140 1873869866 -995513397 -714687060 1130147219 -2141535140 765019392 1089042550
REM
CELL 1.54180   50.00000   50.00000   50.00000   90.00000   90.00000   90.00000
LATT -1
SFAC C  
C      1  0.5181910000000  0.5361070000000  0.5235370000000 1.0
C      1  0.5087490000000  0.5363030000000  0.4679660000000 1.0
C      1  0.4675370000000  0.5384150000000  0.5043820000000 1.0
C      1  0.5223870000000  0.4625270000000  0.5248610000000 1.0
C      1  0.5135340000000  0.4627020000000  0.4728680000000 1.0
C      1  0.4695710000000  0.4646290000000  0.5056010000000 1.0
C      1  0.4885910000000  0.5302170000000  0.5289960000000 1.0
C      1  0.4762900000000  0.5337410000000  0.4745140000000 1.0
C      1  0.5299760000000  0.5358220000000  0.4917000000000 1.0
C      1  0.4912450000000  0.4651130000000  0.5314580000000 1.0
C      1  0.4806290000000  0.4692060000000  0.4772120000000 1.0
C      1  0.5326010000000  0.4715440000000  0.4949840000000 1.0
C      1  0.5523300000000  0.5194230000000  0.5117180000000 1.0
C      1  0.4827310000000  0.5152240000000  0.4465070000000 1.0
C      1  0.4588490000000  0.5150770000000  0.5354670000000 1.0
C      1  0.5527290000000  0.4872230000000  0.5174710000000 1.0
C      1  0.4903140000000  0.4832430000000  0.4478320000000 1.0
C      1  0.4633310000000  0.4827740000000  0.5404240000000 1.0
C      1  0.4405700000000  0.5198470000000  0.5090900000000 1.0
C      1  0.5164400000000  0.5133110000000  0.4461290000000 1.0
C      1  0.5361860000000  0.5150190000000  0.5407850000000 1.0
C      1  0.4460480000000  0.4859690000000  0.5114850000000 1.0
C      1  0.5223570000000  0.4794620000000  0.4459390000000 1.0
C      1  0.5388150000000  0.4811710000000  0.5463030000000 1.0
C      1  0.4848740000000  0.5120680000000  0.5568970000000 1.0
C      1  0.5576830000000  0.5228470000000  0.4788580000000 1.0
C      1  0.4510230000000  0.5194780000000  0.4575710000000 1.0
C      1  0.4889070000000  0.4786410000000  0.5622220000000 1.0
C      1  0.5595420000000  0.4892980000000  0.4841550000000 1.0
C      1  0.4582910000000  0.4861910000000  0.4588750000000 1.0
C      1  0.5157750000000  0.5078120000000  0.5645930000000 1.0
C      1  0.4263180000000  0.5223770000000  0.4792630000000 1.0
C      1  0.5477930000000  0.5094240000000  0.4518740000000 1.0
C      1  0.5199960000000  0.4769610000000  0.5731990000000 1.0
C      1  0.4359530000000  0.4916350000000  0.4815310000000 1.0
C      1  0.5547800000000  0.4781590000000  0.4524760000000 1.0
C      1  0.4820910000000  0.5670310000000  0.5020070000000 1.0
C      1  0.5061080000000  0.5658850000000  0.4806800000000 1.0
C      1  0.5113090000000  0.4337330000000  0.5163850000000 1.0
C      1  0.4812660000000  0.4349400000000  0.5057510000000 1.0
C      1  0.5054460000000  0.4338180000000  0.4844210000000 1.0
C      1  0.5128410000000  0.5656340000000  0.5120130000000 1.0
END
