TITL C-2782239-8622-364 0.000429026140961501 125000 -867.586796193211 0 0 147 (C1) n - 1
REM
REM in /home/nfs/bkarasulu/CARBON/AIRSS/Generating-Clusters/REBO/Higher-Symm/SD-CG/HFTN-CG
REM
REM
REM
REM
REM
REM ./C.cell (12c818d87b63d06a65506943cc24bca4)
REM
REM compiler GCC version 9.2.1 20190827 (Red Hat 9.2.1-1)
REM options -cpp -mtune=generic -march=x86-64 -g -O0 -fpre-include=/usr/include/finclude/math-vector-fortran.h
REM seed 24241365 1152246607 -1188855911 -1075719180 1090945397 1993193668 -690406473 624214278 -1188398506 704696845 -77792635 -489026685 866069915 775688046 -36953706 1957556164 -1420609994 1022594869 1581184214 -1132697180 -969456103 -1764187726 373527058 490792422 -843436042 272310374 -1395458427 -965892755 -796303011 -1646154299 -2032809999 590162216 -321250928
REM
CELL 1.54180   50.00000   50.00000   50.00000   90.00000   90.00000   90.00000
LATT -1
SFAC C  
C      1  0.5113120000000  0.5108250000000  0.4352510000000 1.0
C      1  0.5161660000000  0.5626030000000  0.5073780000000 1.0
C      1  0.5161870000000  0.4881610000000  0.5618400000000 1.0
C      1  0.5122360000000  0.4323260000000  0.4914080000000 1.0
C      1  0.4825560000000  0.5123590000000  0.4390730000000 1.0
C      1  0.4878930000000  0.5655950000000  0.5113410000000 1.0
C      1  0.4870280000000  0.4894160000000  0.5640710000000 1.0
C      1  0.4834370000000  0.4357480000000  0.4952660000000 1.0
C      1  0.4297930000000  0.5466130000000  0.5517830000000 1.0
C      1  0.4296300000000  0.4481620000000  0.5528770000000 1.0
C      1  0.4293190000000  0.4504500000000  0.4474950000000 1.0
C      1  0.4323350000000  0.5485480000000  0.4536730000000 1.0
C      1  0.5730470000000  0.5522240000000  0.5536330000000 1.0
C      1  0.5643000000000  0.4529120000000  0.5505040000000 1.0
C      1  0.5708160000000  0.4537600000000  0.4485040000000 1.0
C      1  0.5710430000000  0.5549480000000  0.4504620000000 1.0
C      1  0.5864060000000  0.5307730000000  0.4528930000000 1.0
C      1  0.5949370000000  0.5443330000000  0.5288410000000 1.0
C      1  0.5893510000000  0.4725610000000  0.5424840000000 1.0
C      1  0.5845710000000  0.4566080000000  0.4730290000000 1.0
C      1  0.4137560000000  0.5273700000000  0.4561800000000 1.0
C      1  0.4144930000000  0.5446270000000  0.5282570000000 1.0
C      1  0.4143900000000  0.4715850000000  0.5475770000000 1.0
C      1  0.4115740000000  0.4523840000000  0.4699560000000 1.0
C      1  0.4743830000000  0.4987010000000  0.5379200000000 1.0
C      1  0.4702300000000  0.4622600000000  0.4994770000000 1.0
C      1  0.4696210000000  0.5019960000000  0.4655370000000 1.0
C      1  0.4729490000000  0.5391760000000  0.5055090000000 1.0
C      1  0.5302620000000  0.4956450000000  0.5364530000000 1.0
C      1  0.5284950000000  0.4579620000000  0.4929810000000 1.0
C      1  0.5265200000000  0.4996940000000  0.4602700000000 1.0
C      1  0.5283690000000  0.5360190000000  0.4977500000000 1.0
C      1  0.5853360000000  0.4861790000000  0.4817050000000 1.0
C      1  0.5864090000000  0.5195390000000  0.4817100000000 1.0
C      1  0.5875780000000  0.5181760000000  0.5156740000000 1.0
C      1  0.5855000000000  0.4842110000000  0.5149340000000 1.0
C      1  0.4124810000000  0.4803930000000  0.4834460000000 1.0
C      1  0.4149400000000  0.5143670000000  0.4847690000000 1.0
C      1  0.4149320000000  0.5150700000000  0.5179980000000 1.0
C      1  0.4131870000000  0.4810180000000  0.5175540000000 1.0
C      1  0.5424790000000  0.5881160000000  0.4931340000000 1.0
C      1  0.5443000000000  0.5050360000000  0.5842420000000 1.0
C      1  0.5450260000000  0.4121020000000  0.5169980000000 1.0
C      1  0.5462710000000  0.4836060000000  0.4119260000000 1.0
C      1  0.4554630000000  0.5794340000000  0.4873780000000 1.0
C      1  0.4551180000000  0.5191710000000  0.5875290000000 1.0
C      1  0.4546330000000  0.4103980000000  0.5058490000000 1.0
C      1  0.4579280000000  0.4948550000000  0.4132240000000 1.0
C      1  0.5146020000000  0.5218450000000  0.5832030000000 1.0
C      1  0.5127340000000  0.4086090000000  0.5235970000000 1.0
C      1  0.5130080000000  0.4763530000000  0.4151020000000 1.0
C      1  0.5138980000000  0.5887730000000  0.4772370000000 1.0
C      1  0.4887810000000  0.5241990000000  0.5843560000000 1.0
C      1  0.4846790000000  0.4059950000000  0.5216770000000 1.0
C      1  0.4873700000000  0.4784150000000  0.4157730000000 1.0
C      1  0.4862980000000  0.5869900000000  0.4751540000000 1.0
C      1  0.4272110000000  0.5095170000000  0.4132230000000 1.0
C      1  0.4374500000000  0.5851070000000  0.5102240000000 1.0
C      1  0.4341370000000  0.4953430000000  0.5876730000000 1.0
C      1  0.4259300000000  0.4100960000000  0.4882990000000 1.0
C      1  0.5646340000000  0.5092620000000  0.4130220000000 1.0
C      1  0.5762510000000  0.5789520000000  0.5326240000000 1.0
C      1  0.5639480000000  0.4794200000000  0.5722360000000 1.0
C      1  0.5620910000000  0.4153850000000  0.4918670000000 1.0
C      1  0.4863660000000  0.5264990000000  0.5303380000000 1.0
C      1  0.4860670000000  0.4824080000000  0.5151740000000 1.0
C      1  0.4820400000000  0.4752910000000  0.4733240000000 1.0
C      1  0.4810220000000  0.5280740000000  0.4773640000000 1.0
C      1  0.5190020000000  0.5235780000000  0.5250270000000 1.0
C      1  0.5188290000000  0.4796460000000  0.5135500000000 1.0
C      1  0.5149660000000  0.4726440000000  0.4682720000000 1.0
C      1  0.5141140000000  0.5281500000000  0.4711810000000 1.0
C      1  0.5175930000000  0.4054950000000  0.4732510000000 1.0
C      1  0.5190430000000  0.5219130000000  0.4040310000000 1.0
C      1  0.5141090000000  0.5944140000000  0.5197080000000 1.0
C      1  0.5107540000000  0.4840590000000  0.5955130000000 1.0
C      1  0.4853570000000  0.4049110000000  0.4810200000000 1.0
C      1  0.4867430000000  0.5250690000000  0.4075540000000 1.0
C      1  0.4818810000000  0.5932350000000  0.5278070000000 1.0
C      1  0.4785530000000  0.4774990000000  0.5935910000000 1.0
C      1  0.5570360000000  0.4976970000000  0.4660200000000 1.0
C      1  0.5597200000000  0.5369830000000  0.4933620000000 1.0
C      1  0.5597850000000  0.5085550000000  0.5330480000000 1.0
C      1  0.5563580000000  0.4699960000000  0.5037260000000 1.0
C      1  0.4401370000000  0.4903640000000  0.4658270000000 1.0
C      1  0.4452840000000  0.5268130000000  0.4952320000000 1.0
C      1  0.4432240000000  0.5024740000000  0.5326740000000 1.0
C      1  0.4405630000000  0.4619890000000  0.5100940000000 1.0
C      1  0.5195530000000  0.4170510000000  0.4421610000000 1.0
C      1  0.5156870000000  0.5520280000000  0.4170980000000 1.0
C      1  0.5125270000000  0.5784880000000  0.5486720000000 1.0
C      1  0.5084150000000  0.4526560000000  0.5845720000000 1.0
C      1  0.4874460000000  0.4218980000000  0.4519750000000 1.0
C      1  0.4827750000000  0.5537360000000  0.4244240000000 1.0
C      1  0.4801690000000  0.5809120000000  0.5589800000000 1.0
C      1  0.4755960000000  0.4437910000000  0.5897770000000 1.0
C      1  0.5486690000000  0.5321800000000  0.4079390000000 1.0
C      1  0.5466210000000  0.5887830000000  0.5259250000000 1.0
C      1  0.5412430000000  0.4727640000000  0.5949550000000 1.0
C      1  0.5487470000000  0.4104080000000  0.4679640000000 1.0
C      1  0.4541610000000  0.5289660000000  0.4116180000000 1.0
C      1  0.4511410000000  0.5910980000000  0.5340190000000 1.0
C      1  0.4479810000000  0.4720280000000  0.5936650000000 1.0
C      1  0.4544130000000  0.4109840000000  0.4715030000000 1.0
C      1  0.4464170000000  0.5525550000000  0.4775490000000 1.0
C      1  0.4409260000000  0.5214870000000  0.5583730000000 1.0
C      1  0.4421670000000  0.4345270000000  0.5267960000000 1.0
C      1  0.4386300000000  0.4790150000000  0.4362770000000 1.0
C      1  0.5605550000000  0.5652710000000  0.4790260000000 1.0
C      1  0.5627030000000  0.5220320000000  0.5612020000000 1.0
C      1  0.5609000000000  0.4417910000000  0.5218780000000 1.0
C      1  0.5615760000000  0.4793940000000  0.4401940000000 1.0
C      1  0.5452100000000  0.5719610000000  0.5558200000000 1.0
C      1  0.5401770000000  0.4471560000000  0.5725580000000 1.0
C      1  0.5514300000000  0.4295840000000  0.4415560000000 1.0
C      1  0.5477410000000  0.5588930000000  0.4276730000000 1.0
C      1  0.4473400000000  0.5714770000000  0.5602930000000 1.0
C      1  0.4436280000000  0.4468390000000  0.5775010000000 1.0
C      1  0.4545780000000  0.4293720000000  0.4449020000000 1.0
C      1  0.4493420000000  0.5561300000000  0.4285270000000 1.0
C      1  0.5861510000000  0.5130920000000  0.4308080000000 1.0
C      1  0.6000160000000  0.5711250000000  0.5159400000000 1.0
C      1  0.5955920000000  0.4896620000000  0.5664630000000 1.0
C      1  0.5798580000000  0.4388530000000  0.4936150000000 1.0
C      1  0.4084580000000  0.5132580000000  0.4323080000000 1.0
C      1  0.4144640000000  0.5681550000000  0.5124720000000 1.0
C      1  0.4138290000000  0.4915250000000  0.5681260000000 1.0
C      1  0.4066700000000  0.4283270000000  0.4837240000000 1.0
C      1  0.5171080000000  0.5451360000000  0.5475460000000 1.0
C      1  0.5065290000000  0.4494300000000  0.5521790000000 1.0
C      1  0.5155080000000  0.4494850000000  0.4445310000000 1.0
C      1  0.5149310000000  0.5519530000000  0.4491080000000 1.0
C      1  0.4861720000000  0.5488800000000  0.5531670000000 1.0
C      1  0.4811750000000  0.4373470000000  0.5596510000000 1.0
C      1  0.4845200000000  0.4549460000000  0.4498370000000 1.0
C      1  0.4843590000000  0.5510760000000  0.4577040000000 1.0
C      1  0.4684480000000  0.4225130000000  0.5408010000000 1.0
C      1  0.4625760000000  0.4578830000000  0.4271840000000 1.0
C      1  0.4643790000000  0.5766400000000  0.4512250000000 1.0
C      1  0.4656610000000  0.5489080000000  0.5780000000000 1.0
C      1  0.5269250000000  0.4314610000000  0.5424460000000 1.0
C      1  0.5376120000000  0.4533800000000  0.4215410000000 1.0
C      1  0.5365060000000  0.5734500000000  0.4568690000000 1.0
C      1  0.5386770000000  0.5420700000000  0.5709410000000 1.0
C      1  0.4460630000000  0.4940630000000  0.4994620000000 1.0
C      1  0.5543400000000  0.5037510000000  0.4995510000000 1.0
C      1  0.5031910000000  0.5007510000000  0.4957030000000 1.0
END
