TITL C-2782227-3064-129 -0.00485837766657111 125000 -962.971655560247 0 0 166 (C1) n - 1
REM
REM in /home/nfs/bkarasulu/CARBON/AIRSS/Generating-Clusters/REBO/Higher-Symm/SD-CG/HFTN-CG
REM
REM
REM
REM
REM
REM ./C.cell (12c818d87b63d06a65506943cc24bca4)
REM
REM compiler GCC version 9.2.1 20190827 (Red Hat 9.2.1-1)
REM options -cpp -mtune=generic -march=x86-64 -g -O0 -fpre-include=/usr/include/finclude/math-vector-fortran.h
REM seed -1329155789 1565920674 2021498564 -1860568185 -1788153145 -376835652 -1614574593 -484889372 -1815042707 1254819927 -1636637684 1791546890 2108833545 -1773894716 -2038149848 1525219658 947236586 79562035 1021742550 -2040376125 763684556 -1895206691 883206988 -1183074638 1006025877 -621700493 1881366362 1596936368 224889244 -543419442 -1250149626 -133532908 -1588300057
REM
CELL 1.54180   50.00000   50.00000   50.00000   90.00000   90.00000   90.00000
LATT -1
SFAC C  
C      1  0.5490820000000  0.4559950000000  0.5667830000000 1.0
C      1  0.5570230000000  0.5791170000000  0.5065260000000 1.0
C      1  0.5565140000000  0.4661760000000  0.4282240000000 1.0
C      1  0.5574220000000  0.5436620000000  0.5629150000000 1.0
C      1  0.5555900000000  0.4231620000000  0.5108910000000 1.0
C      1  0.5588090000000  0.5333320000000  0.4240970000000 1.0
C      1  0.5192210000000  0.4424260000000  0.4874110000000 1.0
C      1  0.5218970000000  0.5187060000000  0.5552540000000 1.0
C      1  0.5218710000000  0.5436090000000  0.4568590000000 1.0
C      1  0.5239260000000  0.5616520000000  0.4856820000000 1.0
C      1  0.5213020000000  0.4846700000000  0.5549180000000 1.0
C      1  0.5224860000000  0.4624390000000  0.4598490000000 1.0
C      1  0.5064040000000  0.5574840000000  0.3998660000000 1.0
C      1  0.5067410000000  0.3900240000000  0.5015260000000 1.0
C      1  0.5182240000000  0.5556250000000  0.5950430000000 1.0
C      1  0.5143770000000  0.4437830000000  0.4045410000000 1.0
C      1  0.5107210000000  0.6124460000000  0.4970880000000 1.0
C      1  0.5093260000000  0.4489990000000  0.5965010000000 1.0
C      1  0.4432590000000  0.4243850000000  0.4394350000000 1.0
C      1  0.4328950000000  0.4821400000000  0.5974610000000 1.0
C      1  0.4350690000000  0.5877520000000  0.4656150000000 1.0
C      1  0.4348530000000  0.5767610000000  0.4430160000000 1.0
C      1  0.4350000000000  0.5070800000000  0.5956340000000 1.0
C      1  0.4420750000000  0.4103820000000  0.4601620000000 1.0
C      1  0.4800630000000  0.4460710000000  0.4020320000000 1.0
C      1  0.4751720000000  0.4472910000000  0.5944700000000 1.0
C      1  0.4764920000000  0.6084170000000  0.4997500000000 1.0
C      1  0.4724800000000  0.5639650000000  0.4002460000000 1.0
C      1  0.4720880000000  0.5479830000000  0.6016020000000 1.0
C      1  0.4737810000000  0.3949330000000  0.5099950000000 1.0
C      1  0.5547690000000  0.4617040000000  0.5016450000000 1.0
C      1  0.5430560000000  0.5247600000000  0.5308260000000 1.0
C      1  0.5391240000000  0.5190430000000  0.4694230000000 1.0
C      1  0.5492940000000  0.5258320000000  0.4996780000000 1.0
C      1  0.5391710000000  0.4732780000000  0.5282170000000 1.0
C      1  0.5480600000000  0.4742760000000  0.4723570000000 1.0
C      1  0.5208130000000  0.5682590000000  0.5190470000000 1.0
C      1  0.5214150000000  0.4844270000000  0.4336250000000 1.0
C      1  0.5099300000000  0.4534880000000  0.5470040000000 1.0
C      1  0.5192460000000  0.4358870000000  0.5210870000000 1.0
C      1  0.5230920000000  0.5187540000000  0.4329190000000 1.0
C      1  0.5210260000000  0.5523020000000  0.5491870000000 1.0
C      1  0.4936140000000  0.4861920000000  0.4738360000000 1.0
C      1  0.5127570000000  0.4860700000000  0.5161010000000 1.0
C      1  0.5023950000000  0.5272860000000  0.4950880000000 1.0
C      1  0.5061980000000  0.5104280000000  0.4715910000000 1.0
C      1  0.5148830000000  0.5142160000000  0.5163810000000 1.0
C      1  0.4955130000000  0.4733710000000  0.4980430000000 1.0
C      1  0.5104680000000  0.5269790000000  0.4041040000000 1.0
C      1  0.5075010000000  0.4069850000000  0.5276670000000 1.0
C      1  0.5058920000000  0.5693340000000  0.5712910000000 1.0
C      1  0.5081280000000  0.4743370000000  0.4052290000000 1.0
C      1  0.5057630000000  0.5960590000000  0.5239800000000 1.0
C      1  0.5041140000000  0.4332210000000  0.5709060000000 1.0
C      1  0.5956720000000  0.5151820000000  0.5204300000000 1.0
C      1  0.5927080000000  0.5130520000000  0.4712570000000 1.0
C      1  0.5998030000000  0.4712030000000  0.4958200000000 1.0
C      1  0.5945990000000  0.4870240000000  0.5192090000000 1.0
C      1  0.5963440000000  0.4852030000000  0.4709380000000 1.0
C      1  0.5949350000000  0.5284740000000  0.4952790000000 1.0
C      1  0.4854170000000  0.4409600000000  0.4948910000000 1.0
C      1  0.4901580000000  0.5207400000000  0.5585280000000 1.0
C      1  0.4931600000000  0.5449650000000  0.4453500000000 1.0
C      1  0.4901050000000  0.5584450000000  0.4948410000000 1.0
C      1  0.4882390000000  0.4873750000000  0.5650640000000 1.0
C      1  0.4896290000000  0.4656640000000  0.4489760000000 1.0
C      1  0.5109870000000  0.5927070000000  0.4317330000000 1.0
C      1  0.5063320000000  0.3977880000000  0.4623850000000 1.0
C      1  0.5109150000000  0.5204110000000  0.6232000000000 1.0
C      1  0.5101280000000  0.4134010000000  0.4381350000000 1.0
C      1  0.5093640000000  0.6052440000000  0.4579240000000 1.0
C      1  0.5101330000000  0.4922160000000  0.6137010000000 1.0
C      1  0.4795660000000  0.4392730000000  0.5256070000000 1.0
C      1  0.4813860000000  0.5485640000000  0.5474680000000 1.0
C      1  0.4833910000000  0.5170590000000  0.4315600000000 1.0
C      1  0.4817930000000  0.5623940000000  0.5252740000000 1.0
C      1  0.4804310000000  0.4677850000000  0.5379710000000 1.0
C      1  0.4821700000000  0.4910330000000  0.4306020000000 1.0
C      1  0.4305560000000  0.5096640000000  0.4439710000000 1.0
C      1  0.4151990000000  0.4382300000000  0.5133600000000 1.0
C      1  0.4266200000000  0.5302770000000  0.5434000000000 1.0
C      1  0.4347350000000  0.4774800000000  0.4456740000000 1.0
C      1  0.4264050000000  0.5535410000000  0.5207800000000 1.0
C      1  0.4211620000000  0.4498450000000  0.5438800000000 1.0
C      1  0.5683890000000  0.5218400000000  0.4546760000000 1.0
C      1  0.5828890000000  0.4461500000000  0.4992550000000 1.0
C      1  0.5758250000000  0.5266270000000  0.5399100000000 1.0
C      1  0.5752120000000  0.4733400000000  0.4544160000000 1.0
C      1  0.5718460000000  0.5462310000000  0.4963530000000 1.0
C      1  0.5730980000000  0.4765460000000  0.5336360000000 1.0
C      1  0.5220830000000  0.4874940000000  0.3810550000000 1.0
C      1  0.5213850000000  0.4077500000000  0.5714170000000 1.0
C      1  0.5163260000000  0.6106790000000  0.5487770000000 1.0
C      1  0.5228310000000  0.5125180000000  0.3805710000000 1.0
C      1  0.5138380000000  0.5990200000000  0.5708250000000 1.0
C      1  0.5211120000000  0.3942210000000  0.5499140000000 1.0
C      1  0.4484490000000  0.5535070000000  0.4219880000000 1.0
C      1  0.4489320000000  0.4114200000000  0.4935680000000 1.0
C      1  0.4472560000000  0.5358410000000  0.5841910000000 1.0
C      1  0.4524410000000  0.4517040000000  0.4212140000000 1.0
C      1  0.4490560000000  0.5882890000000  0.4967970000000 1.0
C      1  0.4478750000000  0.4571420000000  0.5797440000000 1.0
C      1  0.5423370000000  0.5994890000000  0.4550140000000 1.0
C      1  0.5401100000000  0.4165990000000  0.4331070000000 1.0
C      1  0.5390680000000  0.4842720000000  0.6062430000000 1.0
C      1  0.5398220000000  0.4009150000000  0.4612760000000 1.0
C      1  0.5396110000000  0.5829500000000  0.4270220000000 1.0
C      1  0.5408970000000  0.5167730000000  0.6085320000000 1.0
C      1  0.4639670000000  0.4848120000000  0.5197630000000 1.0
C      1  0.4639380000000  0.5300850000000  0.5053540000000 1.0
C      1  0.4550680000000  0.4966230000000  0.4737850000000 1.0
C      1  0.4621760000000  0.5117580000000  0.5258070000000 1.0
C      1  0.4554090000000  0.4777550000000  0.4940330000000 1.0
C      1  0.4653420000000  0.5213160000000  0.4792400000000 1.0
C      1  0.5595850000000  0.5094330000000  0.5643480000000 1.0
C      1  0.5648510000000  0.5549250000000  0.4501450000000 1.0
C      1  0.5639380000000  0.4300890000000  0.4783450000000 1.0
C      1  0.5614920000000  0.4818260000000  0.5601430000000 1.0
C      1  0.5627310000000  0.4426390000000  0.4530730000000 1.0
C      1  0.5648940000000  0.5681440000000  0.4751280000000 1.0
C      1  0.4066090000000  0.4530380000000  0.4590990000000 1.0
C      1  0.4236640000000  0.4802420000000  0.5566510000000 1.0
C      1  0.4317170000000  0.5479880000000  0.4898620000000 1.0
C      1  0.4352410000000  0.5381980000000  0.4592030000000 1.0
C      1  0.4040480000000  0.5040400000000  0.5634380000000 1.0
C      1  0.4233600000000  0.4396640000000  0.4819350000000 1.0
C      1  0.4762160000000  0.5315210000000  0.4035910000000 1.0
C      1  0.4722700000000  0.4113010000000  0.5383080000000 1.0
C      1  0.4722560000000  0.5648210000000  0.5734250000000 1.0
C      1  0.4746000000000  0.4784060000000  0.4018270000000 1.0
C      1  0.4727960000000  0.5930960000000  0.5283210000000 1.0
C      1  0.4730490000000  0.4250910000000  0.5687800000000 1.0
C      1  0.4096270000000  0.4673970000000  0.4959120000000 1.0
C      1  0.4078680000000  0.5066460000000  0.5312130000000 1.0
C      1  0.4147010000000  0.5155720000000  0.4742690000000 1.0
C      1  0.4124460000000  0.5256360000000  0.5063240000000 1.0
C      1  0.4131220000000  0.4764740000000  0.5244190000000 1.0
C      1  0.4111430000000  0.4847520000000  0.4683710000000 1.0
C      1  0.4561010000000  0.5189150000000  0.5564870000000 1.0
C      1  0.4637760000000  0.5507050000000  0.4513170000000 1.0
C      1  0.4552740000000  0.4424340000000  0.4797770000000 1.0
C      1  0.4536690000000  0.4867660000000  0.5638780000000 1.0
C      1  0.4584890000000  0.4579780000000  0.4545650000000 1.0
C      1  0.4603610000000  0.5608260000000  0.4804080000000 1.0
C      1  0.4919200000000  0.5708780000000  0.4258580000000 1.0
C      1  0.4873590000000  0.4096330000000  0.4831370000000 1.0
C      1  0.4980870000000  0.5436900000000  0.6120110000000 1.0
C      1  0.4942200000000  0.4380640000000  0.4305220000000 1.0
C      1  0.4938990000000  0.5890420000000  0.4796990000000 1.0
C      1  0.4910740000000  0.4765370000000  0.5957730000000 1.0
C      1  0.4435190000000  0.5569530000000  0.5566790000000 1.0
C      1  0.4466030000000  0.5197930000000  0.4162310000000 1.0
C      1  0.4396800000000  0.4196470000000  0.5254110000000 1.0
C      1  0.4436660000000  0.4322160000000  0.5568340000000 1.0
C      1  0.4455200000000  0.4856600000000  0.4157380000000 1.0
C      1  0.4441820000000  0.5775080000000  0.5292240000000 1.0
C      1  0.5382170000000  0.5576270000000  0.4123520000000 1.0
C      1  0.5311850000000  0.4110410000000  0.4907050000000 1.0
C      1  0.5420430000000  0.5404440000000  0.5910580000000 1.0
C      1  0.5427330000000  0.4395930000000  0.4160970000000 1.0
C      1  0.5351330000000  0.5927320000000  0.4855680000000 1.0
C      1  0.5378620000000  0.4585520000000  0.5932720000000 1.0
C      1  0.5509340000000  0.4999490000000  0.4264630000000 1.0
C      1  0.5501780000000  0.5637160000000  0.5361340000000 1.0
C      1  0.5471460000000  0.4368290000000  0.5409400000000 1.0
C      1  0.5528750000000  0.4948780000000  0.4976720000000 1.0
END
