TITL C-2782231-7322-874 0.00248329064813575 125000 -57.4053790598233 0 0 14 (C5) n - 1
REM
REM in /home/nfs/bkarasulu/CARBON/AIRSS/Generating-Clusters/REBO/Higher-Symm/SD-CG/HFTN-CG
REM
REM
REM
REM
REM
REM ./C.cell (12c818d87b63d06a65506943cc24bca4)
REM
REM compiler GCC version 9.2.1 20190827 (Red Hat 9.2.1-1)
REM options -cpp -mtune=generic -march=x86-64 -g -O0 -fpre-include=/usr/include/finclude/math-vector-fortran.h
REM seed -1016675708 183385083 319305004 -1311946265 -1957002755 1377647800 1475610979 1624238144 -532099180 -1841750621 -896795583 -374418588 -134872678 -282131553 -1532905815 283611831 1784697456 1441791105 1925135648 -1525781493 422930433 1455011943 894792562 -952768142 -405256121 1295196215 568348558 1122911761 1494156103 167316373 -1995097354 1211520150 -1946704180
REM
CELL 1.54180   50.00000   50.00000   50.00000   90.00000   90.00000   90.00000
LATT -1
SFAC C  
C      1  0.4614490000000  0.4883000000000  0.5252140000000 1.0
C      1  0.4614490000000  0.5220030000000  0.5200550000000 1.0
C      1  0.4614490000000  0.5275110000000  0.4864070000000 1.0
C      1  0.4614490000000  0.4972120000000  0.4707710000000 1.0
C      1  0.4614490000000  0.4729790000000  0.4947550000000 1.0
C      1  0.5352410000000  0.4883000000000  0.4736660000000 1.0
C      1  0.5352410000000  0.5220030000000  0.4788260000000 1.0
C      1  0.5352410000000  0.5275110000000  0.5124740000000 1.0
C      1  0.5352410000000  0.4972120000000  0.5281100000000 1.0
C      1  0.5352410000000  0.4729780000000  0.5041250000000 1.0
C      1  0.5126040000000  0.5016010000000  0.4994400000000 1.0
C      1  0.4840860000000  0.5016010000000  0.4994400000000 1.0
C      1  0.4405180000000  0.5016010000000  0.4994400000000 1.0
C      1  0.5561720000000  0.5016010000000  0.4994400000000 1.0
END
