TITL C-2782229-3092-421 -0.000151098882048127 125000 -221.436024716547 0 0 41 (C2v) n - 1
REM
REM in /home/nfs/bkarasulu/CARBON/AIRSS/Generating-Clusters/REBO/Higher-Symm/SD-CG/HFTN-CG
REM
REM
REM
REM
REM
REM ./C.cell (12c818d87b63d06a65506943cc24bca4)
REM
REM compiler GCC version 9.2.1 20190827 (Red Hat 9.2.1-1)
REM options -cpp -mtune=generic -march=x86-64 -g -O0 -fpre-include=/usr/include/finclude/math-vector-fortran.h
REM seed 1928145794 -1576470883 1015683654 2040174045 -1612328180 1001528052 -1554570388 329532202 2112403630 730092939 -851902119 -379531438 1144631384 694522906 -1290625548 -202427214 -1863935207 472930474 1660594303 963756379 -1161996381 619417963 -427973944 -1643842599 -2085896966 145013068 -504547973 75485579 -1331445264 -2095990895 -791083290 -1327005152 -452173336
REM
CELL 1.54180   50.00000   50.00000   50.00000   90.00000   90.00000   90.00000
LATT -1
SFAC C  
C      1  0.5579420000000  0.5026770000000  0.4766420000000 1.0
C      1  0.4691030000000  0.4508060000000  0.4767610000000 1.0
C      1  0.4629160000000  0.5534840000000  0.4769860000000 1.0
C      1  0.5579140000000  0.5027050000000  0.5233720000000 1.0
C      1  0.4690760000000  0.4508340000000  0.5232110000000 1.0
C      1  0.4628890000000  0.5535110000000  0.5228560000000 1.0
C      1  0.4349440000000  0.5047650000000  0.4769960000000 1.0
C      1  0.5264170000000  0.4477480000000  0.4766760000000 1.0
C      1  0.5267610000000  0.5509140000000  0.4767400000000 1.0
C      1  0.4349170000000  0.5047930000000  0.5228720000000 1.0
C      1  0.5263900000000  0.4477760000000  0.5233680000000 1.0
C      1  0.5267340000000  0.5509410000000  0.5231800000000 1.0
C      1  0.5574090000000  0.5197300000000  0.4999970000000 1.0
C      1  0.4319510000000  0.5222130000000  0.4999220000000 1.0
C      1  0.5113760000000  0.4396830000000  0.5000180000000 1.0
C      1  0.4827370000000  0.4405750000000  0.5000010000000 1.0
C      1  0.5424220000000  0.5441540000000  0.4999730000000 1.0
C      1  0.4463370000000  0.5472860000000  0.4999150000000 1.0
C      1  0.5283660000000  0.4835530000000  0.5411100000000 1.0
C      1  0.5284140000000  0.4835040000000  0.4588930000000 1.0
C      1  0.4782200000000  0.4839620000000  0.5401650000000 1.0
C      1  0.4782670000000  0.4839130000000  0.4597790000000 1.0
C      1  0.5025810000000  0.5265240000000  0.5401810000000 1.0
C      1  0.5026280000000  0.5264760000000  0.4597400000000 1.0
C      1  0.5474210000000  0.4721620000000  0.5167450000000 1.0
C      1  0.4551930000000  0.4809120000000  0.5170310000000 1.0
C      1  0.5474410000000  0.4721420000000  0.4832940000000 1.0
C      1  0.4552130000000  0.4808910000000  0.4828890000000 1.0
C      1  0.4937270000000  0.5479660000000  0.5170140000000 1.0
C      1  0.4937470000000  0.5479460000000  0.4828710000000 1.0
C      1  0.5029790000000  0.5254660000000  0.4316290000000 1.0
C      1  0.4792220000000  0.4841520000000  0.5682800000000 1.0
C      1  0.5028990000000  0.5255480000000  0.5682940000000 1.0
C      1  0.5271100000000  0.4841950000000  0.4312490000000 1.0
C      1  0.5270290000000  0.4842780000000  0.5687520000000 1.0
C      1  0.4793020000000  0.4840700000000  0.4316650000000 1.0
C      1  0.5031030000000  0.4979160000000  0.4214370000000 1.0
C      1  0.5030110000000  0.4980100000000  0.5785190000000 1.0
C      1  0.5035620000000  0.4977150000000  0.5293910000000 1.0
C      1  0.5035960000000  0.4976790000000  0.4705660000000 1.0
C      1  0.5042840000000  0.4973110000000  0.4999790000000 1.0
END
