TITL C-2782225-7408-1255 0.00039749978251909 125000 -859.807618690944 0 0 147 (C1) n - 1
REM
REM in /home/nfs/bkarasulu/CARBON/AIRSS/Generating-Clusters/REBO/Higher-Symm/SD-CG/HFTN-CG
REM
REM
REM
REM
REM
REM ./C.cell (12c818d87b63d06a65506943cc24bca4)
REM
REM compiler GCC version 9.2.1 20190827 (Red Hat 9.2.1-1)
REM options -cpp -mtune=generic -march=x86-64 -g -O0 -fpre-include=/usr/include/finclude/math-vector-fortran.h
REM seed -965665346 -283439782 -1269718168 -878056788 -1241483873 -853061147 1168835529 193837436 111929893 979628263 1048077413 -351378672 -1792668494 300411984 363062596 1178893653 -1921188610 1197155620 1887635947 -1508389038 -484553677 826618508 313211059 1494971238 609729095 296866372 1166576313 1028194828 1075225182 1361849566 -329358052 1044462257 131645321
REM
CELL 1.54180   50.00000   50.00000   50.00000   90.00000   90.00000   90.00000
LATT -1
SFAC C  
C      1  0.5024210000000  0.5919260000000  0.4440170000000 1.0
C      1  0.4236950000000  0.4526960000000  0.4224650000000 1.0
C      1  0.5823590000000  0.4576920000000  0.4287430000000 1.0
C      1  0.4964690000000  0.5941020000000  0.5591950000000 1.0
C      1  0.4245330000000  0.4561630000000  0.5698690000000 1.0
C      1  0.5755760000000  0.4552230000000  0.5544940000000 1.0
C      1  0.5014350000000  0.4114250000000  0.4305850000000 1.0
C      1  0.4225690000000  0.5459860000000  0.4442760000000 1.0
C      1  0.5838330000000  0.5451110000000  0.4298570000000 1.0
C      1  0.4948560000000  0.4087710000000  0.5748300000000 1.0
C      1  0.4207590000000  0.5489870000000  0.5678640000000 1.0
C      1  0.5790740000000  0.5450800000000  0.5631340000000 1.0
C      1  0.5128340000000  0.4038360000000  0.4859180000000 1.0
C      1  0.5774530000000  0.5613910000000  0.4809640000000 1.0
C      1  0.4047000000000  0.5319660000000  0.4880590000000 1.0
C      1  0.5145440000000  0.4010150000000  0.5139300000000 1.0
C      1  0.5788570000000  0.5602290000000  0.5089920000000 1.0
C      1  0.4074170000000  0.5347330000000  0.5157870000000 1.0
C      1  0.5122740000000  0.5975080000000  0.4871220000000 1.0
C      1  0.5763690000000  0.4391960000000  0.4824550000000 1.0
C      1  0.4058070000000  0.4661120000000  0.4845700000000 1.0
C      1  0.5144370000000  0.5965200000000  0.5148690000000 1.0
C      1  0.5767410000000  0.4380620000000  0.5105600000000 1.0
C      1  0.4097500000000  0.4641130000000  0.5123600000000 1.0
C      1  0.4545480000000  0.5550090000000  0.4437490000000 1.0
C      1  0.4774680000000  0.4296870000000  0.4418800000000 1.0
C      1  0.5774020000000  0.5163570000000  0.4422550000000 1.0
C      1  0.4493570000000  0.5539850000000  0.5538640000000 1.0
C      1  0.4774450000000  0.4316040000000  0.5592530000000 1.0
C      1  0.5705720000000  0.5160640000000  0.5511880000000 1.0
C      1  0.4521540000000  0.4424920000000  0.4349070000000 1.0
C      1  0.4790320000000  0.5702040000000  0.4449600000000 1.0
C      1  0.5779970000000  0.4866640000000  0.4420580000000 1.0
C      1  0.4529510000000  0.4484660000000  0.5562270000000 1.0
C      1  0.4743100000000  0.5691420000000  0.5530580000000 1.0
C      1  0.5702620000000  0.4866180000000  0.5520140000000 1.0
C      1  0.4240470000000  0.5173800000000  0.5634090000000 1.0
C      1  0.5204500000000  0.4259670000000  0.5653590000000 1.0
C      1  0.5500080000000  0.5587160000000  0.5568600000000 1.0
C      1  0.4249150000000  0.5131770000000  0.4373660000000 1.0
C      1  0.5273310000000  0.4287380000000  0.4389900000000 1.0
C      1  0.5562910000000  0.5603330000000  0.4342900000000 1.0
C      1  0.4285000000000  0.4863200000000  0.5587480000000 1.0
C      1  0.5240410000000  0.5752370000000  0.5622160000000 1.0
C      1  0.5468170000000  0.4418020000000  0.5591210000000 1.0
C      1  0.4244370000000  0.4825420000000  0.4314820000000 1.0
C      1  0.5289730000000  0.5745100000000  0.4392110000000 1.0
C      1  0.5545810000000  0.4434290000000  0.4343610000000 1.0
C      1  0.4627660000000  0.4087330000000  0.4843670000000 1.0
C      1  0.5980960000000  0.5163900000000  0.4763190000000 1.0
C      1  0.4347650000000  0.5732930000000  0.4826390000000 1.0
C      1  0.4653350000000  0.4045970000000  0.5173580000000 1.0
C      1  0.5982100000000  0.5140560000000  0.5085720000000 1.0
C      1  0.4384500000000  0.5742160000000  0.5147080000000 1.0
C      1  0.4630630000000  0.5889290000000  0.4869610000000 1.0
C      1  0.5970040000000  0.4850240000000  0.4806630000000 1.0
C      1  0.4346900000000  0.4236300000000  0.4800050000000 1.0
C      1  0.4659200000000  0.5899920000000  0.5194570000000 1.0
C      1  0.5985780000000  0.4826000000000  0.5132000000000 1.0
C      1  0.4384450000000  0.4229660000000  0.5124210000000 1.0
C      1  0.5210130000000  0.5157950000000  0.5475470000000 1.0
C      1  0.4679870000000  0.5191030000000  0.5486110000000 1.0
C      1  0.4931260000000  0.4703580000000  0.5564660000000 1.0
C      1  0.5262320000000  0.5203620000000  0.4531500000000 1.0
C      1  0.4736140000000  0.5199690000000  0.4507850000000 1.0
C      1  0.5009620000000  0.4731750000000  0.4582700000000 1.0
C      1  0.5204900000000  0.4844820000000  0.5488740000000 1.0
C      1  0.4679300000000  0.4875620000000  0.5439790000000 1.0
C      1  0.4955150000000  0.5336330000000  0.5463350000000 1.0
C      1  0.5276940000000  0.4889510000000  0.4550150000000 1.0
C      1  0.4735430000000  0.4883460000000  0.4511200000000 1.0
C      1  0.4999530000000  0.5364390000000  0.4492020000000 1.0
C      1  0.4762970000000  0.5173970000000  0.5931600000000 1.0
C      1  0.5012070000000  0.4747350000000  0.5952800000000 1.0
C      1  0.5245820000000  0.5166210000000  0.5873530000000 1.0
C      1  0.4782420000000  0.5149820000000  0.4107360000000 1.0
C      1  0.5031200000000  0.4728460000000  0.4150380000000 1.0
C      1  0.5268600000000  0.5150670000000  0.4135090000000 1.0
C      1  0.4767590000000  0.4890670000000  0.5939440000000 1.0
C      1  0.5006360000000  0.5312910000000  0.5895350000000 1.0
C      1  0.5250890000000  0.4886510000000  0.5895740000000 1.0
C      1  0.4790280000000  0.4867870000000  0.4115900000000 1.0
C      1  0.5026980000000  0.5292760000000  0.4100410000000 1.0
C      1  0.5270800000000  0.4871810000000  0.4150790000000 1.0
C      1  0.5022740000000  0.4504750000000  0.4372080000000 1.0
C      1  0.5478900000000  0.5286280000000  0.4327740000000 1.0
C      1  0.4528680000000  0.5272070000000  0.4265180000000 1.0
C      1  0.4992590000000  0.4479830000000  0.5788010000000 1.0
C      1  0.5435570000000  0.5277000000000  0.5652010000000 1.0
C      1  0.4534210000000  0.5279250000000  0.5756070000000 1.0
C      1  0.5032930000000  0.5572380000000  0.4249380000000 1.0
C      1  0.5477680000000  0.4758660000000  0.4354630000000 1.0
C      1  0.4561500000000  0.4746740000000  0.4287960000000 1.0
C      1  0.4994240000000  0.5558980000000  0.5698540000000 1.0
C      1  0.5435770000000  0.4741960000000  0.5682410000000 1.0
C      1  0.4577750000000  0.4772530000000  0.5738050000000 1.0
C      1  0.5519220000000  0.5537050000000  0.5236570000000 1.0
C      1  0.4271800000000  0.5143410000000  0.5303510000000 1.0
C      1  0.5225410000000  0.4266010000000  0.5313960000000 1.0
C      1  0.5494670000000  0.5547050000000  0.4672360000000 1.0
C      1  0.4280050000000  0.5169780000000  0.4711710000000 1.0
C      1  0.5199180000000  0.4311830000000  0.4720980000000 1.0
C      1  0.5501070000000  0.4453020000000  0.5253620000000 1.0
C      1  0.4307810000000  0.4824590000000  0.5260840000000 1.0
C      1  0.5238720000000  0.5692280000000  0.5285720000000 1.0
C      1  0.5489420000000  0.4460420000000  0.4677250000000 1.0
C      1  0.4245140000000  0.4845970000000  0.4652580000000 1.0
C      1  0.5215360000000  0.5711450000000  0.4722800000000 1.0
C      1  0.4985570000000  0.5291570000000  0.4806390000000 1.0
C      1  0.4687220000000  0.4780520000000  0.4811920000000 1.0
C      1  0.5279150000000  0.4812100000000  0.4866450000000 1.0
C      1  0.5048300000000  0.5296410000000  0.5138900000000 1.0
C      1  0.4702270000000  0.4835470000000  0.5121590000000 1.0
C      1  0.5263330000000  0.4743560000000  0.5182360000000 1.0
C      1  0.4988010000000  0.4658520000000  0.4907620000000 1.0
C      1  0.4703700000000  0.5112490000000  0.4835700000000 1.0
C      1  0.5281100000000  0.5145830000000  0.4854520000000 1.0
C      1  0.4950660000000  0.4653710000000  0.5247210000000 1.0
C      1  0.4750980000000  0.5159590000000  0.5168530000000 1.0
C      1  0.5299000000000  0.5069280000000  0.5171540000000 1.0
C      1  0.5661060000000  0.4751910000000  0.5207390000000 1.0
C      1  0.4903640000000  0.5656800000000  0.5231290000000 1.0
C      1  0.4480400000000  0.4531270000000  0.5249750000000 1.0
C      1  0.5648420000000  0.4758940000000  0.4716330000000 1.0
C      1  0.4879780000000  0.5676080000000  0.4766740000000 1.0
C      1  0.4344910000000  0.4519860000000  0.4608870000000 1.0
C      1  0.5672970000000  0.5235690000000  0.5199960000000 1.0
C      1  0.4884710000000  0.4263670000000  0.5305200000000 1.0
C      1  0.4458900000000  0.5420120000000  0.5237150000000 1.0
C      1  0.5645180000000  0.5245100000000  0.4728650000000 1.0
C      1  0.4859330000000  0.4318070000000  0.4747570000000 1.0
C      1  0.4485330000000  0.5428660000000  0.4744790000000 1.0
C      1  0.5978230000000  0.4535160000000  0.4716660000000 1.0
C      1  0.4881110000000  0.6074900000000  0.4777100000000 1.0
C      1  0.4054620000000  0.4376880000000  0.4716050000000 1.0
C      1  0.5983540000000  0.4516150000000  0.5216140000000 1.0
C      1  0.4919290000000  0.6046270000000  0.5313540000000 1.0
C      1  0.4112160000000  0.4380530000000  0.5219480000000 1.0
C      1  0.5977410000000  0.5472640000000  0.4682830000000 1.0
C      1  0.4897710000000  0.3921660000000  0.4752070000000 1.0
C      1  0.4109630000000  0.5549670000000  0.4695680000000 1.0
C      1  0.6005890000000  0.5453520000000  0.5183560000000 1.0
C      1  0.4922150000000  0.3873130000000  0.5239100000000 1.0
C      1  0.4106840000000  0.5607560000000  0.5249750000000 1.0
C      1  0.4689420000000  0.5517880000000  0.5003860000000 1.0
C      1  0.4729590000000  0.4414540000000  0.5047710000000 1.0
C      1  0.5631820000000  0.4993130000000  0.4963460000000 1.0
END
