TITL C-2782230-7391-794 -0.000689436033727763 125000 -720.19243427752 0 0 123 (C1) n - 1
REM
REM in /home/nfs/bkarasulu/CARBON/AIRSS/Generating-Clusters/REBO/Higher-Symm/SD-CG/HFTN-CG
REM
REM
REM
REM
REM
REM ./C.cell (12c818d87b63d06a65506943cc24bca4)
REM
REM compiler GCC version 9.2.1 20190827 (Red Hat 9.2.1-1)
REM options -cpp -mtune=generic -march=x86-64 -g -O0 -fpre-include=/usr/include/finclude/math-vector-fortran.h
REM seed -2005111433 1973952744 865974492 1133632195 -1222473929 496653664 103204852 1832289504 -1524255586 -1503513506 942408537 -252774618 103294907 407420526 -911363345 2062624480 1570875844 1209144720 1056463264 -1931064474 -373886228 2048194587 -1418367804 -749691216 1181107131 -1686820668 -1963414305 1757813990 -1172588173 -310334886 1125259145 1558887946 125155323
REM
CELL 1.54180   50.00000   50.00000   50.00000   90.00000   90.00000   90.00000
LATT -1
SFAC C  
C      1  0.4289120000000  0.4365040000000  0.5568680000000 1.0
C      1  0.5304400000000  0.4101000000000  0.5531410000000 1.0
C      1  0.5906930000000  0.5075900000000  0.5580840000000 1.0
C      1  0.5087860000000  0.5883350000000  0.5448630000000 1.0
C      1  0.4203620000000  0.5358540000000  0.5426150000000 1.0
C      1  0.4131810000000  0.4150590000000  0.5551200000000 1.0
C      1  0.5428730000000  0.3865210000000  0.5521460000000 1.0
C      1  0.6168200000000  0.5130010000000  0.5575410000000 1.0
C      1  0.5049520000000  0.6139460000000  0.5385000000000 1.0
C      1  0.3961590000000  0.5380900000000  0.5314810000000 1.0
C      1  0.4469940000000  0.4786320000000  0.5697240000000 1.0
C      1  0.4992790000000  0.4454190000000  0.5601780000000 1.0
C      1  0.5466710000000  0.4860090000000  0.5667210000000 1.0
C      1  0.5252110000000  0.5461740000000  0.5621330000000 1.0
C      1  0.4615430000000  0.5419870000000  0.5648910000000 1.0
C      1  0.4671150000000  0.5260610000000  0.4405940000000 1.0
C      1  0.4658580000000  0.4843730000000  0.4404050000000 1.0
C      1  0.5063380000000  0.4672320000000  0.4368740000000 1.0
C      1  0.5303730000000  0.4986590000000  0.4313470000000 1.0
C      1  0.5158700000000  0.5358380000000  0.4301780000000 1.0
C      1  0.3943870000000  0.5189440000000  0.4964110000000 1.0
C      1  0.4496650000000  0.4022670000000  0.4822060000000 1.0
C      1  0.5604240000000  0.4519190000000  0.4925170000000 1.0
C      1  0.5683330000000  0.5446940000000  0.4877540000000 1.0
C      1  0.4975280000000  0.5858480000000  0.4921900000000 1.0
C      1  0.4866330000000  0.4428950000000  0.4425420000000 1.0
C      1  0.5503990000000  0.4777250000000  0.4419490000000 1.0
C      1  0.5447400000000  0.5422250000000  0.4288670000000 1.0
C      1  0.4732320000000  0.5553800000000  0.4408090000000 1.0
C      1  0.4384510000000  0.4972500000000  0.4459250000000 1.0
C      1  0.5126520000000  0.4297250000000  0.4512820000000 1.0
C      1  0.5744640000000  0.4925960000000  0.4478210000000 1.0
C      1  0.5349400000000  0.5698760000000  0.4387280000000 1.0
C      1  0.4471200000000  0.5573900000000  0.4553790000000 1.0
C      1  0.4324010000000  0.4693580000000  0.4559970000000 1.0
C      1  0.5283410000000  0.5353750000000  0.4822180000000 1.0
C      1  0.4825130000000  0.5371580000000  0.4830780000000 1.0
C      1  0.4680080000000  0.4919110000000  0.4898290000000 1.0
C      1  0.4991220000000  0.4672120000000  0.4935810000000 1.0
C      1  0.5409240000000  0.4885360000000  0.4869260000000 1.0
C      1  0.4594980000000  0.4426120000000  0.5577010000000 1.0
C      1  0.5386980000000  0.4396560000000  0.5567550000000 1.0
C      1  0.5647660000000  0.5231340000000  0.5549920000000 1.0
C      1  0.4914820000000  0.5633820000000  0.5495250000000 1.0
C      1  0.4379440000000  0.5127360000000  0.5512560000000 1.0
C      1  0.4460240000000  0.5825710000000  0.4693120000000 1.0
C      1  0.4104820000000  0.4620940000000  0.4730540000000 1.0
C      1  0.5140070000000  0.4069110000000  0.4685500000000 1.0
C      1  0.5948430000000  0.4762780000000  0.4596540000000 1.0
C      1  0.5554180000000  0.5841040000000  0.4531430000000 1.0
C      1  0.4451450000000  0.4211180000000  0.4635370000000 1.0
C      1  0.5636560000000  0.4413000000000  0.4666270000000 1.0
C      1  0.5802590000000  0.5448070000000  0.4623230000000 1.0
C      1  0.4934500000000  0.5926120000000  0.4646760000000 1.0
C      1  0.4059470000000  0.5298340000000  0.4747040000000 1.0
C      1  0.5728540000000  0.4840350000000  0.5545260000000 1.0
C      1  0.5309200000000  0.5681700000000  0.5452280000000 1.0
C      1  0.4434510000000  0.5534580000000  0.5468950000000 1.0
C      1  0.4275620000000  0.4661880000000  0.5536120000000 1.0
C      1  0.5045510000000  0.4221460000000  0.5456790000000 1.0
C      1  0.4746620000000  0.4884220000000  0.5587830000000 1.0
C      1  0.4999150000000  0.4751720000000  0.5549500000000 1.0
C      1  0.5210950000000  0.4954710000000  0.5547840000000 1.0
C      1  0.5079940000000  0.5217870000000  0.5552140000000 1.0
C      1  0.4790260000000  0.5172250000000  0.5572680000000 1.0
C      1  0.4663530000000  0.6008340000000  0.4590330000000 1.0
C      1  0.3896240000000  0.4477030000000  0.4630480000000 1.0
C      1  0.5294320000000  0.3855820000000  0.4613810000000 1.0
C      1  0.5887250000000  0.4483220000000  0.4546850000000 1.0
C      1  0.5810260000000  0.5708130000000  0.4503090000000 1.0
C      1  0.5352300000000  0.5055010000000  0.4050520000000 1.0
C      1  0.5004860000000  0.5243310000000  0.4094670000000 1.0
C      1  0.4758020000000  0.5148170000000  0.4165490000000 1.0
C      1  0.4734950000000  0.4750870000000  0.4154790000000 1.0
C      1  0.5197540000000  0.4650560000000  0.4124700000000 1.0
C      1  0.4568110000000  0.4481700000000  0.4546570000000 1.0
C      1  0.5388210000000  0.4477530000000  0.4496490000000 1.0
C      1  0.5669290000000  0.5240440000000  0.4449500000000 1.0
C      1  0.5033120000000  0.5706410000000  0.4453300000000 1.0
C      1  0.4319640000000  0.5280100000000  0.4590160000000 1.0
C      1  0.4971920000000  0.5254570000000  0.5935270000000 1.0
C      1  0.4753590000000  0.5053150000000  0.5953340000000 1.0
C      1  0.4874990000000  0.4780150000000  0.5951750000000 1.0
C      1  0.5171880000000  0.4810920000000  0.5931970000000 1.0
C      1  0.5235430000000  0.5105370000000  0.5917120000000 1.0
C      1  0.5465460000000  0.4525380000000  0.5318370000000 1.0
C      1  0.5578810000000  0.5325510000000  0.5283870000000 1.0
C      1  0.4847200000000  0.5474030000000  0.5214410000000 1.0
C      1  0.4532780000000  0.4968500000000  0.5262580000000 1.0
C      1  0.4713140000000  0.4451320000000  0.5312680000000 1.0
C      1  0.4705440000000  0.4004260000000  0.5000730000000 1.0
C      1  0.5826060000000  0.4664380000000  0.5057570000000 1.0
C      1  0.5574160000000  0.5690680000000  0.4996310000000 1.0
C      1  0.4752420000000  0.5917960000000  0.5092480000000 1.0
C      1  0.4003470000000  0.4971200000000  0.5121230000000 1.0
C      1  0.4248570000000  0.4815360000000  0.5280870000000 1.0
C      1  0.4869190000000  0.4197860000000  0.5209950000000 1.0
C      1  0.5720610000000  0.4665210000000  0.5325380000000 1.0
C      1  0.5500210000000  0.5608680000000  0.5259040000000 1.0
C      1  0.4581020000000  0.5671960000000  0.5250910000000 1.0
C      1  0.4485360000000  0.5081680000000  0.5814720000000 1.0
C      1  0.4771070000000  0.4548940000000  0.5807410000000 1.0
C      1  0.5353190000000  0.4594740000000  0.5782630000000 1.0
C      1  0.5428860000000  0.5249850000000  0.5744630000000 1.0
C      1  0.4890260000000  0.5495950000000  0.5782960000000 1.0
C      1  0.5050950000000  0.5412100000000  0.4601150000000 1.0
C      1  0.4613120000000  0.5171270000000  0.4715550000000 1.0
C      1  0.4775530000000  0.4719790000000  0.4676200000000 1.0
C      1  0.5209570000000  0.4690000000000  0.4675380000000 1.0
C      1  0.5405820000000  0.5110840000000  0.4616950000000 1.0
C      1  0.5519340000000  0.5178760000000  0.4994250000000 1.0
C      1  0.5060430000000  0.5564380000000  0.4970180000000 1.0
C      1  0.4712530000000  0.5194100000000  0.5100740000000 1.0
C      1  0.4742490000000  0.4716100000000  0.5164500000000 1.0
C      1  0.5306100000000  0.4614960000000  0.5052750000000 1.0
C      1  0.4466450000000  0.5827100000000  0.4977690000000 1.0
C      1  0.4113330000000  0.4702160000000  0.4996260000000 1.0
C      1  0.5006470000000  0.4072820000000  0.4929900000000 1.0
C      1  0.6001710000000  0.4800290000000  0.4878130000000 1.0
C      1  0.5505310000000  0.5896760000000  0.4810490000000 1.0
C      1  0.5028340000000  0.5039390000000  0.4743670000000 1.0
C      1  0.5024340000000  0.4984490000000  0.4482390000000 1.0
C      1  0.5075660000000  0.5062410000000  0.5000700000000 1.0
END
