TITL C-2782235-7892-105 -0.000730212311904808 125000 -254.458975111666 0 0 45 (C1) n - 1
REM
REM in /home/nfs/bkarasulu/CARBON/AIRSS/Generating-Clusters/REBO/Higher-Symm/SD-CG/HFTN-CG
REM
REM
REM
REM
REM
REM ./C.cell (12c818d87b63d06a65506943cc24bca4)
REM
REM compiler GCC version 9.2.1 20190827 (Red Hat 9.2.1-1)
REM options -cpp -mtune=generic -march=x86-64 -g -O0 -fpre-include=/usr/include/finclude/math-vector-fortran.h
REM seed 1400877025 -1410800226 1830988 -1197485037 1706870885 -1421852879 -27051535 -610204231 -352178765 1065402070 1190558873 2026084939 -130699726 -1820076116 -327531362 1240583071 -1104156183 983550549 -930412726 821510506 -1779826559 -1596016576 -1684872668 -634282475 512020203 -316383463 -694746645 -590578265 -1740678486 1162063020 -410886787 298278960 -2016934929
REM
CELL 1.54180   50.00000   50.00000   50.00000   90.00000   90.00000   90.00000
LATT -1
SFAC C  
C      1  0.5254990000000  0.4504730000000  0.5484360000000 1.0
C      1  0.4652120000000  0.5430740000000  0.5442710000000 1.0
C      1  0.4889420000000  0.5352330000000  0.4304070000000 1.0
C      1  0.5026420000000  0.4645280000000  0.4423000000000 1.0
C      1  0.5416650000000  0.4403700000000  0.5202630000000 1.0
C      1  0.4660020000000  0.5529610000000  0.5124010000000 1.0
C      1  0.5452900000000  0.5297380000000  0.4956200000000 1.0
C      1  0.4487430000000  0.4775870000000  0.4967010000000 1.0
C      1  0.5222580000000  0.4687550000000  0.4768520000000 1.0
C      1  0.4869490000000  0.5260150000000  0.4692380000000 1.0
C      1  0.4984350000000  0.5330250000000  0.5245790000000 1.0
C      1  0.5025320000000  0.4472720000000  0.5163120000000 1.0
C      1  0.4360780000000  0.5037090000000  0.5083870000000 1.0
C      1  0.5601740000000  0.5038060000000  0.5023400000000 1.0
C      1  0.4846290000000  0.4903980000000  0.5517510000000 1.0
C      1  0.5146540000000  0.5143220000000  0.5614310000000 1.0
C      1  0.5107670000000  0.5479940000000  0.5041270000000 1.0
C      1  0.4847460000000  0.4416360000000  0.4953580000000 1.0
C      1  0.4674650000000  0.5193260000000  0.4435860000000 1.0
C      1  0.5286160000000  0.4799620000000  0.4457390000000 1.0
C      1  0.4805180000000  0.5106910000000  0.5268190000000 1.0
C      1  0.5213500000000  0.4746350000000  0.5214280000000 1.0
C      1  0.5126470000000  0.5422320000000  0.4538610000000 1.0
C      1  0.4917680000000  0.4583110000000  0.4718860000000 1.0
C      1  0.4573640000000  0.4453770000000  0.5019620000000 1.0
C      1  0.5386450000000  0.5627250000000  0.5006210000000 1.0
C      1  0.4517490000000  0.4625990000000  0.5276120000000 1.0
C      1  0.5433750000000  0.5437040000000  0.5267830000000 1.0
C      1  0.4800310000000  0.4751720000000  0.4276910000000 1.0
C      1  0.5195250000000  0.5268870000000  0.4239040000000 1.0
C      1  0.5377400000000  0.4481830000000  0.4963900000000 1.0
C      1  0.4733050000000  0.5430660000000  0.4910760000000 1.0
C      1  0.5166720000000  0.4832300000000  0.5528230000000 1.0
C      1  0.4815130000000  0.5214850000000  0.5652160000000 1.0
C      1  0.4975280000000  0.5493970000000  0.5538720000000 1.0
C      1  0.4921920000000  0.4440810000000  0.5453100000000 1.0
C      1  0.4631570000000  0.4913720000000  0.4449300000000 1.0
C      1  0.5309980000000  0.5079500000000  0.4447490000000 1.0
C      1  0.5259000000000  0.5203420000000  0.4748180000000 1.0
C      1  0.4704980000000  0.4829620000000  0.4742970000000 1.0
C      1  0.5467770000000  0.4845350000000  0.5102190000000 1.0
C      1  0.4511290000000  0.5182910000000  0.5251700000000 1.0
C      1  0.5292620000000  0.5383630000000  0.5494190000000 1.0
C      1  0.4710660000000  0.4636820000000  0.5480520000000 1.0
C      1  0.5017710000000  0.4964040000000  0.4786440000000 1.0
END
