TITL C-2782226-7400-62 0.00532598404043942 125000 -1107.08744490883 0 0 191 (C1) n - 1
REM
REM in /home/nfs/bkarasulu/CARBON/AIRSS/Generating-Clusters/REBO/Higher-Symm/SD-CG/HFTN-CG
REM
REM
REM
REM
REM
REM ./C.cell (12c818d87b63d06a65506943cc24bca4)
REM
REM compiler GCC version 9.2.1 20190827 (Red Hat 9.2.1-1)
REM options -cpp -mtune=generic -march=x86-64 -g -O0 -fpre-include=/usr/include/finclude/math-vector-fortran.h
REM seed 730103650 -1327092228 -954923580 -360143435 471911643 -1205873505 -1643181167 930820326 1865310338 -146524120 -45446789 -1576634804 -2084135123 -285176057 1356113585 -273550847 1438075670 -1706890756 1324341711 -310038881 -1568019439 -1112010640 1900987122 686701260 249524964 356458688 -929643961 -163602794 139848727 -1706699459 -1313049647 -519326411 720031160
REM
CELL 1.54180   50.00000   50.00000   50.00000   90.00000   90.00000   90.00000
LATT -1
SFAC C  
C      1  0.5894600000000  0.5081780000000  0.5655100000000 1.0
C      1  0.5959980000000  0.4830940000000  0.4332790000000 1.0
C      1  0.4061390000000  0.5108640000000  0.4346910000000 1.0
C      1  0.4099320000000  0.4927400000000  0.5641750000000 1.0
C      1  0.5892530000000  0.5681020000000  0.5075510000000 1.0
C      1  0.5945730000000  0.4354650000000  0.4817200000000 1.0
C      1  0.4036110000000  0.4363930000000  0.5060820000000 1.0
C      1  0.4117710000000  0.5686460000000  0.4912330000000 1.0
C      1  0.5138760000000  0.4271330000000  0.6029380000000 1.0
C      1  0.5148340000000  0.5780600000000  0.4045020000000 1.0
C      1  0.4808780000000  0.4211880000000  0.4062550000000 1.0
C      1  0.4822470000000  0.5768370000000  0.6043150000000 1.0
C      1  0.5092400000000  0.6008080000000  0.4265480000000 1.0
C      1  0.5143410000000  0.4093940000000  0.5759990000000 1.0
C      1  0.4890040000000  0.3983600000000  0.4279200000000 1.0
C      1  0.4852350000000  0.5963730000000  0.5784190000000 1.0
C      1  0.5618500000000  0.4564820000000  0.4898070000000 1.0
C      1  0.5555930000000  0.5422130000000  0.5071210000000 1.0
C      1  0.4395110000000  0.4538340000000  0.5057870000000 1.0
C      1  0.4431040000000  0.5442260000000  0.4956430000000 1.0
C      1  0.5624380000000  0.4899530000000  0.4536270000000 1.0
C      1  0.5518050000000  0.5089070000000  0.5441210000000 1.0
C      1  0.4399350000000  0.5136310000000  0.4557850000000 1.0
C      1  0.4434770000000  0.4901880000000  0.5425430000000 1.0
C      1  0.4774550000000  0.5458150000000  0.5915350000000 1.0
C      1  0.4834910000000  0.4539450000000  0.4153410000000 1.0
C      1  0.5125550000000  0.5458270000000  0.4122010000000 1.0
C      1  0.5184350000000  0.4586840000000  0.5927150000000 1.0
C      1  0.4808340000000  0.5936170000000  0.5446030000000 1.0
C      1  0.4892260000000  0.4127070000000  0.4588840000000 1.0
C      1  0.5170300000000  0.4110880000000  0.5428180000000 1.0
C      1  0.5097670000000  0.5874340000000  0.4572460000000 1.0
C      1  0.5920620000000  0.4678000000000  0.4857190000000 1.0
C      1  0.5813910000000  0.5280940000000  0.5102180000000 1.0
C      1  0.4124100000000  0.4691370000000  0.5101310000000 1.0
C      1  0.4127170000000  0.5351680000000  0.4904730000000 1.0
C      1  0.5920650000000  0.4886580000000  0.4651450000000 1.0
C      1  0.5808680000000  0.5104760000000  0.5324770000000 1.0
C      1  0.4110530000000  0.5176420000000  0.4680570000000 1.0
C      1  0.4142860000000  0.4885040000000  0.5303440000000 1.0
C      1  0.4240000000000  0.4234230000000  0.4844460000000 1.0
C      1  0.4279160000000  0.5792820000000  0.5177430000000 1.0
C      1  0.5782880000000  0.4264140000000  0.5102110000000 1.0
C      1  0.5673030000000  0.5730360000000  0.4826880000000 1.0
C      1  0.4262720000000  0.4868880000000  0.4256300000000 1.0
C      1  0.4297300000000  0.5158470000000  0.5748080000000 1.0
C      1  0.5789770000000  0.5108760000000  0.4238480000000 1.0
C      1  0.5683030000000  0.4837310000000  0.5752820000000 1.0
C      1  0.4484630000000  0.4534120000000  0.4749990000000 1.0
C      1  0.4501530000000  0.5478050000000  0.5278430000000 1.0
C      1  0.5535020000000  0.4551140000000  0.5225530000000 1.0
C      1  0.5441170000000  0.5413940000000  0.4764620000000 1.0
C      1  0.4487210000000  0.4817480000000  0.4579920000000 1.0
C      1  0.4568800000000  0.5196450000000  0.5458900000000 1.0
C      1  0.5519660000000  0.5208010000000  0.4515160000000 1.0
C      1  0.5434630000000  0.4790220000000  0.5445840000000 1.0
C      1  0.4545080000000  0.5946970000000  0.5635530000000 1.0
C      1  0.4613620000000  0.4125130000000  0.4407190000000 1.0
C      1  0.5362730000000  0.5835760000000  0.4383690000000 1.0
C      1  0.5437120000000  0.4165290000000  0.5597860000000 1.0
C      1  0.4551950000000  0.5696720000000  0.5848100000000 1.0
C      1  0.4559020000000  0.4389910000000  0.4208760000000 1.0
C      1  0.5415090000000  0.4370220000000  0.5856370000000 1.0
C      1  0.5415570000000  0.5600900000000  0.4155550000000 1.0
C      1  0.4944530000000  0.5604050000000  0.4617010000000 1.0
C      1  0.5051590000000  0.4311200000000  0.5231670000000 1.0
C      1  0.5005770000000  0.5669470000000  0.5430130000000 1.0
C      1  0.5009870000000  0.4429970000000  0.4638730000000 1.0
C      1  0.4976620000000  0.4642680000000  0.5684270000000 1.0
C      1  0.4996070000000  0.5359980000000  0.4383230000000 1.0
C      1  0.5020820000000  0.5403920000000  0.5703770000000 1.0
C      1  0.5096450000000  0.4550060000000  0.4356230000000 1.0
C      1  0.5229140000000  0.5072280000000  0.6087170000000 1.0
C      1  0.5255060000000  0.5012380000000  0.3947540000000 1.0
C      1  0.4754140000000  0.4986870000000  0.3965800000000 1.0
C      1  0.4719550000000  0.4947300000000  0.6074060000000 1.0
C      1  0.5239870000000  0.6048930000000  0.5035710000000 1.0
C      1  0.5296570000000  0.3934010000000  0.4961520000000 1.0
C      1  0.4752990000000  0.3950940000000  0.5048610000000 1.0
C      1  0.4715860000000  0.6080120000000  0.4970020000000 1.0
C      1  0.5549090000000  0.5671970000000  0.5291860000000 1.0
C      1  0.5579200000000  0.4325140000000  0.4660820000000 1.0
C      1  0.4461060000000  0.5655110000000  0.4699690000000 1.0
C      1  0.4415820000000  0.4315040000000  0.5295040000000 1.0
C      1  0.5510530000000  0.5324320000000  0.5670330000000 1.0
C      1  0.5590410000000  0.4688260000000  0.4278930000000 1.0
C      1  0.4428310000000  0.4672930000000  0.5663370000000 1.0
C      1  0.4532730000000  0.5322500000000  0.4303700000000 1.0
C      1  0.4801770000000  0.4915340000000  0.4595060000000 1.0
C      1  0.4894240000000  0.5141130000000  0.5371240000000 1.0
C      1  0.5109990000000  0.4774450000000  0.5429360000000 1.0
C      1  0.5191490000000  0.5171590000000  0.4570280000000 1.0
C      1  0.4805960000000  0.4635600000000  0.4735940000000 1.0
C      1  0.4832690000000  0.5445970000000  0.5297350000000 1.0
C      1  0.5108680000000  0.5387890000000  0.4802230000000 1.0
C      1  0.5201140000000  0.4573480000000  0.5208710000000 1.0
C      1  0.5439100000000  0.4647990000000  0.3989790000000 1.0
C      1  0.5408990000000  0.5416990000000  0.5932970000000 1.0
C      1  0.4537010000000  0.4579890000000  0.5924850000000 1.0
C      1  0.4725900000000  0.5462030000000  0.4106860000000 1.0
C      1  0.5438890000000  0.4060780000000  0.4582910000000 1.0
C      1  0.5450220000000  0.5945390000000  0.5370660000000 1.0
C      1  0.4563520000000  0.5929970000000  0.4600040000000 1.0
C      1  0.4609210000000  0.4106920000000  0.5399260000000 1.0
C      1  0.5081030000000  0.5689930000000  0.5103200000000 1.0
C      1  0.5158020000000  0.4305410000000  0.4915340000000 1.0
C      1  0.4849450000000  0.5707070000000  0.4918260000000 1.0
C      1  0.4822710000000  0.4340900000000  0.5004170000000 1.0
C      1  0.5097990000000  0.5124430000000  0.5714970000000 1.0
C      1  0.5156840000000  0.4863870000000  0.4238400000000 1.0
C      1  0.4875430000000  0.4936380000000  0.5709470000000 1.0
C      1  0.4898760000000  0.5037380000000  0.4334770000000 1.0
C      1  0.4911340000000  0.4752630000000  0.3943080000000 1.0
C      1  0.4850810000000  0.5199410000000  0.6086930000000 1.0
C      1  0.5094320000000  0.4817580000000  0.6113600000000 1.0
C      1  0.5130340000000  0.5258510000000  0.3886410000000 1.0
C      1  0.4917850000000  0.3933570000000  0.4837230000000 1.0
C      1  0.4874950000000  0.6085730000000  0.5191020000000 1.0
C      1  0.5081770000000  0.6073420000000  0.4813610000000 1.0
C      1  0.5129510000000  0.3924080000000  0.5176490000000 1.0
C      1  0.3964760000000  0.5365560000000  0.5163730000000 1.0
C      1  0.3958900000000  0.4689270000000  0.4843710000000 1.0
C      1  0.6006040000000  0.5333950000000  0.4912600000000 1.0
C      1  0.6073580000000  0.4703360000000  0.5110870000000 1.0
C      1  0.3959670000000  0.5129970000000  0.5334270000000 1.0
C      1  0.3925630000000  0.4926580000000  0.4670270000000 1.0
C      1  0.6004150000000  0.4868230000000  0.5339790000000 1.0
C      1  0.6046190000000  0.5157310000000  0.4679120000000 1.0
C      1  0.4779130000000  0.5992290000000  0.4362730000000 1.0
C      1  0.4833290000000  0.4095320000000  0.5638600000000 1.0
C      1  0.5153940000000  0.5903210000000  0.5634580000000 1.0
C      1  0.5201500000000  0.4014040000000  0.4360890000000 1.0
C      1  0.4864000000000  0.4365040000000  0.5847350000000 1.0
C      1  0.4831690000000  0.5726780000000  0.4156560000000 1.0
C      1  0.5108220000000  0.5673860000000  0.5884000000000 1.0
C      1  0.5131440000000  0.4275980000000  0.4155130000000 1.0
C      1  0.4390520000000  0.4290010000000  0.4554830000000 1.0
C      1  0.4398800000000  0.5715730000000  0.5480650000000 1.0
C      1  0.5638650000000  0.4296540000000  0.5405030000000 1.0
C      1  0.5558980000000  0.5619330000000  0.4526470000000 1.0
C      1  0.4376380000000  0.4575240000000  0.4368960000000 1.0
C      1  0.4445280000000  0.5435980000000  0.5669160000000 1.0
C      1  0.5618290000000  0.5400830000000  0.4271060000000 1.0
C      1  0.5565430000000  0.4541510000000  0.5630000000000 1.0
C      1  0.5399100000000  0.5780380000000  0.5011210000000 1.0
C      1  0.5481170000000  0.4195850000000  0.4956210000000 1.0
C      1  0.4532610000000  0.5825030000000  0.4982790000000 1.0
C      1  0.4528440000000  0.4166630000000  0.5012150000000 1.0
C      1  0.5413480000000  0.5034010000000  0.5820310000000 1.0
C      1  0.5474470000000  0.4992940000000  0.4181540000000 1.0
C      1  0.4547110000000  0.4959760000000  0.5802120000000 1.0
C      1  0.4570030000000  0.5000750000000  0.4224300000000 1.0
C      1  0.5313600000000  0.4674120000000  0.4919090000000 1.0
C      1  0.5242180000000  0.5294250000000  0.5085660000000 1.0
C      1  0.4707630000000  0.4647630000000  0.5058050000000 1.0
C      1  0.4748750000000  0.5331170000000  0.5005940000000 1.0
C      1  0.5330720000000  0.4890820000000  0.4664350000000 1.0
C      1  0.5196280000000  0.5088530000000  0.5331140000000 1.0
C      1  0.4638470000000  0.5136180000000  0.4765920000000 1.0
C      1  0.4710190000000  0.4885980000000  0.5253010000000 1.0
C      1  0.5958540000000  0.4311550000000  0.4534680000000 1.0
C      1  0.5938830000000  0.5589060000000  0.5323500000000 1.0
C      1  0.3982940000000  0.4418620000000  0.5356560000000 1.0
C      1  0.4070930000000  0.5626600000000  0.4620040000000 1.0
C      1  0.5971210000000  0.4547980000000  0.4298190000000 1.0
C      1  0.5967890000000  0.5372840000000  0.5573370000000 1.0
C      1  0.4036400000000  0.5416570000000  0.4372110000000 1.0
C      1  0.4011440000000  0.4643010000000  0.5592680000000 1.0
C      1  0.5970510000000  0.4474040000000  0.5298940000000 1.0
C      1  0.5911990000000  0.5531840000000  0.4687440000000 1.0
C      1  0.4052050000000  0.4460100000000  0.4668420000000 1.0
C      1  0.4054230000000  0.5593070000000  0.5336530000000 1.0
C      1  0.5965310000000  0.5321980000000  0.4437800000000 1.0
C      1  0.5924310000000  0.4685380000000  0.5562960000000 1.0
C      1  0.4023770000000  0.4723300000000  0.4453680000000 1.0
C      1  0.4083640000000  0.5328360000000  0.5542600000000 1.0
C      1  0.5166990000000  0.6113080000000  0.5362970000000 1.0
C      1  0.5190160000000  0.3854420000000  0.4663260000000 1.0
C      1  0.4802140000000  0.6159000000000  0.4660880000000 1.0
C      1  0.4850780000000  0.3879710000000  0.5367050000000 1.0
C      1  0.5127420000000  0.5397110000000  0.6090880000000 1.0
C      1  0.5184080000000  0.4555270000000  0.3966610000000 1.0
C      1  0.4817690000000  0.4621230000000  0.6079110000000 1.0
C      1  0.4839560000000  0.5260030000000  0.3924760000000 1.0
C      1  0.5680270000000  0.4409050000000  0.4376160000000 1.0
C      1  0.4267900000000  0.4438780000000  0.5529870000000 1.0
C      1  0.4341610000000  0.5515700000000  0.4446010000000 1.0
C      1  0.5682830000000  0.5535870000000  0.5540070000000 1.0
C      1  0.4854700000000  0.5021050000000  0.4992490000000 1.0
C      1  0.5436490000000  0.5038680000000  0.5018350000000 1.0
C      1  0.5120860000000  0.4948590000000  0.4926580000000 1.0
END
