TITL C-2782236-320-660 -0.00118486761342409 125000 -679.316505922247 0 0 110 (C1) n - 1
REM
REM in /home/nfs/bkarasulu/CARBON/AIRSS/Generating-Clusters/REBO/Higher-Symm/SD-CG/HFTN-CG
REM
REM
REM
REM
REM
REM ./C.cell (12c818d87b63d06a65506943cc24bca4)
REM
REM compiler GCC version 9.2.1 20190827 (Red Hat 9.2.1-1)
REM options -cpp -mtune=generic -march=x86-64 -g -O0 -fpre-include=/usr/include/finclude/math-vector-fortran.h
REM seed -21499010 1741443994 1929315150 -423055028 -1726653223 608882270 -998334986 -309197655 1671250859 788225912 -1977440414 -713758938 -781619550 -1435123170 -732156986 1874073065 1621920618 -709874581 -384073718 -1796993402 -1170682442 1573244038 -737350478 670676019 333226210 -1315734191 -1496512764 66872676 -146438896 101160016 1677896253 756597633 -349976467
REM
CELL 1.54180   50.00000   50.00000   50.00000   90.00000   90.00000   90.00000
LATT -1
SFAC C  
C      1  0.3855690000000  0.4817900000000  0.5176590000000 1.0
C      1  0.3851220000000  0.5105830000000  0.5225560000000 1.0
C      1  0.3844190000000  0.5241010000000  0.4966620000000 1.0
C      1  0.3844830000000  0.5036070000000  0.4758400000000 1.0
C      1  0.3854870000000  0.4774650000000  0.4887960000000 1.0
C      1  0.5729350000000  0.5440780000000  0.5073040000000 1.0
C      1  0.5721640000000  0.5093770000000  0.4559070000000 1.0
C      1  0.5853020000000  0.4538400000000  0.4725600000000 1.0
C      1  0.5915960000000  0.4517840000000  0.5319410000000 1.0
C      1  0.5843360000000  0.5063750000000  0.5533190000000 1.0
C      1  0.5017940000000  0.5037270000000  0.5722690000000 1.0
C      1  0.5020160000000  0.5749720000000  0.5172990000000 1.0
C      1  0.4930080000000  0.5444720000000  0.4370160000000 1.0
C      1  0.4996770000000  0.4585080000000  0.4407210000000 1.0
C      1  0.4975710000000  0.4326930000000  0.5221440000000 1.0
C      1  0.3973600000000  0.5071180000000  0.4511760000000 1.0
C      1  0.3997860000000  0.4562590000000  0.4771060000000 1.0
C      1  0.3997580000000  0.4648510000000  0.5349420000000 1.0
C      1  0.3990030000000  0.5219230000000  0.5442180000000 1.0
C      1  0.3972980000000  0.5487830000000  0.4927740000000 1.0
C      1  0.4402030000000  0.5666490000000  0.5110040000000 1.0
C      1  0.4390750000000  0.5316160000000  0.4404300000000 1.0
C      1  0.4420810000000  0.4540730000000  0.4504900000000 1.0
C      1  0.4429960000000  0.4412450000000  0.5278550000000 1.0
C      1  0.4430840000000  0.5101820000000  0.5644600000000 1.0
C      1  0.4947830000000  0.5750790000000  0.4779940000000 1.0
C      1  0.4958250000000  0.5074260000000  0.4230110000000 1.0
C      1  0.4994780000000  0.4318900000000  0.4705430000000 1.0
C      1  0.4989340000000  0.4533750000000  0.5562660000000 1.0
C      1  0.4949200000000  0.5466790000000  0.5606940000000 1.0
C      1  0.5237890000000  0.4138920000000  0.5194380000000 1.0
C      1  0.5259500000000  0.4911760000000  0.5899180000000 1.0
C      1  0.5268460000000  0.5863850000000  0.5356500000000 1.0
C      1  0.5193140000000  0.5618930000000  0.4279500000000 1.0
C      1  0.5284860000000  0.4588430000000  0.4230090000000 1.0
C      1  0.5397790000000  0.5644800000000  0.5530680000000 1.0
C      1  0.5372810000000  0.5640430000000  0.4535660000000 1.0
C      1  0.5424600000000  0.4849880000000  0.4215450000000 1.0
C      1  0.5470310000000  0.4219190000000  0.4970110000000 1.0
C      1  0.5441150000000  0.4681560000000  0.5776700000000 1.0
C      1  0.5330250000000  0.5327600000000  0.5046510000000 1.0
C      1  0.5340980000000  0.5176700000000  0.4746680000000 1.0
C      1  0.5355440000000  0.4849160000000  0.4790810000000 1.0
C      1  0.5355180000000  0.4791740000000  0.5116650000000 1.0
C      1  0.5337620000000  0.5086000000000  0.5286410000000 1.0
C      1  0.5860380000000  0.5036480000000  0.4801680000000 1.0
C      1  0.5941680000000  0.4763200000000  0.4872040000000 1.0
C      1  0.5973450000000  0.4743460000000  0.5158860000000 1.0
C      1  0.5923610000000  0.5005780000000  0.5270080000000 1.0
C      1  0.5856730000000  0.5188570000000  0.5053590000000 1.0
C      1  0.5473060000000  0.4404780000000  0.4432020000000 1.0
C      1  0.5471160000000  0.4299680000000  0.5361410000000 1.0
C      1  0.5543280000000  0.5053020000000  0.5796380000000 1.0
C      1  0.5552970000000  0.5778640000000  0.5194380000000 1.0
C      1  0.5435910000000  0.5387310000000  0.4236290000000 1.0
C      1  0.4890640000000  0.5458870000000  0.4669070000000 1.0
C      1  0.4915600000000  0.4868140000000  0.4472150000000 1.0
C      1  0.4931480000000  0.4487820000000  0.4971320000000 1.0
C      1  0.4926950000000  0.4845950000000  0.5504680000000 1.0
C      1  0.4894960000000  0.5492270000000  0.5292980000000 1.0
C      1  0.4264390000000  0.4601390000000  0.5427490000000 1.0
C      1  0.4252700000000  0.5293490000000  0.5515290000000 1.0
C      1  0.4231840000000  0.5592340000000  0.4881840000000 1.0
C      1  0.4233350000000  0.5069880000000  0.4401970000000 1.0
C      1  0.4260690000000  0.4463210000000  0.4738200000000 1.0
C      1  0.4618900000000  0.5527070000000  0.4806520000000 1.0
C      1  0.4625090000000  0.4994640000000  0.4430520000000 1.0
C      1  0.4650830000000  0.4479980000000  0.4824350000000 1.0
C      1  0.4652760000000  0.4703240000000  0.5436190000000 1.0
C      1  0.4635840000000  0.5340760000000  0.5399710000000 1.0
C      1  0.5016140000000  0.5241780000000  0.4817030000000 1.0
C      1  0.5024940000000  0.4936210000000  0.4734920000000 1.0
C      1  0.5030070000000  0.4760920000000  0.5001050000000 1.0
C      1  0.5021620000000  0.4961950000000  0.5248530000000 1.0
C      1  0.5012550000000  0.5259000000000  0.5134840000000 1.0
C      1  0.4713100000000  0.5766500000000  0.5025650000000 1.0
C      1  0.4685770000000  0.5276420000000  0.4260780000000 1.0
C      1  0.4735510000000  0.4415430000000  0.4506740000000 1.0
C      1  0.4728000000000  0.4378920000000  0.5409520000000 1.0
C      1  0.4738570000000  0.5220220000000  0.5700810000000 1.0
C      1  0.4406580000000  0.4825430000000  0.5583870000000 1.0
C      1  0.4383120000000  0.5514490000000  0.5349760000000 1.0
C      1  0.4368230000000  0.5503930000000  0.4617970000000 1.0
C      1  0.4384070000000  0.4799520000000  0.4393000000000 1.0
C      1  0.4406900000000  0.4381690000000  0.4997000000000 1.0
C      1  0.5774280000000  0.4313760000000  0.4876050000000 1.0
C      1  0.5907170000000  0.4563970000000  0.5590280000000 1.0
C      1  0.5800230000000  0.5327450000000  0.5581240000000 1.0
C      1  0.5641800000000  0.5534110000000  0.4829530000000 1.0
C      1  0.5649480000000  0.4863640000000  0.4397480000000 1.0
C      1  0.4634780000000  0.5134240000000  0.5178550000000 1.0
C      1  0.4629000000000  0.5235820000000  0.4917040000000 1.0
C      1  0.4633960000000  0.5018830000000  0.4740070000000 1.0
C      1  0.4645700000000  0.4782710000000  0.4893120000000 1.0
C      1  0.4645580000000  0.4854090000000  0.5165390000000 1.0
C      1  0.5209610000000  0.5271400000000  0.4468530000000 1.0
C      1  0.5260050000000  0.4602000000000  0.4624190000000 1.0
C      1  0.5246800000000  0.4531090000000  0.5261130000000 1.0
C      1  0.5313590000000  0.5161670000000  0.5595960000000 1.0
C      1  0.5314880000000  0.5636780000000  0.5035340000000 1.0
C      1  0.5310710000000  0.4490820000000  0.5592900000000 1.0
C      1  0.5231940000000  0.5451130000000  0.5642230000000 1.0
C      1  0.5242850000000  0.5745040000000  0.4761140000000 1.0
C      1  0.5272110000000  0.5100080000000  0.4179960000000 1.0
C      1  0.5318440000000  0.4277110000000  0.4705370000000 1.0
C      1  0.5603260000000  0.5387600000000  0.4532600000000 1.0
C      1  0.5713500000000  0.4596340000000  0.4490200000000 1.0
C      1  0.5728550000000  0.4320120000000  0.5195400000000 1.0
C      1  0.5745420000000  0.4803590000000  0.5700150000000 1.0
C      1  0.5682330000000  0.5540090000000  0.5390820000000 1.0
END
