TITL C-2782237-5345-1415 0.00142131648240656 125000 -391.465960882073 0 0 68 (C1) n - 1
REM
REM in /home/nfs/bkarasulu/CARBON/AIRSS/Generating-Clusters/REBO/Higher-Symm/SD-CG/HFTN-CG
REM
REM
REM
REM
REM
REM ./C.cell (12c818d87b63d06a65506943cc24bca4)
REM
REM compiler GCC version 9.2.1 20190827 (Red Hat 9.2.1-1)
REM options -cpp -mtune=generic -march=x86-64 -g -O0 -fpre-include=/usr/include/finclude/math-vector-fortran.h
REM seed 206143782 140671116 -392155859 1568578932 -958817039 2041076255 -2023923729 555283081 2075637551 -1146522551 392259204 -853923885 1077418009 479125683 -752642909 -225040570 481365765 413778325 2123778318 -1273983649 1811189796 -636749264 -504261060 -2107345985 1485632333 -887715651 -837937227 910262723 -1083446350 -2144571953 -30855771 515684911 1432378380
REM
CELL 1.54180   50.00000   50.00000   50.00000   90.00000   90.00000   90.00000
LATT -1
SFAC C  
C      1  0.5379230000000  0.4300250000000  0.4925160000000 1.0
C      1  0.5070870000000  0.4831220000000  0.4411880000000 1.0
C      1  0.5652760000000  0.5458840000000  0.4435390000000 1.0
C      1  0.4730700000000  0.4949360000000  0.5246440000000 1.0
C      1  0.5726690000000  0.4621540000000  0.5082390000000 1.0
C      1  0.5464680000000  0.4932790000000  0.4391260000000 1.0
C      1  0.5625860000000  0.4984830000000  0.4752050000000 1.0
C      1  0.5356440000000  0.5036350000000  0.5543420000000 1.0
C      1  0.5294020000000  0.5491030000000  0.5378780000000 1.0
C      1  0.4891220000000  0.4249980000000  0.4636680000000 1.0
C      1  0.5252140000000  0.5647530000000  0.5138140000000 1.0
C      1  0.5118610000000  0.4672350000000  0.4858580000000 1.0
C      1  0.4289300000000  0.4637360000000  0.4998670000000 1.0
C      1  0.4832850000000  0.5377570000000  0.5580000000000 1.0
C      1  0.4526530000000  0.5013900000000  0.4631690000000 1.0
C      1  0.5159830000000  0.4498020000000  0.5405400000000 1.0
C      1  0.4810310000000  0.5052950000000  0.5681000000000 1.0
C      1  0.5121080000000  0.5443720000000  0.5601240000000 1.0
C      1  0.4725890000000  0.6289250000000  0.4250150000000 1.0
C      1  0.4343640000000  0.5241740000000  0.4734720000000 1.0
C      1  0.4674580000000  0.4379110000000  0.4941050000000 1.0
C      1  0.4395270000000  0.4827140000000  0.5424740000000 1.0
C      1  0.5311280000000  0.4781670000000  0.5387850000000 1.0
C      1  0.4740390000000  0.6100360000000  0.4431240000000 1.0
C      1  0.4808410000000  0.4069560000000  0.4881820000000 1.0
C      1  0.5020800000000  0.4819010000000  0.5214610000000 1.0
C      1  0.4920950000000  0.5072710000000  0.4607990000000 1.0
C      1  0.5801140000000  0.5004930000000  0.4997360000000 1.0
C      1  0.4450140000000  0.4435950000000  0.5129550000000 1.0
C      1  0.5253480000000  0.4637030000000  0.4555070000000 1.0
C      1  0.5221940000000  0.5127480000000  0.4456520000000 1.0
C      1  0.5326980000000  0.5124800000000  0.4774270000000 1.0
C      1  0.5518320000000  0.5264890000000  0.5397250000000 1.0
C      1  0.5133420000000  0.5143470000000  0.5688170000000 1.0
C      1  0.5008450000000  0.5645430000000  0.4997710000000 1.0
C      1  0.4552660000000  0.4526640000000  0.5402340000000 1.0
C      1  0.4208530000000  0.5108780000000  0.5018980000000 1.0
C      1  0.4751490000000  0.4796640000000  0.4497140000000 1.0
C      1  0.4522690000000  0.5491050000000  0.4874850000000 1.0
C      1  0.5571700000000  0.5270240000000  0.4587920000000 1.0
C      1  0.4698040000000  0.5454180000000  0.5352580000000 1.0
C      1  0.4842250000000  0.5140020000000  0.4913210000000 1.0
C      1  0.4931820000000  0.4521580000000  0.5077870000000 1.0
C      1  0.4795600000000  0.5412150000000  0.5063830000000 1.0
C      1  0.5234530000000  0.4298080000000  0.5206020000000 1.0
C      1  0.5583670000000  0.4715720000000  0.5258400000000 1.0
C      1  0.4770330000000  0.5710030000000  0.4805450000000 1.0
C      1  0.5641910000000  0.4490870000000  0.4817000000000 1.0
C      1  0.5775270000000  0.5155260000000  0.5212970000000 1.0
C      1  0.5735610000000  0.5700340000000  0.5154550000000 1.0
C      1  0.4669340000000  0.4498330000000  0.4621340000000 1.0
C      1  0.5162090000000  0.4368210000000  0.4702420000000 1.0
C      1  0.5490450000000  0.5781640000000  0.5055360000000 1.0
C      1  0.4885530000000  0.4524290000000  0.5478540000000 1.0
C      1  0.5564880000000  0.4704260000000  0.4608290000000 1.0
C      1  0.4686900000000  0.4764840000000  0.5605880000000 1.0
C      1  0.4234690000000  0.4864360000000  0.5158280000000 1.0
C      1  0.4452050000000  0.4709210000000  0.4744280000000 1.0
C      1  0.4137800000000  0.5340370000000  0.4533250000000 1.0
C      1  0.4589450000000  0.4937050000000  0.4960300000000 1.0
C      1  0.4415090000000  0.5379790000000  0.5363960000000 1.0
C      1  0.4967900000000  0.4180160000000  0.5119020000000 1.0
C      1  0.5776220000000  0.5459240000000  0.5289620000000 1.0
C      1  0.5127310000000  0.4985350000000  0.4938770000000 1.0
C      1  0.4306710000000  0.5376940000000  0.5106450000000 1.0
C      1  0.5662360000000  0.4151360000000  0.4808490000000 1.0
C      1  0.4541830000000  0.5110490000000  0.5479120000000 1.0
C      1  0.4755110000000  0.5908420000000  0.4615260000000 1.0
END
