TITL C-2782227-3064-1461 0.000444612702445104 125000 -691.355339952891 0 0 118 (C1) n - 1
REM
REM in /home/nfs/bkarasulu/CARBON/AIRSS/Generating-Clusters/REBO/Higher-Symm/SD-CG/HFTN-CG
REM
REM
REM
REM
REM
REM ./C.cell (12c818d87b63d06a65506943cc24bca4)
REM
REM compiler GCC version 9.2.1 20190827 (Red Hat 9.2.1-1)
REM options -cpp -mtune=generic -march=x86-64 -g -O0 -fpre-include=/usr/include/finclude/math-vector-fortran.h
REM seed -1979148593 -1462393878 1620124754 -2019948161 -141462142 2022401660 1898757738 -528399820 319131208 -1085243576 -522867051 -2135272646 -2038982870 -680009691 831230560 -961379154 1217938615 610293861 -615698398 -55086932 -649949772 101723646 -1084360316 -302404673 1644642877 -575133563 1644236299 -1170300293 -2008779586 1914631012 236956482 384193562 1295475254
REM
CELL 1.54180   50.00000   50.00000   50.00000   90.00000   90.00000   90.00000
LATT -1
SFAC C  
C      1  0.5694370000000  0.5056560000000  0.5441220000000 1.0
C      1  0.5038690000000  0.5771140000000  0.5440360000000 1.0
C      1  0.4312400000000  0.4955800000000  0.5439870000000 1.0
C      1  0.5040450000000  0.4266040000000  0.5418550000000 1.0
C      1  0.5691340000000  0.5018310000000  0.4546910000000 1.0
C      1  0.4963480000000  0.5709420000000  0.4552720000000 1.0
C      1  0.4309370000000  0.4962080000000  0.4552530000000 1.0
C      1  0.4924350000000  0.4229760000000  0.4506810000000 1.0
C      1  0.5301270000000  0.5193960000000  0.4057300000000 1.0
C      1  0.4780340000000  0.5189890000000  0.4028220000000 1.0
C      1  0.4745770000000  0.4876390000000  0.4051740000000 1.0
C      1  0.5138120000000  0.4695870000000  0.4079260000000 1.0
C      1  0.5245890000000  0.5190800000000  0.5954640000000 1.0
C      1  0.4858790000000  0.5278150000000  0.5918160000000 1.0
C      1  0.4748300000000  0.4770360000000  0.5915480000000 1.0
C      1  0.5137490000000  0.4692470000000  0.5900880000000 1.0
C      1  0.4910540000000  0.5666640000000  0.4888120000000 1.0
C      1  0.4371190000000  0.4852230000000  0.4870070000000 1.0
C      1  0.5084160000000  0.4294780000000  0.4786360000000 1.0
C      1  0.5652200000000  0.5139250000000  0.4864360000000 1.0
C      1  0.4901200000000  0.5664070000000  0.5148310000000 1.0
C      1  0.4369860000000  0.4855670000000  0.5119490000000 1.0
C      1  0.5111460000000  0.4316740000000  0.5089890000000 1.0
C      1  0.5651640000000  0.5165590000000  0.5118870000000 1.0
C      1  0.4775960000000  0.4429740000000  0.5532080000000 1.0
C      1  0.5506490000000  0.4793190000000  0.5553780000000 1.0
C      1  0.5230550000000  0.5558290000000  0.5601960000000 1.0
C      1  0.4513580000000  0.5205270000000  0.5548360000000 1.0
C      1  0.4742270000000  0.4458770000000  0.4364450000000 1.0
C      1  0.5483150000000  0.4765750000000  0.4448340000000 1.0
C      1  0.5242270000000  0.5562420000000  0.4422190000000 1.0
C      1  0.4505870000000  0.5221300000000  0.4452650000000 1.0
C      1  0.5269400000000  0.4561630000000  0.4278190000000 1.0
C      1  0.5430750000000  0.5370540000000  0.4224190000000 1.0
C      1  0.4656960000000  0.5372340000000  0.4198550000000 1.0
C      1  0.4593620000000  0.4683130000000  0.4175550000000 1.0
C      1  0.5301630000000  0.4574940000000  0.5718500000000 1.0
C      1  0.5395940000000  0.5358640000000  0.5799460000000 1.0
C      1  0.4704110000000  0.5406510000000  0.5729490000000 1.0
C      1  0.4604200000000  0.4613310000000  0.5742880000000 1.0
C      1  0.4816890000000  0.5052160000000  0.5586660000000 1.0
C      1  0.4935700000000  0.4734190000000  0.5558230000000 1.0
C      1  0.5198700000000  0.4937970000000  0.5591600000000 1.0
C      1  0.5076530000000  0.5254740000000  0.5583860000000 1.0
C      1  0.4813860000000  0.5075840000000  0.4413380000000 1.0
C      1  0.4913100000000  0.4750630000000  0.4404900000000 1.0
C      1  0.5186650000000  0.4932450000000  0.4397910000000 1.0
C      1  0.5097030000000  0.5250660000000  0.4404470000000 1.0
C      1  0.5744910000000  0.5615000000000  0.5448240000000 1.0
C      1  0.4488310000000  0.5795940000000  0.5426020000000 1.0
C      1  0.4232670000000  0.4422800000000  0.5400470000000 1.0
C      1  0.5521080000000  0.4253030000000  0.5457660000000 1.0
C      1  0.5772690000000  0.5558790000000  0.4588620000000 1.0
C      1  0.4447970000000  0.5782980000000  0.4542280000000 1.0
C      1  0.4235840000000  0.4424880000000  0.4540700000000 1.0
C      1  0.5427550000000  0.4244230000000  0.4588570000000 1.0
C      1  0.5530820000000  0.4300580000000  0.4887390000000 1.0
C      1  0.5653320000000  0.5680190000000  0.4873950000000 1.0
C      1  0.4402330000000  0.5712680000000  0.4861600000000 1.0
C      1  0.4344840000000  0.4321080000000  0.4833020000000 1.0
C      1  0.5565420000000  0.4308290000000  0.5148340000000 1.0
C      1  0.5644540000000  0.5693370000000  0.5143450000000 1.0
C      1  0.4406330000000  0.5707680000000  0.5126470000000 1.0
C      1  0.4342830000000  0.4322650000000  0.5102550000000 1.0
C      1  0.5049410000000  0.5346380000000  0.4696670000000 1.0
C      1  0.4722670000000  0.4937710000000  0.4700740000000 1.0
C      1  0.4926420000000  0.4661960000000  0.4717040000000 1.0
C      1  0.5313300000000  0.5044940000000  0.4674590000000 1.0
C      1  0.5086200000000  0.5326710000000  0.5256940000000 1.0
C      1  0.4719830000000  0.4940200000000  0.5293640000000 1.0
C      1  0.4933120000000  0.4678760000000  0.5238830000000 1.0
C      1  0.5303960000000  0.5070390000000  0.5313650000000 1.0
C      1  0.4262700000000  0.5218870000000  0.5239700000000 1.0
C      1  0.4781470000000  0.4154460000000  0.5242560000000 1.0
C      1  0.5747330000000  0.4797200000000  0.5235880000000 1.0
C      1  0.5243190000000  0.5866100000000  0.5185850000000 1.0
C      1  0.4255790000000  0.5216050000000  0.4763260000000 1.0
C      1  0.4726130000000  0.4124080000000  0.4763930000000 1.0
C      1  0.5737840000000  0.4766040000000  0.4756700000000 1.0
C      1  0.5226500000000  0.5835680000000  0.4712830000000 1.0
C      1  0.4360850000000  0.4688740000000  0.4391490000000 1.0
C      1  0.5220690000000  0.4310210000000  0.4410960000000 1.0
C      1  0.5679900000000  0.5308090000000  0.4408000000000 1.0
C      1  0.4691260000000  0.5590280000000  0.4434360000000 1.0
C      1  0.4338670000000  0.4671000000000  0.5579780000000 1.0
C      1  0.5280240000000  0.4318460000000  0.5589520000000 1.0
C      1  0.5636350000000  0.5339050000000  0.5595350000000 1.0
C      1  0.4747350000000  0.5636540000000  0.5515410000000 1.0
C      1  0.5419370000000  0.4815520000000  0.4840000000000 1.0
C      1  0.5274860000000  0.5519420000000  0.4818340000000 1.0
C      1  0.4586940000000  0.5187760000000  0.4842060000000 1.0
C      1  0.4721310000000  0.4453040000000  0.4837790000000 1.0
C      1  0.5424490000000  0.4842260000000  0.5166320000000 1.0
C      1  0.5278350000000  0.5537190000000  0.5117440000000 1.0
C      1  0.4591560000000  0.5186060000000  0.5156820000000 1.0
C      1  0.4734870000000  0.4461390000000  0.5135600000000 1.0
C      1  0.5657220000000  0.4537370000000  0.5383490000000 1.0
C      1  0.5438320000000  0.5739450000000  0.5420230000000 1.0
C      1  0.4391410000000  0.5475010000000  0.5376780000000 1.0
C      1  0.4514360000000  0.4257090000000  0.5394450000000 1.0
C      1  0.5604880000000  0.4509790000000  0.4637380000000 1.0
C      1  0.5497940000000  0.5734970000000  0.4570440000000 1.0
C      1  0.4362290000000  0.5473130000000  0.4626650000000 1.0
C      1  0.4528600000000  0.4273980000000  0.4540580000000 1.0
C      1  0.5219020000000  0.4626150000000  0.5129170000000 1.0
C      1  0.5479780000000  0.5361050000000  0.5298770000000 1.0
C      1  0.4769060000000  0.5398910000000  0.5272920000000 1.0
C      1  0.4540380000000  0.4657300000000  0.5304740000000 1.0
C      1  0.5209820000000  0.4585030000000  0.4810270000000 1.0
C      1  0.5462880000000  0.5321470000000  0.4671220000000 1.0
C      1  0.4746070000000  0.5424350000000  0.4726500000000 1.0
C      1  0.4531270000000  0.4655820000000  0.4676740000000 1.0
C      1  0.5896120000000  0.4775830000000  0.4993560000000 1.0
C      1  0.5217910000000  0.6005330000000  0.4942640000000 1.0
C      1  0.4104430000000  0.5221190000000  0.5003810000000 1.0
C      1  0.4766540000000  0.3985060000000  0.5008840000000 1.0
C      1  0.5061750000000  0.5004970000000  0.4013090000000 1.0
C      1  0.4993920000000  0.4981560000000  0.5965410000000 1.0
END
