TITL C-2782239-8622-824 -0.000242148802567757 125000 -498.927769284367 0 0 84 (S4) n - 1
REM
REM in /home/nfs/bkarasulu/CARBON/AIRSS/Generating-Clusters/REBO/Higher-Symm/SD-CG/HFTN-CG
REM
REM
REM
REM
REM
REM ./C.cell (12c818d87b63d06a65506943cc24bca4)
REM
REM compiler GCC version 9.2.1 20190827 (Red Hat 9.2.1-1)
REM options -cpp -mtune=generic -march=x86-64 -g -O0 -fpre-include=/usr/include/finclude/math-vector-fortran.h
REM seed 1125484450 637696415 -190221334 -624403145 -1385608016 75430224 -651410527 -1214090501 1681887054 1486822389 -1653191040 -616519692 -1390880383 1374006245 744081662 -1413468340 -1453614876 -1079196637 -584128026 672742591 1095449605 -1113352479 -217422471 -2014758379 1732848486 229936250 608623917 1455371127 1026199148 -1641221200 89043276 1528296789 -1281717610
REM
CELL 1.54180   50.00000   50.00000   50.00000   90.00000   90.00000   90.00000
LATT -1
SFAC C  
C      1  0.5737450000000  0.5213020000000  0.5097200000000 1.0
C      1  0.5213010000000  0.4262530000000  0.4902910000000 1.0
C      1  0.4262550000000  0.4787010000000  0.5097240000000 1.0
C      1  0.4787000000000  0.5737440000000  0.4902660000000 1.0
C      1  0.4131240000000  0.5281070000000  0.5114870000000 1.0
C      1  0.5281060000000  0.5868740000000  0.4884930000000 1.0
C      1  0.5868760000000  0.4718970000000  0.5114990000000 1.0
C      1  0.4718950000000  0.4131220000000  0.4885200000000 1.0
C      1  0.4233650000000  0.4809180000000  0.4700010000000 1.0
C      1  0.4809220000000  0.5766410000000  0.5299880000000 1.0
C      1  0.5766360000000  0.5190720000000  0.4699970000000 1.0
C      1  0.5190770000000  0.4233690000000  0.5300140000000 1.0
C      1  0.4341480000000  0.5114430000000  0.4603450000000 1.0
C      1  0.5114480000000  0.5658590000000  0.5396420000000 1.0
C      1  0.5658530000000  0.4885440000000  0.4603510000000 1.0
C      1  0.4885500000000  0.4341540000000  0.5396630000000 1.0
C      1  0.4485630000000  0.4623390000000  0.4803180000000 1.0
C      1  0.4623420000000  0.5514410000000  0.5196780000000 1.0
C      1  0.5514380000000  0.5376540000000  0.4803080000000 1.0
C      1  0.5376570000000  0.4485660000000  0.5196960000000 1.0
C      1  0.4334530000000  0.5315140000000  0.4858550000000 1.0
C      1  0.5315160000000  0.5665490000000  0.5141280000000 1.0
C      1  0.5665470000000  0.4684810000000  0.4858680000000 1.0
C      1  0.4684830000000  0.4334550000000  0.5141490000000 1.0
C      1  0.4611330000000  0.5291770000000  0.4570990000000 1.0
C      1  0.5291830000000  0.5388740000000  0.5428900000000 1.0
C      1  0.5388680000000  0.4708090000000  0.4571100000000 1.0
C      1  0.4708150000000  0.4611400000000  0.5429010000000 1.0
C      1  0.4426820000000  0.5037110000000  0.5007530000000 1.0
C      1  0.5037110000000  0.5573170000000  0.4992370000000 1.0
C      1  0.5573180000000  0.4962890000000  0.5007560000000 1.0
C      1  0.4962890000000  0.4426820000000  0.4992550000000 1.0
C      1  0.4463260000000  0.4527770000000  0.5124420000000 1.0
C      1  0.4527760000000  0.5536710000000  0.4875550000000 1.0
C      1  0.5536730000000  0.5472270000000  0.5124290000000 1.0
C      1  0.5472250000000  0.4463250000000  0.4875740000000 1.0
C      1  0.4469250000000  0.4836180000000  0.4454260000000 1.0
C      1  0.4836260000000  0.5530840000000  0.5545670000000 1.0
C      1  0.5530770000000  0.5163650000000  0.4454230000000 1.0
C      1  0.5163720000000  0.4469330000000  0.5545840000000 1.0
C      1  0.5995380000000  0.5136400000000  0.4939020000000 1.0
C      1  0.5136410000000  0.4004630000000  0.5061140000000 1.0
C      1  0.4004620000000  0.4863580000000  0.4939030000000 1.0
C      1  0.4863590000000  0.5995390000000  0.5060810000000 1.0
C      1  0.5273660000000  0.5122950000000  0.4339210000000 1.0
C      1  0.5123040000000  0.4726460000000  0.5660820000000 1.0
C      1  0.4726360000000  0.4876840000000  0.4339240000000 1.0
C      1  0.4876940000000  0.5273750000000  0.5660720000000 1.0
C      1  0.5029290000000  0.5559810000000  0.4462810000000 1.0
C      1  0.5559890000000  0.4970810000000  0.5537110000000 1.0
C      1  0.4970730000000  0.4440020000000  0.4462990000000 1.0
C      1  0.4440090000000  0.5029360000000  0.5537080000000 1.0
C      1  0.4844000000000  0.4794610000000  0.5646210000000 1.0
C      1  0.4794520000000  0.5155890000000  0.4353790000000 1.0
C      1  0.5155980000000  0.5205600000000  0.5646150000000 1.0
C      1  0.5205510000000  0.4843910000000  0.4353840000000 1.0
C      1  0.4815290000000  0.5179280000000  0.4792890000000 1.0
C      1  0.5179310000000  0.5184750000000  0.5207050000000 1.0
C      1  0.5184720000000  0.4820650000000  0.4792960000000 1.0
C      1  0.4820680000000  0.4815320000000  0.5207100000000 1.0
C      1  0.4713830000000  0.4400050000000  0.4682170000000 1.0
C      1  0.4400090000000  0.5286230000000  0.5317860000000 1.0
C      1  0.5286180000000  0.5599850000000  0.4681990000000 1.0
C      1  0.5599900000000  0.4713880000000  0.5317970000000 1.0
C      1  0.3925110000000  0.5108200000000  0.5047960000000 1.0
C      1  0.5108200000000  0.6074880000000  0.4951830000000 1.0
C      1  0.6074890000000  0.4891810000000  0.5048040000000 1.0
C      1  0.4891800000000  0.3925100000000  0.4952170000000 1.0
C      1  0.5296980000000  0.4956540000000  0.5666640000000 1.0
C      1  0.4956450000000  0.4702900000000  0.4333420000000 1.0
C      1  0.4702990000000  0.5043670000000  0.5666620000000 1.0
C      1  0.5043580000000  0.5296890000000  0.4333320000000 1.0
C      1  0.4902100000000  0.4673750000000  0.4773540000000 1.0
C      1  0.4673790000000  0.5097940000000  0.5226490000000 1.0
C      1  0.5097910000000  0.5326170000000  0.4773440000000 1.0
C      1  0.5326210000000  0.4902130000000  0.5226530000000 1.0
C      1  0.5114890000000  0.4697660000000  0.5109630000000 1.0
C      1  0.4697650000000  0.4885100000000  0.4890430000000 1.0
C      1  0.4885110000000  0.5302370000000  0.5109530000000 1.0
C      1  0.5302360000000  0.5114870000000  0.4890410000000 1.0
C      1  0.5258320000000  0.4407470000000  0.4610720000000 1.0
C      1  0.4407520000000  0.4741750000000  0.5389410000000 1.0
C      1  0.4741690000000  0.5592410000000  0.4610520000000 1.0
C      1  0.5592460000000  0.5258380000000  0.5389350000000 1.0
END
