TITL C-2782234-8014-888 0.0030550065379481 125000 -1125.63781853195 0 0 194 (C2) n - 1
REM
REM in /home/nfs/bkarasulu/CARBON/AIRSS/Generating-Clusters/REBO/Higher-Symm/SD-CG/HFTN-CG
REM
REM
REM
REM
REM
REM ./C.cell (12c818d87b63d06a65506943cc24bca4)
REM
REM compiler GCC version 9.2.1 20190827 (Red Hat 9.2.1-1)
REM options -cpp -mtune=generic -march=x86-64 -g -O0 -fpre-include=/usr/include/finclude/math-vector-fortran.h
REM seed -2041602670 1981974890 2060833458 -1183467549 -450540075 -243182482 -1364927836 -38506264 -1410733263 1059362726 1705488296 710603881 -873406160 -1890692392 705187049 -835376879 -864658708 -2008568259 1365018289 -1378015566 1208091269 1382538629 337791932 -149045526 -556904628 264377965 1081632537 -1896316721 365296627 1988032647 -660445451 508493293 -458130806
REM
CELL 1.54180   50.00000   50.00000   50.00000   90.00000   90.00000   90.00000
LATT -1
SFAC C  
C      1  0.5181210000000  0.5127070000000  0.4540100000000 1.0
C      1  0.4818700000000  0.4872770000000  0.4540180000000 1.0
C      1  0.5210430000000  0.4819450000000  0.4531780000000 1.0
C      1  0.4789480000000  0.5180380000000  0.4531760000000 1.0
C      1  0.4437370000000  0.5894250000000  0.5381320000000 1.0
C      1  0.5562700000000  0.4105890000000  0.5381530000000 1.0
C      1  0.4470310000000  0.4103260000000  0.5374810000000 1.0
C      1  0.5529760000000  0.5896870000000  0.5374390000000 1.0
C      1  0.5931870000000  0.4735800000000  0.4716900000000 1.0
C      1  0.4068080000000  0.5264090000000  0.4716980000000 1.0
C      1  0.5899120000000  0.5246050000000  0.4736330000000 1.0
C      1  0.4100830000000  0.4753850000000  0.4736580000000 1.0
C      1  0.5719780000000  0.4083060000000  0.4605490000000 1.0
C      1  0.4280150000000  0.5916800000000  0.4605290000000 1.0
C      1  0.5653940000000  0.5863830000000  0.4571030000000 1.0
C      1  0.4345980000000  0.4136010000000  0.4571460000000 1.0
C      1  0.5731330000000  0.5276080000000  0.5855220000000 1.0
C      1  0.4268820000000  0.4724230000000  0.5855450000000 1.0
C      1  0.5609240000000  0.4655570000000  0.5807130000000 1.0
C      1  0.4390900000000  0.5344710000000  0.5807120000000 1.0
C      1  0.5166310000000  0.5139040000000  0.5271710000000 1.0
C      1  0.4833740000000  0.4861050000000  0.5271790000000 1.0
C      1  0.5155520000000  0.4805310000000  0.5203090000000 1.0
C      1  0.4844510000000  0.5194760000000  0.5203040000000 1.0
C      1  0.5447350000000  0.5531460000000  0.4652900000000 1.0
C      1  0.4552580000000  0.4468410000000  0.4653170000000 1.0
C      1  0.5466820000000  0.4384020000000  0.4674200000000 1.0
C      1  0.4533120000000  0.5615860000000  0.4674060000000 1.0
C      1  0.5157150000000  0.5577350000000  0.4780350000000 1.0
C      1  0.4842810000000  0.4422570000000  0.4780580000000 1.0
C      1  0.5162530000000  0.4369140000000  0.4758810000000 1.0
C      1  0.4837430000000  0.5630770000000  0.4758620000000 1.0
C      1  0.5128770000000  0.4847100000000  0.5539510000000 1.0
C      1  0.4871330000000  0.5153090000000  0.5539480000000 1.0
C      1  0.5186820000000  0.5154820000000  0.5612580000000 1.0
C      1  0.4813290000000  0.4845400000000  0.5612670000000 1.0
C      1  0.5160080000000  0.6166660000000  0.5043000000000 1.0
C      1  0.4839920000000  0.3833350000000  0.5043450000000 1.0
C      1  0.5185480000000  0.3792910000000  0.5061650000000 1.0
C      1  0.4814530000000  0.6207110000000  0.5061250000000 1.0
C      1  0.5111350000000  0.3973710000000  0.4786190000000 1.0
C      1  0.4888610000000  0.6026210000000  0.4785840000000 1.0
C      1  0.5224250000000  0.5971360000000  0.4772800000000 1.0
C      1  0.4775710000000  0.4028560000000  0.4773190000000 1.0
C      1  0.5512910000000  0.4719580000000  0.4109070000000 1.0
C      1  0.4486920000000  0.5280100000000  0.4109070000000 1.0
C      1  0.5467860000000  0.5216040000000  0.4126260000000 1.0
C      1  0.4531980000000  0.4783650000000  0.4126420000000 1.0
C      1  0.5475560000000  0.5529050000000  0.5118370000000 1.0
C      1  0.4524460000000  0.4470990000000  0.5118640000000 1.0
C      1  0.5509280000000  0.4424780000000  0.5144440000000 1.0
C      1  0.4490750000000  0.5575270000000  0.5144330000000 1.0
C      1  0.4820850000000  0.5988490000000  0.5320980000000 1.0
C      1  0.5179210000000  0.4011630000000  0.5321300000000 1.0
C      1  0.4874000000000  0.4041100000000  0.5293510000000 1.0
C      1  0.5126050000000  0.5959000000000  0.5293150000000 1.0
C      1  0.5655620000000  0.5683820000000  0.5583180000000 1.0
C      1  0.4344490000000  0.4316390000000  0.5583540000000 1.0
C      1  0.5677740000000  0.4344590000000  0.5566790000000 1.0
C      1  0.4322360000000  0.5655610000000  0.5566680000000 1.0
C      1  0.4793450000000  0.4827860000000  0.6009530000000 1.0
C      1  0.5206730000000  0.5172500000000  0.6009430000000 1.0
C      1  0.4880120000000  0.5159240000000  0.5994990000000 1.0
C      1  0.5120060000000  0.4841110000000  0.5995030000000 1.0
C      1  0.4839250000000  0.4458170000000  0.5552600000000 1.0
C      1  0.5160850000000  0.5542030000000  0.5552380000000 1.0
C      1  0.4820540000000  0.5543470000000  0.5558320000000 1.0
C      1  0.5179560000000  0.4456730000000  0.5558490000000 1.0
C      1  0.4865460000000  0.5306770000000  0.4797480000000 1.0
C      1  0.5134500000000  0.4693160000000  0.4797560000000 1.0
C      1  0.4819570000000  0.4752850000000  0.4816500000000 1.0
C      1  0.5180390000000  0.5247090000000  0.4816380000000 1.0
C      1  0.4399470000000  0.5820830000000  0.4916720000000 1.0
C      1  0.5600510000000  0.4179140000000  0.4916910000000 1.0
C      1  0.4448830000000  0.4227940000000  0.4887260000000 1.0
C      1  0.5551150000000  0.5772020000000  0.4886880000000 1.0
C      1  0.5147290000000  0.5448500000000  0.5156670000000 1.0
C      1  0.4852740000000  0.4551560000000  0.5156860000000 1.0
C      1  0.5175510000000  0.4491170000000  0.5136250000000 1.0
C      1  0.4824510000000  0.5508880000000  0.5136100000000 1.0
C      1  0.5177460000000  0.4129200000000  0.4013240000000 1.0
C      1  0.4822360000000  0.5870450000000  0.4012960000000 1.0
C      1  0.5097860000000  0.5831850000000  0.4014340000000 1.0
C      1  0.4901960000000  0.4167800000000  0.4014650000000 1.0
C      1  0.4827240000000  0.5996520000000  0.4469980000000 1.0
C      1  0.5172660000000  0.4003290000000  0.4470310000000 1.0
C      1  0.4872180000000  0.4049890000000  0.4476360000000 1.0
C      1  0.5127720000000  0.5949920000000  0.4475990000000 1.0
C      1  0.4129540000000  0.4341400000000  0.4936280000000 1.0
C      1  0.5870450000000  0.5658580000000  0.4935880000000 1.0
C      1  0.4097960000000  0.5670480000000  0.4962830000000 1.0
C      1  0.5902040000000  0.4329510000000  0.4962910000000 1.0
C      1  0.4849220000000  0.4868950000000  0.4033380000000 1.0
C      1  0.5150600000000  0.5130700000000  0.4033310000000 1.0
C      1  0.4813230000000  0.5201080000000  0.4039500000000 1.0
C      1  0.5186600000000  0.4798580000000  0.4039540000000 1.0
C      1  0.4521920000000  0.4318990000000  0.5820230000000 1.0
C      1  0.5478230000000  0.5681300000000  0.5819900000000 1.0
C      1  0.4517700000000  0.5642690000000  0.5841490000000 1.0
C      1  0.5482450000000  0.4357610000000  0.5841630000000 1.0
C      1  0.4499380000000  0.6078020000000  0.5112920000000 1.0
C      1  0.5500640000000  0.3922020000000  0.5113210000000 1.0
C      1  0.4530480000000  0.3975990000000  0.5100610000000 1.0
C      1  0.5469540000000  0.6024050000000  0.5100160000000 1.0
C      1  0.5864530000000  0.5155250000000  0.4410090000000 1.0
C      1  0.4135360000000  0.4844540000000  0.4410310000000 1.0
C      1  0.5897340000000  0.4815060000000  0.4387630000000 1.0
C      1  0.4102540000000  0.5184720000000  0.4387730000000 1.0
C      1  0.4070720000000  0.4805300000000  0.5399550000000 1.0
C      1  0.5929350000000  0.5194850000000  0.5399310000000 1.0
C      1  0.4087880000000  0.5120930000000  0.5367350000000 1.0
C      1  0.5912190000000  0.4879200000000  0.5367230000000 1.0
C      1  0.4762570000000  0.4195030000000  0.4261870000000 1.0
C      1  0.5237300000000  0.5804710000000  0.4261540000000 1.0
C      1  0.4684720000000  0.5871980000000  0.4263230000000 1.0
C      1  0.5315140000000  0.4127750000000  0.4263480000000 1.0
C      1  0.4201570000000  0.5423180000000  0.5135890000000 1.0
C      1  0.5798450000000  0.4576870000000  0.5135900000000 1.0
C      1  0.4225030000000  0.4584120000000  0.5111530000000 1.0
C      1  0.5774990000000  0.5415920000000  0.5111240000000 1.0
C      1  0.4875670000000  0.4680320000000  0.4301490000000 1.0
C      1  0.5124200000000  0.5319420000000  0.4301350000000 1.0
C      1  0.4808390000000  0.5412080000000  0.4301390000000 1.0
C      1  0.5191480000000  0.4587670000000  0.4301500000000 1.0
C      1  0.4577360000000  0.5393160000000  0.5420080000000 1.0
C      1  0.5422720000000  0.4606990000000  0.5420140000000 1.0
C      1  0.4564410000000  0.4606030000000  0.5421340000000 1.0
C      1  0.5435670000000  0.5394120000000  0.5421120000000 1.0
C      1  0.5575330000000  0.5156970000000  0.5219690000000 1.0
C      1  0.4424710000000  0.4843110000000  0.5219850000000 1.0
C      1  0.5559430000000  0.4818120000000  0.5190470000000 1.0
C      1  0.4440600000000  0.5181940000000  0.5190510000000 1.0
C      1  0.4764660000000  0.4548400000000  0.5875160000000 1.0
C      1  0.5235500000000  0.5451910000000  0.5874950000000 1.0
C      1  0.4787570000000  0.5436520000000  0.5881550000000 1.0
C      1  0.5212590000000  0.4563800000000  0.5881670000000 1.0
C      1  0.4196630000000  0.5341440000000  0.5526090000000 1.0
C      1  0.5803460000000  0.4658740000000  0.5526060000000 1.0
C      1  0.4175630000000  0.4591480000000  0.5577400000000 1.0
C      1  0.5824480000000  0.5408730000000  0.5577110000000 1.0
C      1  0.5217720000000  0.4184880000000  0.5030680000000 1.0
C      1  0.4782290000000  0.5815130000000  0.5030420000000 1.0
C      1  0.5174340000000  0.5768510000000  0.5042680000000 1.0
C      1  0.4825670000000  0.4231500000000  0.5042990000000 1.0
C      1  0.5861270000000  0.4299130000000  0.4487380000000 1.0
C      1  0.4138640000000  0.5700690000000  0.4487280000000 1.0
C      1  0.5817160000000  0.5658010000000  0.4464350000000 1.0
C      1  0.4182740000000  0.4341790000000  0.4464730000000 1.0
C      1  0.4846970000000  0.4213830000000  0.5864670000000 1.0
C      1  0.5153180000000  0.5786480000000  0.5864370000000 1.0
C      1  0.4831680000000  0.5778540000000  0.5876940000000 1.0
C      1  0.5168480000000  0.4221770000000  0.5877190000000 1.0
C      1  0.4560720000000  0.5603850000000  0.4350410000000 1.0
C      1  0.5439160000000  0.4395920000000  0.4350540000000 1.0
C      1  0.4646840000000  0.4464280000000  0.4336950000000 1.0
C      1  0.5353040000000  0.5535480000000  0.4336690000000 1.0
C      1  0.4254040000000  0.5472970000000  0.4276000000000 1.0
C      1  0.5745830000000  0.4526770000000  0.4276030000000 1.0
C      1  0.4324830000000  0.4577240000000  0.4306470000000 1.0
C      1  0.5675050000000  0.5422510000000  0.4306190000000 1.0
C      1  0.5286590000000  0.4148000000000  0.5566060000000 1.0
C      1  0.4713510000000  0.5852210000000  0.5565800000000 1.0
C      1  0.5251530000000  0.5856160000000  0.5544920000000 1.0
C      1  0.4748560000000  0.4144040000000  0.5545270000000 1.0
C      1  0.4425000000000  0.4749640000000  0.4696640000000 1.0
C      1  0.5574940000000  0.5250250000000  0.4696440000000 1.0
C      1  0.4388210000000  0.5326520000000  0.4682970000000 1.0
C      1  0.5611730000000  0.4673370000000  0.4682970000000 1.0
C      1  0.4536260000000  0.5129750000000  0.5603940000000 1.0
C      1  0.5463850000000  0.4870460000000  0.5603900000000 1.0
C      1  0.4489990000000  0.4825450000000  0.5649820000000 1.0
C      1  0.5510130000000  0.5174780000000  0.5649660000000 1.0
C      1  0.5430260000000  0.5104360000000  0.4943750000000 1.0
C      1  0.4569730000000  0.4895620000000  0.4943870000000 1.0
C      1  0.5416140000000  0.4793050000000  0.4900410000000 1.0
C      1  0.4583840000000  0.5206920000000  0.4900410000000 1.0
C      1  0.4528090000000  0.4893920000000  0.4436690000000 1.0
C      1  0.5471810000000  0.5105880000000  0.4436570000000 1.0
C      1  0.4496250000000  0.5198500000000  0.4427520000000 1.0
C      1  0.5503650000000  0.4801290000000  0.4427500000000 1.0
C      1  0.4026500000000  0.4449110000000  0.4682190000000 1.0
C      1  0.5973440000000  0.5550770000000  0.4681820000000 1.0
C      1  0.4002940000000  0.5570240000000  0.4705200000000 1.0
C      1  0.5997010000000  0.4429650000000  0.4705230000000 1.0
C      1  0.5950820000000  0.5145030000000  0.5058100000000 1.0
C      1  0.4049190000000  0.4854990000000  0.5058330000000 1.0
C      1  0.5961230000000  0.4835060000000  0.5029230000000 1.0
C      1  0.4038770000000  0.5164950000000  0.5029340000000 1.0
C      1  0.4547120000000  0.5140820000000  0.6002370000000 1.0
C      1  0.5453060000000  0.4859540000000  0.6002330000000 1.0
C      1  0.4456510000000  0.4855410000000  0.6046820000000 1.0
C      1  0.5543680000000  0.5144960000000  0.6046670000000 1.0
C      1  0.5720180000000  0.4987010000000  0.4148930000000 1.0
C      1  0.4279660000000  0.5012680000000  0.4149050000000 1.0
END
