TITL C-2782231-7322-14 0.479648153616515 125000 -924.711020932788 0 0 159 (C1) n - 1
REM
REM in /home/nfs/bkarasulu/CARBON/AIRSS/Generating-Clusters/REBO/Higher-Symm/SD-CG/HFTN-CG
REM
REM
REM
REM
REM
REM ./C.cell (12c818d87b63d06a65506943cc24bca4)
REM
REM compiler GCC version 9.2.1 20190827 (Red Hat 9.2.1-1)
REM options -cpp -mtune=generic -march=x86-64 -g -O0 -fpre-include=/usr/include/finclude/math-vector-fortran.h
REM seed -1880173512 1347063476 606558198 -1806500058 -1071731262 -293564702 -15358966 1810509529 909570963 -1977717258 -1777535141 378288915 -1268690550 2088038941 1752985691 43124671 1583812257 -999971637 -1336387480 430880934 852515784 -1720307863 -745088600 503404197 797495735 60344406 -1308205308 1430631217 -1530403352 88628676 2079318830 -1223117858 1561168826
REM
CELL 1.54180   50.00000   50.00000   50.00000   90.00000   90.00000   90.00000
LATT -1
SFAC C  
C      1  0.4569140000000  0.4254460000000  0.4332590000000 1.0
C      1  0.4711490000000  0.5886050000000  0.4309230000000 1.0
C      1  0.5919430000000  0.4714160000000  0.4218430000000 1.0
C      1  0.4223390000000  0.5522040000000  0.5804250000000 1.0
C      1  0.4527680000000  0.4078260000000  0.5575160000000 1.0
C      1  0.5910670000000  0.5236150000000  0.6092000000000 1.0
C      1  0.4714680000000  0.4388160000000  0.3912820000000 1.0
C      1  0.4614450000000  0.5475910000000  0.3924150000000 1.0
C      1  0.5575330000000  0.5132290000000  0.3957520000000 1.0
C      1  0.4635550000000  0.5772340000000  0.5864060000000 1.0
C      1  0.4581660000000  0.4668210000000  0.5967920000000 1.0
C      1  0.5579420000000  0.4902810000000  0.6228710000000 1.0
C      1  0.5425850000000  0.4647480000000  0.4949780000000 1.0
C      1  0.4543010000000  0.4809690000000  0.4916850000000 1.0
C      1  0.5155940000000  0.5456710000000  0.5050310000000 1.0
C      1  0.5412930000000  0.5329690000000  0.4927680000000 1.0
C      1  0.4471710000000  0.5190450000000  0.5011910000000 1.0
C      1  0.5126060000000  0.4201130000000  0.4874460000000 1.0
C      1  0.4905310000000  0.4298080000000  0.4754750000000 1.0
C      1  0.4673260000000  0.5286040000000  0.4870630000000 1.0
C      1  0.5452580000000  0.5104500000000  0.4774100000000 1.0
C      1  0.4928920000000  0.5391210000000  0.5166700000000 1.0
C      1  0.4800620000000  0.4702490000000  0.5078860000000 1.0
C      1  0.5440370000000  0.4857890000000  0.5134060000000 1.0
C      1  0.4075370000000  0.4561230000000  0.4775510000000 1.0
C      1  0.4995710000000  0.6012000000000  0.4684100000000 1.0
C      1  0.5838630000000  0.4517530000000  0.4708110000000 1.0
C      1  0.4086010000000  0.5437790000000  0.5305470000000 1.0
C      1  0.5026900000000  0.3980720000000  0.5351000000000 1.0
C      1  0.5859580000000  0.5500270000000  0.5122330000000 1.0
C      1  0.4555960000000  0.4627050000000  0.4630550000000 1.0
C      1  0.4945480000000  0.5486670000000  0.4466810000000 1.0
C      1  0.5555560000000  0.4853490000000  0.4480550000000 1.0
C      1  0.4508370000000  0.5235020000000  0.5447260000000 1.0
C      1  0.4970220000000  0.4470260000000  0.5527550000000 1.0
C      1  0.5627570000000  0.5093410000000  0.5522510000000 1.0
C      1  0.5675660000000  0.5410770000000  0.4062150000000 1.0
C      1  0.5001360000000  0.4346650000000  0.3893430000000 1.0
C      1  0.4334950000000  0.5385270000000  0.4048290000000 1.0
C      1  0.5446140000000  0.4649670000000  0.6123890000000 1.0
C      1  0.4831470000000  0.5843130000000  0.5673270000000 1.0
C      1  0.4282370000000  0.4678120000000  0.5812580000000 1.0
C      1  0.5166540000000  0.4544230000000  0.6133370000000 1.0
C      1  0.4352400000000  0.4879720000000  0.6063710000000 1.0
C      1  0.5978140000000  0.5643110000000  0.6182450000000 1.0
C      1  0.5351450000000  0.5456490000000  0.4002840000000 1.0
C      1  0.4585300000000  0.5152350000000  0.4035560000000 1.0
C      1  0.5126530000000  0.4615600000000  0.3890780000000 1.0
C      1  0.4978930000000  0.4692950000000  0.5987810000000 1.0
C      1  0.4967950000000  0.4965490000000  0.5918030000000 1.0
C      1  0.4906890000000  0.5177060000000  0.5742230000000 1.0
C      1  0.5239450000000  0.5144890000000  0.4028120000000 1.0
C      1  0.4928170000000  0.5124570000000  0.4038370000000 1.0
C      1  0.4933870000000  0.4812210000000  0.3970980000000 1.0
C      1  0.4994710000000  0.4495270000000  0.4415880000000 1.0
C      1  0.4459650000000  0.5424750000000  0.4463080000000 1.0
C      1  0.5691000000000  0.5349100000000  0.4398970000000 1.0
C      1  0.4867830000000  0.5653750000000  0.5459040000000 1.0
C      1  0.4489960000000  0.4619890000000  0.5582280000000 1.0
C      1  0.5483570000000  0.4705650000000  0.5766170000000 1.0
C      1  0.5206720000000  0.5871400000000  0.4269450000000 1.0
C      1  0.5577110000000  0.4532400000000  0.4129910000000 1.0
C      1  0.4249480000000  0.4848230000000  0.4282950000000 1.0
C      1  0.5162540000000  0.4062830000000  0.5930510000000 1.0
C      1  0.5767570000000  0.5567600000000  0.5700580000000 1.0
C      1  0.4027730000000  0.5184570000000  0.5879860000000 1.0
C      1  0.4622380000000  0.5154060000000  0.4497640000000 1.0
C      1  0.5369190000000  0.5293450000000  0.4435300000000 1.0
C      1  0.5093310000000  0.4745470000000  0.4588040000000 1.0
C      1  0.4647940000000  0.4862280000000  0.5440010000000 1.0
C      1  0.5252080000000  0.4750380000000  0.5528710000000 1.0
C      1  0.5106360000000  0.5226880000000  0.5484640000000 1.0
C      1  0.5416190000000  0.5775730000000  0.4476340000000 1.0
C      1  0.5460570000000  0.4367930000000  0.4363720000000 1.0
C      1  0.4156190000000  0.5038030000000  0.4551950000000 1.0
C      1  0.5382810000000  0.4134530000000  0.5692350000000 1.0
C      1  0.5500760000000  0.5594230000000  0.5509680000000 1.0
C      1  0.4039590000000  0.5034250000000  0.5587010000000 1.0
C      1  0.5189810000000  0.4301720000000  0.4336410000000 1.0
C      1  0.4159080000000  0.5346970000000  0.4540250000000 1.0
C      1  0.5689960000000  0.5686970000000  0.4459320000000 1.0
C      1  0.5283430000000  0.5806420000000  0.5620340000000 1.0
C      1  0.4105100000000  0.4725810000000  0.5457440000000 1.0
C      1  0.5585560000000  0.4382410000000  0.5728100000000 1.0
C      1  0.4457890000000  0.4256340000000  0.4957720000000 1.0
C      1  0.4615760000000  0.5777390000000  0.4871940000000 1.0
C      1  0.5963840000000  0.5026800000000  0.4739810000000 1.0
C      1  0.4470850000000  0.5667710000000  0.5093500000000 1.0
C      1  0.4639150000000  0.4205120000000  0.5181600000000 1.0
C      1  0.5936610000000  0.5002770000000  0.5094100000000 1.0
C      1  0.4335540000000  0.4969160000000  0.5465270000000 1.0
C      1  0.5171360000000  0.5522980000000  0.5464150000000 1.0
C      1  0.5290060000000  0.4425290000000  0.5561790000000 1.0
C      1  0.4460120000000  0.4934890000000  0.4611170000000 1.0
C      1  0.5397540000000  0.4708490000000  0.4671800000000 1.0
C      1  0.5233770000000  0.5534200000000  0.4480800000000 1.0
C      1  0.5680380000000  0.5626460000000  0.4945710000000 1.0
C      1  0.5195100000000  0.4106350000000  0.5164170000000 1.0
C      1  0.4204340000000  0.5209120000000  0.5174680000000 1.0
C      1  0.5692240000000  0.4359170000000  0.4875470000000 1.0
C      1  0.5235290000000  0.5919030000000  0.4802850000000 1.0
C      1  0.4031180000000  0.4755870000000  0.4997510000000 1.0
C      1  0.5088510000000  0.4012680000000  0.5617920000000 1.0
C      1  0.4028130000000  0.5371160000000  0.5593320000000 1.0
C      1  0.5808910000000  0.5534070000000  0.5390850000000 1.0
C      1  0.4967550000000  0.5969630000000  0.4400600000000 1.0
C      1  0.4150530000000  0.4693680000000  0.4544010000000 1.0
C      1  0.5763480000000  0.4509920000000  0.4420390000000 1.0
C      1  0.4804980000000  0.4511110000000  0.5802100000000 1.0
C      1  0.4648910000000  0.5304910000000  0.5724970000000 1.0
C      1  0.5654870000000  0.4961040000000  0.5769670000000 1.0
C      1  0.4850790000000  0.5423540000000  0.4157700000000 1.0
C      1  0.4667020000000  0.4673750000000  0.4065410000000 1.0
C      1  0.5442240000000  0.4925170000000  0.4192500000000 1.0
C      1  0.4686470000000  0.5562070000000  0.4674340000000 1.0
C      1  0.5720080000000  0.5097480000000  0.4593910000000 1.0
C      1  0.4605850000000  0.4327490000000  0.4723440000000 1.0
C      1  0.4787600000000  0.4430340000000  0.5262530000000 1.0
C      1  0.5683530000000  0.4992260000000  0.5245350000000 1.0
C      1  0.4638710000000  0.5499430000000  0.5288660000000 1.0
C      1  0.4139380000000  0.5432470000000  0.4225070000000 1.0
C      1  0.5817840000000  0.5665760000000  0.4193280000000 1.0
C      1  0.5118060000000  0.4171930000000  0.4089420000000 1.0
C      1  0.3972540000000  0.4630540000000  0.5750490000000 1.0
C      1  0.5652730000000  0.4443230000000  0.6013440000000 1.0
C      1  0.5087060000000  0.5955410000000  0.5729820000000 1.0
C      1  0.5725670000000  0.5048620000000  0.6030040000000 1.0
C      1  0.4602140000000  0.4336900000000  0.5603830000000 1.0
C      1  0.4503520000000  0.5521070000000  0.5848840000000 1.0
C      1  0.5760230000000  0.4882860000000  0.4072440000000 1.0
C      1  0.4622500000000  0.5631050000000  0.4282210000000 1.0
C      1  0.4734870000000  0.4474540000000  0.4302720000000 1.0
C      1  0.4101040000000  0.5506770000000  0.4807090000000 1.0
C      1  0.6180270000000  0.5282750000000  0.4770800000000 1.0
C      1  0.4615510000000  0.3717460000000  0.5261500000000 1.0
C      1  0.4154240000000  0.4490190000000  0.5268030000000 1.0
C      1  0.6106660000000  0.4713550000000  0.5092020000000 1.0
C      1  0.4697480000000  0.6239720000000  0.5000400000000 1.0
C      1  0.5996970000000  0.4722640000000  0.4816260000000 1.0
C      1  0.4210070000000  0.4398180000000  0.5003120000000 1.0
C      1  0.4756940000000  0.6019900000000  0.4851670000000 1.0
C      1  0.6031610000000  0.5294320000000  0.5027260000000 1.0
C      1  0.4194510000000  0.5593280000000  0.5066770000000 1.0
C      1  0.4748670000000  0.3953620000000  0.5266250000000 1.0
C      1  0.4954160000000  0.4772010000000  0.5371360000000 1.0
C      1  0.4814470000000  0.5146270000000  0.5354370000000 1.0
C      1  0.5320520000000  0.5034010000000  0.5403520000000 1.0
C      1  0.4881840000000  0.5217560000000  0.4640530000000 1.0
C      1  0.4866000000000  0.4625310000000  0.4770760000000 1.0
C      1  0.5219080000000  0.5048610000000  0.4567990000000 1.0
C      1  0.4463530000000  0.4883140000000  0.4107650000000 1.0
C      1  0.5228030000000  0.5696580000000  0.4041140000000 1.0
C      1  0.5406690000000  0.4624080000000  0.3931880000000 1.0
C      1  0.4175640000000  0.5094030000000  0.6085650000000 1.0
C      1  0.5133770000000  0.4260350000000  0.6129230000000 1.0
C      1  0.5874260000000  0.5605840000000  0.5944750000000 1.0
C      1  0.4282430000000  0.4911470000000  0.5074230000000 1.0
C      1  0.5402310000000  0.4330590000000  0.5012250000000 1.0
C      1  0.5367060000000  0.5669660000000  0.4907130000000 1.0
END
