TITL C-2782239-8622-293 -0.00305005691483352 125000 -670.918654950467 0 0 118 (C1) n - 1
REM
REM in /home/nfs/bkarasulu/CARBON/AIRSS/Generating-Clusters/REBO/Higher-Symm/SD-CG/HFTN-CG
REM
REM
REM
REM
REM
REM ./C.cell (12c818d87b63d06a65506943cc24bca4)
REM
REM compiler GCC version 9.2.1 20190827 (Red Hat 9.2.1-1)
REM options -cpp -mtune=generic -march=x86-64 -g -O0 -fpre-include=/usr/include/finclude/math-vector-fortran.h
REM seed 206122701 -1252412167 -2120542591 -1832605571 1755278684 -1687521142 1558687420 1272045232 -410698040 1844279471 1732162381 -395120345 -1089567167 1391331240 -311213886 492107822 735027546 -1017189171 -1817784997 299426405 -1337747183 -1064337739 -1154712504 -706846075 -1252497810 1952728676 1734746322 -93921061 -1708863592 -1537595824 129412402 1558390662 1444210121
REM
CELL 1.54180   50.00000   50.00000   50.00000   90.00000   90.00000   90.00000
LATT -1
SFAC C  
C      1  0.4340190000000  0.4566220000000  0.5484610000000 1.0
C      1  0.4303120000000  0.4357780000000  0.4988920000000 1.0
C      1  0.4335650000000  0.4654250000000  0.4531230000000 1.0
C      1  0.4344640000000  0.5075490000000  0.4428920000000 1.0
C      1  0.4380860000000  0.5516370000000  0.4748900000000 1.0
C      1  0.4392100000000  0.5524220000000  0.5289580000000 1.0
C      1  0.4378340000000  0.5092260000000  0.5630520000000 1.0
C      1  0.4778800000000  0.4902920000000  0.4099550000000 1.0
C      1  0.4698850000000  0.5631790000000  0.4343020000000 1.0
C      1  0.4719830000000  0.5916570000000  0.5079220000000 1.0
C      1  0.4795440000000  0.5426340000000  0.5752300000000 1.0
C      1  0.4781800000000  0.4645580000000  0.5789210000000 1.0
C      1  0.4747550000000  0.4169870000000  0.5236290000000 1.0
C      1  0.4698820000000  0.4217880000000  0.4536790000000 1.0
C      1  0.4770810000000  0.5153320000000  0.5593080000000 1.0
C      1  0.4738620000000  0.4658040000000  0.5454660000000 1.0
C      1  0.4696770000000  0.4421360000000  0.5013180000000 1.0
C      1  0.4786430000000  0.4535720000000  0.4513600000000 1.0
C      1  0.4724750000000  0.5115650000000  0.4313470000000 1.0
C      1  0.4795340000000  0.5556260000000  0.4643360000000 1.0
C      1  0.4810710000000  0.5638490000000  0.5230830000000 1.0
C      1  0.4985990000000  0.4347090000000  0.5498390000000 1.0
C      1  0.4936510000000  0.4160240000000  0.4847070000000 1.0
C      1  0.5042860000000  0.4637710000000  0.4225090000000 1.0
C      1  0.4968770000000  0.5391380000000  0.4181920000000 1.0
C      1  0.4979400000000  0.5877640000000  0.4785750000000 1.0
C      1  0.5037750000000  0.5669520000000  0.5557940000000 1.0
C      1  0.5016120000000  0.4961060000000  0.5842710000000 1.0
C      1  0.5425010000000  0.5198490000000  0.4327200000000 1.0
C      1  0.5465520000000  0.5673490000000  0.4737500000000 1.0
C      1  0.5490750000000  0.5640300000000  0.5359410000000 1.0
C      1  0.5454070000000  0.5139110000000  0.5712560000000 1.0
C      1  0.5426480000000  0.4549090000000  0.5539510000000 1.0
C      1  0.5398510000000  0.4312610000000  0.4985410000000 1.0
C      1  0.5467750000000  0.4598510000000  0.4441120000000 1.0
C      1  0.4290150000000  0.5202350000000  0.5321680000000 1.0
C      1  0.4253010000000  0.4881550000000  0.5393910000000 1.0
C      1  0.4216790000000  0.4628290000000  0.5173830000000 1.0
C      1  0.4179080000000  0.4636260000000  0.4837030000000 1.0
C      1  0.4155530000000  0.4909580000000  0.4660780000000 1.0
C      1  0.4243110000000  0.5212830000000  0.4724500000000 1.0
C      1  0.4271050000000  0.5346770000000  0.5024590000000 1.0
C      1  0.4478180000000  0.5417500000000  0.5601560000000 1.0
C      1  0.4462160000000  0.4769610000000  0.5714480000000 1.0
C      1  0.4430460000000  0.4305920000000  0.5282200000000 1.0
C      1  0.4426960000000  0.4372660000000  0.4672290000000 1.0
C      1  0.4482320000000  0.4806190000000  0.4272890000000 1.0
C      1  0.4468700000000  0.5393480000000  0.4449090000000 1.0
C      1  0.4468200000000  0.5692970000000  0.5026470000000 1.0
C      1  0.5031910000000  0.4298880000000  0.4556670000000 1.0
C      1  0.5120570000000  0.4874040000000  0.4054990000000 1.0
C      1  0.5037930000000  0.5623390000000  0.4410750000000 1.0
C      1  0.5054910000000  0.5852250000000  0.5110430000000 1.0
C      1  0.5122570000000  0.5518730000000  0.5806670000000 1.0
C      1  0.5108840000000  0.4681330000000  0.5891570000000 1.0
C      1  0.5079090000000  0.4126230000000  0.5318680000000 1.0
C      1  0.5479190000000  0.5091500000000  0.4632160000000 1.0
C      1  0.5492720000000  0.5363740000000  0.4839500000000 1.0
C      1  0.5499310000000  0.5371570000000  0.5179810000000 1.0
C      1  0.5487660000000  0.5114950000000  0.5395720000000 1.0
C      1  0.5469290000000  0.4781950000000  0.5329390000000 1.0
C      1  0.5462090000000  0.4624840000000  0.5027500000000 1.0
C      1  0.5472810000000  0.4761780000000  0.4717070000000 1.0
C      1  0.5128690000000  0.5236100000000  0.4392080000000 1.0
C      1  0.5158010000000  0.5634920000000  0.4792100000000 1.0
C      1  0.5184630000000  0.5560270000000  0.5348370000000 1.0
C      1  0.5160180000000  0.5084050000000  0.5638820000000 1.0
C      1  0.5130400000000  0.4578500000000  0.5453120000000 1.0
C      1  0.5106570000000  0.4392150000000  0.4937340000000 1.0
C      1  0.5161320000000  0.4668430000000  0.4475480000000 1.0
C      1  0.5820220000000  0.5397930000000  0.5058840000000 1.0
C      1  0.5817400000000  0.5215590000000  0.5353020000000 1.0
C      1  0.5798890000000  0.4873220000000  0.5393160000000 1.0
C      1  0.5785960000000  0.4628830000000  0.5150800000000 1.0
C      1  0.5790130000000  0.4667240000000  0.4808710000000 1.0
C      1  0.5801270000000  0.4958500000000  0.4622820000000 1.0
C      1  0.5808600000000  0.5284100000000  0.4733070000000 1.0
C      1  0.4696920000000  0.4967070000000  0.5834050000000 1.0
C      1  0.4667870000000  0.4343890000000  0.5518700000000 1.0
C      1  0.4607290000000  0.4139110000000  0.4849840000000 1.0
C      1  0.4723350000000  0.4592440000000  0.4206140000000 1.0
C      1  0.4636990000000  0.5379400000000  0.4151450000000 1.0
C      1  0.4652070000000  0.5818090000000  0.4766790000000 1.0
C      1  0.4708560000000  0.5659390000000  0.5528170000000 1.0
C      1  0.5070770000000  0.4676310000000  0.4964800000000 1.0
C      1  0.5082520000000  0.4834010000000  0.4701280000000 1.0
C      1  0.5085390000000  0.5148830000000  0.4663540000000 1.0
C      1  0.5098350000000  0.5371230000000  0.4890490000000 1.0
C      1  0.5104780000000  0.5328940000000  0.5198850000000 1.0
C      1  0.5094370000000  0.5065650000000  0.5356950000000 1.0
C      1  0.5077850000000  0.4779630000000  0.5253710000000 1.0
C      1  0.5630410000000  0.5423150000000  0.4473500000000 1.0
C      1  0.5652820000000  0.5691390000000  0.5002100000000 1.0
C      1  0.5653290000000  0.5440550000000  0.5552650000000 1.0
C      1  0.5622660000000  0.4862210000000  0.5686860000000 1.0
C      1  0.5602380000000  0.4392260000000  0.5317230000000 1.0
C      1  0.5606110000000  0.4386620000000  0.4742810000000 1.0
C      1  0.5628490000000  0.4858260000000  0.4345570000000 1.0
C      1  0.5362220000000  0.4159370000000  0.5253150000000 1.0
C      1  0.5337860000000  0.4318250000000  0.4543760000000 1.0
C      1  0.5394790000000  0.4960630000000  0.4120370000000 1.0
C      1  0.5349810000000  0.5615800000000  0.4443110000000 1.0
C      1  0.5369480000000  0.5834800000000  0.5128360000000 1.0
C      1  0.5407110000000  0.5440870000000  0.5788900000000 1.0
C      1  0.5392330000000  0.4655030000000  0.5828150000000 1.0
C      1  0.4688750000000  0.4776540000000  0.4702070000000 1.0
C      1  0.4708960000000  0.5041590000000  0.4587760000000 1.0
C      1  0.4720430000000  0.5309010000000  0.4784260000000 1.0
C      1  0.4717730000000  0.5365740000000  0.5120230000000 1.0
C      1  0.4700090000000  0.5115330000000  0.5323700000000 1.0
C      1  0.4682200000000  0.4833880000000  0.5244430000000 1.0
C      1  0.4672230000000  0.4695970000000  0.4982140000000 1.0
C      1  0.5544840000000  0.5012740000000  0.5015930000000 1.0
C      1  0.4338690000000  0.4952830000000  0.5012960000000 1.0
C      1  0.4920640000000  0.5039360000000  0.5000360000000 1.0
C      1  0.5261660000000  0.5024390000000  0.4998560000000 1.0
C      1  0.5808760000000  0.5003770000000  0.5017430000000 1.0
C      1  0.4557580000000  0.5077360000000  0.4953320000000 1.0
END
