TITL C-2782225-7408-248 0.0851600304288998 125000 -594.179109608257 0 0 105 (C1) n - 1
REM
REM in /home/nfs/bkarasulu/CARBON/AIRSS/Generating-Clusters/REBO/Higher-Symm/SD-CG/HFTN-CG
REM
REM
REM
REM
REM
REM ./C.cell (12c818d87b63d06a65506943cc24bca4)
REM
REM compiler GCC version 9.2.1 20190827 (Red Hat 9.2.1-1)
REM options -cpp -mtune=generic -march=x86-64 -g -O0 -fpre-include=/usr/include/finclude/math-vector-fortran.h
REM seed -885591499 479842589 -1705468049 -1022442745 458297726 -1664246102 -843125041 -1459783601 652727767 1064571687 1719871981 -1261363929 2049250737 1034396153 -187018683 1867794022 -580322667 -1197460358 -2110281466 -2049741198 2081761974 432136326 -206876885 -1621862154 1495017375 -1789315631 451293866 1751082378 791844164 1594821568 -1787799269 -149622643 -1149524704
REM
CELL 1.54180   50.00000   50.00000   50.00000   90.00000   90.00000   90.00000
LATT -1
SFAC C  
C      1  0.5198220000000  0.5197750000000  0.4600810000000 1.0
C      1  0.5181670000000  0.4572640000000  0.5026160000000 1.0
C      1  0.5201120000000  0.5246860000000  0.5368950000000 1.0
C      1  0.4891450000000  0.5347300000000  0.4632270000000 1.0
C      1  0.4871760000000  0.4521330000000  0.4889220000000 1.0
C      1  0.4867870000000  0.5302690000000  0.5391050000000 1.0
C      1  0.5099080000000  0.5839330000000  0.5572510000000 1.0
C      1  0.5070620000000  0.4996480000000  0.4048130000000 1.0
C      1  0.5061600000000  0.4179210000000  0.5469870000000 1.0
C      1  0.4803970000000  0.5877500000000  0.5623970000000 1.0
C      1  0.4782370000000  0.5004360000000  0.4042660000000 1.0
C      1  0.4773830000000  0.4166520000000  0.5469280000000 1.0
C      1  0.4260120000000  0.5410420000000  0.4893510000000 1.0
C      1  0.4257280000000  0.4683440000000  0.4676750000000 1.0
C      1  0.4269350000000  0.4877620000000  0.5419550000000 1.0
C      1  0.5747380000000  0.5422950000000  0.4876080000000 1.0
C      1  0.5746750000000  0.4672820000000  0.4684520000000 1.0
C      1  0.5750600000000  0.4890580000000  0.5421020000000 1.0
C      1  0.5327620000000  0.5726140000000  0.4924190000000 1.0
C      1  0.5362690000000  0.4560880000000  0.4372260000000 1.0
C      1  0.5366700000000  0.4666370000000  0.5681980000000 1.0
C      1  0.4638350000000  0.5740200000000  0.4944350000000 1.0
C      1  0.4689940000000  0.4585300000000  0.4379270000000 1.0
C      1  0.4693270000000  0.4667380000000  0.5656300000000 1.0
C      1  0.5334940000000  0.4295460000000  0.4772520000000 1.0
C      1  0.5360630000000  0.5134170000000  0.5717570000000 1.0
C      1  0.5378340000000  0.5537400000000  0.4492200000000 1.0
C      1  0.4592870000000  0.4275360000000  0.4743910000000 1.0
C      1  0.4606210000000  0.5135760000000  0.5728850000000 1.0
C      1  0.4600990000000  0.5583790000000  0.4497610000000 1.0
C      1  0.5668630000000  0.4695110000000  0.5192850000000 1.0
C      1  0.5654330000000  0.5324490000000  0.5160720000000 1.0
C      1  0.5671440000000  0.4972000000000  0.4634630000000 1.0
C      1  0.4329400000000  0.4699330000000  0.5185740000000 1.0
C      1  0.4359910000000  0.5308990000000  0.5167630000000 1.0
C      1  0.4332390000000  0.4973990000000  0.4640500000000 1.0
C      1  0.5148670000000  0.5583920000000  0.5352140000000 1.0
C      1  0.5165730000000  0.4968340000000  0.4359180000000 1.0
C      1  0.5161700000000  0.4463330000000  0.5342470000000 1.0
C      1  0.4812570000000  0.5630510000000  0.5389740000000 1.0
C      1  0.4853250000000  0.5068600000000  0.4451520000000 1.0
C      1  0.4844540000000  0.4493680000000  0.5221000000000 1.0
C      1  0.4843240000000  0.5797090000000  0.4501180000000 1.0
C      1  0.4826460000000  0.4152330000000  0.4566970000000 1.0
C      1  0.4831590000000  0.5046430000000  0.5933870000000 1.0
C      1  0.5151030000000  0.5761310000000  0.4469560000000 1.0
C      1  0.5138240000000  0.4172970000000  0.4556140000000 1.0
C      1  0.5141610000000  0.5024800000000  0.5927450000000 1.0
C      1  0.4423220000000  0.5408080000000  0.5674780000000 1.0
C      1  0.4441230000000  0.5366380000000  0.4313950000000 1.0
C      1  0.4429730000000  0.4216200000000  0.5021770000000 1.0
C      1  0.5525660000000  0.5414120000000  0.5661340000000 1.0
C      1  0.5534980000000  0.5337320000000  0.4286640000000 1.0
C      1  0.5521270000000  0.4215310000000  0.5038320000000 1.0
C      1  0.4554270000000  0.5029220000000  0.5186980000000 1.0
C      1  0.4543140000000  0.5133710000000  0.4859300000000 1.0
C      1  0.4539390000000  0.4798170000000  0.4932720000000 1.0
C      1  0.5465810000000  0.5039350000000  0.5188620000000 1.0
C      1  0.5473260000000  0.5137630000000  0.4859250000000 1.0
C      1  0.5471440000000  0.4805110000000  0.4936830000000 1.0
C      1  0.4269610000000  0.4502940000000  0.4938190000000 1.0
C      1  0.4284730000000  0.5192030000000  0.5456760000000 1.0
C      1  0.4270090000000  0.5286910000000  0.4596830000000 1.0
C      1  0.5713410000000  0.4482320000000  0.4947180000000 1.0
C      1  0.5708530000000  0.5211410000000  0.5458160000000 1.0
C      1  0.5719800000000  0.5291280000000  0.4570730000000 1.0
C      1  0.4567180000000  0.5468850000000  0.4793350000000 1.0
C      1  0.4563170000000  0.4577440000000  0.4671330000000 1.0
C      1  0.4576460000000  0.4924140000000  0.5512130000000 1.0
C      1  0.5433720000000  0.5469480000000  0.4784280000000 1.0
C      1  0.5428440000000  0.4577280000000  0.4683890000000 1.0
C      1  0.5435420000000  0.4924360000000  0.5510310000000 1.0
C      1  0.4634660000000  0.4420190000000  0.5549260000000 1.0
C      1  0.4510100000000  0.5781510000000  0.5179720000000 1.0
C      1  0.4650070000000  0.4810480000000  0.4227530000000 1.0
C      1  0.5472680000000  0.4434910000000  0.5590610000000 1.0
C      1  0.5438740000000  0.5781710000000  0.5165270000000 1.0
C      1  0.5470350000000  0.4753570000000  0.4216680000000 1.0
C      1  0.4513180000000  0.4442050000000  0.5249350000000 1.0
C      1  0.4488190000000  0.5526330000000  0.5374040000000 1.0
C      1  0.4526360000000  0.5056320000000  0.4394840000000 1.0
C      1  0.5494660000000  0.4433160000000  0.5276620000000 1.0
C      1  0.5485720000000  0.5526920000000  0.5354370000000 1.0
C      1  0.5500630000000  0.5028440000000  0.4365950000000 1.0
C      1  0.4666940000000  0.4074350000000  0.5220290000000 1.0
C      1  0.4650600000000  0.5649410000000  0.5753640000000 1.0
C      1  0.4675210000000  0.5265680000000  0.4088400000000 1.0
C      1  0.5283820000000  0.4094660000000  0.5253910000000 1.0
C      1  0.5282420000000  0.5644740000000  0.5722390000000 1.0
C      1  0.5284490000000  0.5227340000000  0.4080740000000 1.0
C      1  0.4823290000000  0.4187940000000  0.4965120000000 1.0
C      1  0.4818500000000  0.5379860000000  0.5713500000000 1.0
C      1  0.4833240000000  0.5440640000000  0.4306280000000 1.0
C      1  0.5124890000000  0.4239280000000  0.5013620000000 1.0
C      1  0.5130880000000  0.5363720000000  0.5684700000000 1.0
C      1  0.5140740000000  0.5384420000000  0.4322890000000 1.0
C      1  0.4864840000000  0.4364290000000  0.4340110000000 1.0
C      1  0.4868070000000  0.4742800000000  0.5867560000000 1.0
C      1  0.4826420000000  0.5894500000000  0.4801830000000 1.0
C      1  0.5175070000000  0.4361580000000  0.4310710000000 1.0
C      1  0.5177890000000  0.4715470000000  0.5883600000000 1.0
C      1  0.5132970000000  0.5857210000000  0.4766340000000 1.0
C      1  0.5009850000000  0.5135570000000  0.4860280000000 1.0
C      1  0.4985650000000  0.5085490000000  0.5176930000000 1.0
C      1  0.4987330000000  0.4831210000000  0.4968680000000 1.0
END
