TITL C-2782237-5345-731 0.00728632302103069 125000 -1146.75447414517 0 0 196 (C1) n - 1
REM
REM in /home/nfs/bkarasulu/CARBON/AIRSS/Generating-Clusters/REBO/Higher-Symm/SD-CG/HFTN-CG
REM
REM
REM
REM
REM
REM ./C.cell (12c818d87b63d06a65506943cc24bca4)
REM
REM compiler GCC version 9.2.1 20190827 (Red Hat 9.2.1-1)
REM options -cpp -mtune=generic -march=x86-64 -g -O0 -fpre-include=/usr/include/finclude/math-vector-fortran.h
REM seed 2119917418 -422387090 -62953547 93746447 1315338385 1456720827 -731732711 1996060353 1569188449 -497160729 -114875116 -192467679 -2014393761 -1445024950 -1128063792 -581040413 -886380590 -1322391046 462194233 75515462 -1804880894 1001047177 302807597 689012817 -1967227919 1371091998 -826650153 442854270 786073325 1837803744 1450411928 396460223 1030137195
REM
CELL 1.54180   50.00000   50.00000   50.00000   90.00000   90.00000   90.00000
LATT -1
SFAC C  
C      1  0.4921750000000  0.4547890000000  0.3864970000000 1.0
C      1  0.5053080000000  0.5901630000000  0.4720630000000 1.0
C      1  0.4008930000000  0.5147870000000  0.4776020000000 1.0
C      1  0.4398640000000  0.5942390000000  0.5334880000000 1.0
C      1  0.3896190000000  0.3940900000000  0.4758690000000 1.0
C      1  0.4746640000000  0.4263710000000  0.4676930000000 1.0
C      1  0.4922200000000  0.5589720000000  0.4757460000000 1.0
C      1  0.4489920000000  0.4673480000000  0.5227040000000 1.0
C      1  0.4614630000000  0.6030250000000  0.4623240000000 1.0
C      1  0.5657550000000  0.5429830000000  0.4755900000000 1.0
C      1  0.5745970000000  0.5044090000000  0.4164150000000 1.0
C      1  0.4693680000000  0.4718280000000  0.3872840000000 1.0
C      1  0.5638040000000  0.5354010000000  0.5356920000000 1.0
C      1  0.4350730000000  0.3941920000000  0.5351010000000 1.0
C      1  0.5433090000000  0.4500750000000  0.4530670000000 1.0
C      1  0.5836070000000  0.5831310000000  0.4250720000000 1.0
C      1  0.6028120000000  0.4844000000000  0.4615050000000 1.0
C      1  0.5229150000000  0.4931010000000  0.5522290000000 1.0
C      1  0.5197830000000  0.5476810000000  0.4484360000000 1.0
C      1  0.4600450000000  0.4234230000000  0.4984700000000 1.0
C      1  0.4916920000000  0.5709360000000  0.5421740000000 1.0
C      1  0.5861610000000  0.4768860000000  0.5192040000000 1.0
C      1  0.5294440000000  0.4921040000000  0.3997800000000 1.0
C      1  0.4782990000000  0.5664160000000  0.5141920000000 1.0
C      1  0.5381530000000  0.5755160000000  0.5126260000000 1.0
C      1  0.4929260000000  0.5573840000000  0.5883980000000 1.0
C      1  0.5584130000000  0.4558820000000  0.4141410000000 1.0
C      1  0.5027380000000  0.5973920000000  0.4401300000000 1.0
C      1  0.5820590000000  0.5270190000000  0.5770070000000 1.0
C      1  0.4371810000000  0.5884790000000  0.4813650000000 1.0
C      1  0.5124120000000  0.5178180000000  0.4144870000000 1.0
C      1  0.4009020000000  0.4823290000000  0.5408280000000 1.0
C      1  0.4988970000000  0.4144290000000  0.4809770000000 1.0
C      1  0.4055160000000  0.5608100000000  0.5402520000000 1.0
C      1  0.4486040000000  0.4587260000000  0.5787470000000 1.0
C      1  0.5249830000000  0.4698960000000  0.4339260000000 1.0
C      1  0.4469620000000  0.5437810000000  0.4206920000000 1.0
C      1  0.4223280000000  0.5023990000000  0.4960980000000 1.0
C      1  0.4921390000000  0.3911230000000  0.5031530000000 1.0
C      1  0.4413500000000  0.4884700000000  0.4274710000000 1.0
C      1  0.4317690000000  0.5541450000000  0.5009880000000 1.0
C      1  0.5678780000000  0.4397390000000  0.4619580000000 1.0
C      1  0.4644090000000  0.5510280000000  0.5482100000000 1.0
C      1  0.4741400000000  0.5875470000000  0.4342100000000 1.0
C      1  0.4435230000000  0.4769250000000  0.4017320000000 1.0
C      1  0.5704920000000  0.5068050000000  0.5627390000000 1.0
C      1  0.3971910000000  0.4216050000000  0.5154510000000 1.0
C      1  0.5411670000000  0.3895300000000  0.5028240000000 1.0
C      1  0.5732880000000  0.4215650000000  0.4844200000000 1.0
C      1  0.5318950000000  0.5933890000000  0.4846060000000 1.0
C      1  0.4422840000000  0.4048250000000  0.4756520000000 1.0
C      1  0.4300260000000  0.4013480000000  0.4382310000000 1.0
C      1  0.4553050000000  0.5650600000000  0.5778580000000 1.0
C      1  0.4797160000000  0.3926410000000  0.4309090000000 1.0
C      1  0.4980920000000  0.5406050000000  0.4262810000000 1.0
C      1  0.4941750000000  0.5376480000000  0.5206670000000 1.0
C      1  0.4650470000000  0.5703690000000  0.4601150000000 1.0
C      1  0.5243690000000  0.4993760000000  0.4390090000000 1.0
C      1  0.5573340000000  0.4708320000000  0.5042670000000 1.0
C      1  0.5186090000000  0.4608480000000  0.4016080000000 1.0
C      1  0.4609650000000  0.5560590000000  0.4900800000000 1.0
C      1  0.5229400000000  0.5397910000000  0.5043010000000 1.0
C      1  0.5193150000000  0.3812620000000  0.4850620000000 1.0
C      1  0.4926990000000  0.4628960000000  0.4319840000000 1.0
C      1  0.4531210000000  0.5013090000000  0.6308530000000 1.0
C      1  0.5892280000000  0.4736500000000  0.5517030000000 1.0
C      1  0.5160980000000  0.6101530000000  0.5274270000000 1.0
C      1  0.5958040000000  0.5052820000000  0.4420500000000 1.0
C      1  0.5543370000000  0.4269860000000  0.5637440000000 1.0
C      1  0.5921630000000  0.5758350000000  0.5154440000000 1.0
C      1  0.4461080000000  0.4287750000000  0.5675280000000 1.0
C      1  0.4891170000000  0.5164780000000  0.3820840000000 1.0
C      1  0.5410440000000  0.5410690000000  0.5942100000000 1.0
C      1  0.4925370000000  0.5201110000000  0.5501040000000 1.0
C      1  0.6060240000000  0.5362640000000  0.4762820000000 1.0
C      1  0.4383550000000  0.4789900000000  0.4816850000000 1.0
C      1  0.4470140000000  0.5384810000000  0.5951860000000 1.0
C      1  0.4121560000000  0.4110520000000  0.5380090000000 1.0
C      1  0.4327990000000  0.5165180000000  0.4365330000000 1.0
C      1  0.5227290000000  0.5609530000000  0.5977000000000 1.0
C      1  0.5674750000000  0.5683510000000  0.5606770000000 1.0
C      1  0.4144960000000  0.3967160000000  0.4642220000000 1.0
C      1  0.5656560000000  0.3949000000000  0.4895880000000 1.0
C      1  0.4508910000000  0.4927400000000  0.5805700000000 1.0
C      1  0.5363590000000  0.4662490000000  0.5378170000000 1.0
C      1  0.3926830000000  0.4644720000000  0.4506050000000 1.0
C      1  0.5279780000000  0.5758500000000  0.4410990000000 1.0
C      1  0.4233030000000  0.5739210000000  0.5234390000000 1.0
C      1  0.5691450000000  0.5431550000000  0.5950760000000 1.0
C      1  0.5436760000000  0.4907450000000  0.5873100000000 1.0
C      1  0.5696490000000  0.4763740000000  0.5772640000000 1.0
C      1  0.5605670000000  0.5525740000000  0.5079630000000 1.0
C      1  0.5316070000000  0.4126760000000  0.5202800000000 1.0
C      1  0.5359010000000  0.4356100000000  0.4166020000000 1.0
C      1  0.4796160000000  0.5350110000000  0.5963440000000 1.0
C      1  0.5316270000000  0.6071140000000  0.4268470000000 1.0
C      1  0.5275550000000  0.5191650000000  0.5311330000000 1.0
C      1  0.5791290000000  0.4382920000000  0.5123740000000 1.0
C      1  0.4811770000000  0.4542130000000  0.4601580000000 1.0
C      1  0.5703550000000  0.5051860000000  0.5297850000000 1.0
C      1  0.5249500000000  0.4729110000000  0.5085040000000 1.0
C      1  0.4045790000000  0.4558690000000  0.5601470000000 1.0
C      1  0.5064520000000  0.4535390000000  0.4963840000000 1.0
C      1  0.3787560000000  0.5201350000000  0.5215660000000 1.0
C      1  0.5259860000000  0.4116640000000  0.5757030000000 1.0
C      1  0.5575340000000  0.4841630000000  0.4089330000000 1.0
C      1  0.5656380000000  0.5020780000000  0.4961840000000 1.0
C      1  0.6135210000000  0.4581510000000  0.4781080000000 1.0
C      1  0.4977480000000  0.4860760000000  0.5933590000000 1.0
C      1  0.4766580000000  0.5170400000000  0.5024840000000 1.0
C      1  0.6045070000000  0.5256020000000  0.5335080000000 1.0
C      1  0.4173310000000  0.4766490000000  0.5156060000000 1.0
C      1  0.4424280000000  0.4708760000000  0.4489030000000 1.0
C      1  0.5620430000000  0.4485570000000  0.5869960000000 1.0
C      1  0.4791410000000  0.4648180000000  0.5830950000000 1.0
C      1  0.6054870000000  0.4557220000000  0.5050190000000 1.0
C      1  0.4634960000000  0.3968410000000  0.5181420000000 1.0
C      1  0.4652410000000  0.6016270000000  0.5404480000000 1.0
C      1  0.4171680000000  0.4592890000000  0.4636660000000 1.0
C      1  0.4786090000000  0.4327100000000  0.5743340000000 1.0
C      1  0.5298680000000  0.4346810000000  0.5436690000000 1.0
C      1  0.4867780000000  0.6129620000000  0.5182340000000 1.0
C      1  0.5663900000000  0.4503340000000  0.5415380000000 1.0
C      1  0.4842520000000  0.4925270000000  0.4269380000000 1.0
C      1  0.4928980000000  0.4303630000000  0.4298310000000 1.0
C      1  0.5850680000000  0.5792570000000  0.4822170000000 1.0
C      1  0.4285060000000  0.5263080000000  0.5146260000000 1.0
C      1  0.4617580000000  0.5083830000000  0.5562670000000 1.0
C      1  0.5656140000000  0.5941470000000  0.5060140000000 1.0
C      1  0.4616000000000  0.4059170000000  0.4470600000000 1.0
C      1  0.5912650000000  0.4542550000000  0.4555330000000 1.0
C      1  0.5931410000000  0.5051510000000  0.4820130000000 1.0
C      1  0.4978210000000  0.4730570000000  0.5556230000000 1.0
C      1  0.4389020000000  0.4445920000000  0.5061390000000 1.0
C      1  0.5559330000000  0.5808570000000  0.4692190000000 1.0
C      1  0.5893400000000  0.5373210000000  0.5051850000000 1.0
C      1  0.4910780000000  0.5121330000000  0.5831250000000 1.0
C      1  0.3736600000000  0.4948960000000  0.5321890000000 1.0
C      1  0.4850870000000  0.6115400000000  0.4842410000000 1.0
C      1  0.5292270000000  0.4424030000000  0.5906200000000 1.0
C      1  0.5373180000000  0.5710440000000  0.5619640000000 1.0
C      1  0.5579460000000  0.5904760000000  0.4389210000000 1.0
C      1  0.4632870000000  0.5940920000000  0.5012460000000 1.0
C      1  0.5387660000000  0.5154890000000  0.4863010000000 1.0
C      1  0.5231280000000  0.4742600000000  0.5964110000000 1.0
C      1  0.4158010000000  0.5082290000000  0.5575310000000 1.0
C      1  0.4092690000000  0.4452700000000  0.5050140000000 1.0
C      1  0.5902220000000  0.5561680000000  0.5400360000000 1.0
C      1  0.5002750000000  0.4129900000000  0.5277910000000 1.0
C      1  0.5331930000000  0.5166210000000  0.5747850000000 1.0
C      1  0.5094310000000  0.5840690000000  0.5767710000000 1.0
C      1  0.5352420000000  0.5544530000000  0.4771920000000 1.0
C      1  0.6171300000000  0.5179190000000  0.5028470000000 1.0
C      1  0.4785240000000  0.4683940000000  0.5295510000000 1.0
C      1  0.5973620000000  0.5616890000000  0.4349050000000 1.0
C      1  0.4963750000000  0.4079280000000  0.5594180000000 1.0
C      1  0.4861340000000  0.4388560000000  0.5144890000000 1.0
C      1  0.4883610000000  0.4985940000000  0.5267240000000 1.0
C      1  0.5311790000000  0.4257140000000  0.4825320000000 1.0
C      1  0.5085340000000  0.4453830000000  0.5647210000000 1.0
C      1  0.3786210000000  0.5236220000000  0.4931380000000 1.0
C      1  0.5397160000000  0.5403420000000  0.5542900000000 1.0
C      1  0.4887110000000  0.4990590000000  0.4801140000000 1.0
C      1  0.4769930000000  0.4986190000000  0.4000730000000 1.0
C      1  0.4769590000000  0.5866200000000  0.5665910000000 1.0
C      1  0.5133320000000  0.5011750000000  0.5040540000000 1.0
C      1  0.5040340000000  0.5363270000000  0.3614120000000 1.0
C      1  0.4565740000000  0.5252910000000  0.5273050000000 1.0
C      1  0.5388290000000  0.6151030000000  0.5079740000000 1.0
C      1  0.3889800000000  0.4896160000000  0.4392130000000 1.0
C      1  0.3809730000000  0.4054050000000  0.4991150000000 1.0
C      1  0.4042100000000  0.5115380000000  0.4495210000000 1.0
C      1  0.4488540000000  0.5339720000000  0.4591660000000 1.0
C      1  0.4277330000000  0.5590850000000  0.4685120000000 1.0
C      1  0.5388730000000  0.5206540000000  0.4563640000000 1.0
C      1  0.5185230000000  0.4187090000000  0.4318320000000 1.0
C      1  0.6019790000000  0.5620360000000  0.4632400000000 1.0
C      1  0.4393700000000  0.5322180000000  0.5627950000000 1.0
C      1  0.5693570000000  0.5249040000000  0.4502740000000 1.0
C      1  0.5197930000000  0.5807920000000  0.5381560000000 1.0
C      1  0.4946550000000  0.5096650000000  0.4512680000000 1.0
C      1  0.4507630000000  0.5090620000000  0.6059800000000 1.0
C      1  0.4761760000000  0.5322820000000  0.4618890000000 1.0
C      1  0.4168680000000  0.4303040000000  0.5581990000000 1.0
C      1  0.6061330000000  0.4993790000000  0.5466940000000 1.0
C      1  0.4734180000000  0.5551540000000  0.4238200000000 1.0
C      1  0.4635020000000  0.4043970000000  0.5510950000000 1.0
C      1  0.5219910000000  0.4030410000000  0.4586260000000 1.0
C      1  0.5893150000000  0.5341720000000  0.4249290000000 1.0
C      1  0.4045910000000  0.5300750000000  0.5352410000000 1.0
C      1  0.4218450000000  0.4792300000000  0.5743270000000 1.0
C      1  0.5457990000000  0.4389810000000  0.5072490000000 1.0
C      1  0.5125850000000  0.4485900000000  0.4653810000000 1.0
C      1  0.4252960000000  0.5565840000000  0.4361640000000 1.0
C      1  0.4699390000000  0.4756300000000  0.4772920000000 1.0
C      1  0.5202460000000  0.5120640000000  0.3768350000000 1.0
END
