TITL C-2782234-8014-906 0.00062829573679962 125000 -633.08982637673 0 0 114 (C1) n - 1
REM
REM in /home/nfs/bkarasulu/CARBON/AIRSS/Generating-Clusters/REBO/Higher-Symm/SD-CG/HFTN-CG
REM
REM
REM
REM
REM
REM ./C.cell (12c818d87b63d06a65506943cc24bca4)
REM
REM compiler GCC version 9.2.1 20190827 (Red Hat 9.2.1-1)
REM options -cpp -mtune=generic -march=x86-64 -g -O0 -fpre-include=/usr/include/finclude/math-vector-fortran.h
REM seed 523809230 505236560 -85647061 477820702 2035722145 966502665 -962869150 -424842081 -1007857943 -1597534122 -1757676932 916696049 1442357704 1067913762 1557128022 831255735 -1826173589 2033488322 1997526748 2108121245 -1071364920 -1498680904 1579695827 -674276969 -218910580 -2081725451 -1572862287 -599337456 1291289485 -213525861 -1506510094 698087862 621114463
REM
CELL 1.54180   50.00000   50.00000   50.00000   90.00000   90.00000   90.00000
LATT -1
SFAC C  
C      1  0.4610970000000  0.5813370000000  0.4866450000000 1.0
C      1  0.4552160000000  0.4815550000000  0.4250100000000 1.0
C      1  0.4601980000000  0.4192470000000  0.5126620000000 1.0
C      1  0.4590390000000  0.5172180000000  0.5725700000000 1.0
C      1  0.5415430000000  0.5737740000000  0.4871210000000 1.0
C      1  0.5361540000000  0.4864870000000  0.4198300000000 1.0
C      1  0.5408940000000  0.4274080000000  0.5138010000000 1.0
C      1  0.5398260000000  0.5153020000000  0.5801120000000 1.0
C      1  0.5832250000000  0.5220720000000  0.4733220000000 1.0
C      1  0.5772440000000  0.4789050000000  0.4704540000000 1.0
C      1  0.5826890000000  0.4779280000000  0.5300900000000 1.0
C      1  0.5788010000000  0.5241740000000  0.5306620000000 1.0
C      1  0.4183610000000  0.5253750000000  0.4811920000000 1.0
C      1  0.4054670000000  0.4635640000000  0.4691310000000 1.0
C      1  0.4202460000000  0.4771890000000  0.5192540000000 1.0
C      1  0.4113920000000  0.5360650000000  0.5279350000000 1.0
C      1  0.4848740000000  0.5669080000000  0.5005670000000 1.0
C      1  0.4802740000000  0.4955900000000  0.4370960000000 1.0
C      1  0.4833370000000  0.4334350000000  0.4974710000000 1.0
C      1  0.4845190000000  0.5058620000000  0.5570020000000 1.0
C      1  0.5156730000000  0.5583370000000  0.4966750000000 1.0
C      1  0.5134100000000  0.4998900000000  0.4373740000000 1.0
C      1  0.5147650000000  0.4415400000000  0.5020600000000 1.0
C      1  0.5164590000000  0.4997410000000  0.5658550000000 1.0
C      1  0.4870960000000  0.5805930000000  0.4634200000000 1.0
C      1  0.4817440000000  0.4595970000000  0.4204280000000 1.0
C      1  0.4865430000000  0.4212150000000  0.5352090000000 1.0
C      1  0.4849310000000  0.5392710000000  0.5786570000000 1.0
C      1  0.5164290000000  0.5800080000000  0.4635850000000 1.0
C      1  0.5097870000000  0.4639310000000  0.4202440000000 1.0
C      1  0.5151140000000  0.4222160000000  0.5366910000000 1.0
C      1  0.5126620000000  0.5368840000000  0.5799820000000 1.0
C      1  0.4429770000000  0.5558760000000  0.4749630000000 1.0
C      1  0.4346540000000  0.4616620000000  0.4418650000000 1.0
C      1  0.4407390000000  0.4435700000000  0.5241440000000 1.0
C      1  0.4387350000000  0.5371480000000  0.5563950000000 1.0
C      1  0.5621630000000  0.5552040000000  0.4674350000000 1.0
C      1  0.5579410000000  0.4682850000000  0.4373650000000 1.0
C      1  0.5617850000000  0.4445580000000  0.5344550000000 1.0
C      1  0.5609700000000  0.5355630000000  0.5642290000000 1.0
C      1  0.5138560000000  0.4697700000000  0.5785280000000 1.0
C      1  0.5142580000000  0.5683270000000  0.5275330000000 1.0
C      1  0.5136620000000  0.5322020000000  0.4264990000000 1.0
C      1  0.5132650000000  0.4278740000000  0.4719710000000 1.0
C      1  0.4848170000000  0.4756730000000  0.5689080000000 1.0
C      1  0.4851230000000  0.5772260000000  0.5316990000000 1.0
C      1  0.4839570000000  0.5253930000000  0.4284200000000 1.0
C      1  0.4836780000000  0.4214070000000  0.4663330000000 1.0
C      1  0.5179030000000  0.5352330000000  0.5290670000000 1.0
C      1  0.5072350000000  0.5318160000000  0.4599970000000 1.0
C      1  0.5193270000000  0.4610780000000  0.4678170000000 1.0
C      1  0.5142070000000  0.4665620000000  0.5438620000000 1.0
C      1  0.4844810000000  0.5422070000000  0.5315230000000 1.0
C      1  0.4736900000000  0.5260700000000  0.4617400000000 1.0
C      1  0.4857210000000  0.4557260000000  0.4646050000000 1.0
C      1  0.4816680000000  0.4729670000000  0.5347020000000 1.0
C      1  0.4403580000000  0.5335070000000  0.5007770000000 1.0
C      1  0.4329730000000  0.4816060000000  0.4685910000000 1.0
C      1  0.4362520000000  0.4638600000000  0.4969040000000 1.0
C      1  0.4386750000000  0.5158530000000  0.5298090000000 1.0
C      1  0.5650620000000  0.5331190000000  0.4937880000000 1.0
C      1  0.5576170000000  0.4964980000000  0.4569470000000 1.0
C      1  0.5612750000000  0.4698980000000  0.5111840000000 1.0
C      1  0.5601360000000  0.5064620000000  0.5460560000000 1.0
C      1  0.5735750000000  0.5318310000000  0.4445770000000 1.0
C      1  0.5725270000000  0.4503750000000  0.4626250000000 1.0
C      1  0.5750640000000  0.4653670000000  0.5590820000000 1.0
C      1  0.5745750000000  0.5532900000000  0.5382890000000 1.0
C      1  0.4296850000000  0.5334600000000  0.4527340000000 1.0
C      1  0.4249920000000  0.4391630000000  0.4658310000000 1.0
C      1  0.4306230000000  0.4668010000000  0.5472040000000 1.0
C      1  0.4274620000000  0.5629540000000  0.5366940000000 1.0
C      1  0.4841740000000  0.5341900000000  0.4923180000000 1.0
C      1  0.4887910000000  0.4867580000000  0.4659740000000 1.0
C      1  0.4833760000000  0.4669780000000  0.5027420000000 1.0
C      1  0.4862020000000  0.5112550000000  0.5247920000000 1.0
C      1  0.5174060000000  0.5272490000000  0.4900530000000 1.0
C      1  0.5204520000000  0.4929430000000  0.4699580000000 1.0
C      1  0.5146230000000  0.4713340000000  0.5123390000000 1.0
C      1  0.5170570000000  0.5048380000000  0.5340000000000 1.0
C      1  0.5394750000000  0.5239890000000  0.4557000000000 1.0
C      1  0.5458730000000  0.4627130000000  0.4890110000000 1.0
C      1  0.5435920000000  0.4781570000000  0.5460540000000 1.0
C      1  0.5464400000000  0.5404430000000  0.5139920000000 1.0
C      1  0.4474990000000  0.5057890000000  0.4622780000000 1.0
C      1  0.4564760000000  0.4499050000000  0.4732470000000 1.0
C      1  0.4527840000000  0.4906330000000  0.5381720000000 1.0
C      1  0.4561750000000  0.5510130000000  0.5232290000000 1.0
C      1  0.4469710000000  0.4179950000000  0.4812000000000 1.0
C      1  0.4462910000000  0.4855690000000  0.5712130000000 1.0
C      1  0.4481210000000  0.5833400000000  0.5182910000000 1.0
C      1  0.4457740000000  0.5142470000000  0.4293640000000 1.0
C      1  0.5518470000000  0.4307900000000  0.4813800000000 1.0
C      1  0.5527540000000  0.4837100000000  0.5780800000000 1.0
C      1  0.5531180000000  0.5721970000000  0.5195150000000 1.0
C      1  0.5504760000000  0.5172340000000  0.4238500000000 1.0
C      1  0.4624860000000  0.4364680000000  0.5482440000000 1.0
C      1  0.4613190000000  0.5567150000000  0.5676270000000 1.0
C      1  0.4632080000000  0.5642060000000  0.4509200000000 1.0
C      1  0.4579970000000  0.4422770000000  0.4313510000000 1.0
C      1  0.5380130000000  0.4349300000000  0.5529050000000 1.0
C      1  0.5358200000000  0.5535610000000  0.5691980000000 1.0
C      1  0.5397560000000  0.5668470000000  0.4479050000000 1.0
C      1  0.5339680000000  0.4485630000000  0.4317980000000 1.0
C      1  0.4599240000000  0.5454130000000  0.4295620000000 1.0
C      1  0.4586400000000  0.4185480000000  0.4487180000000 1.0
C      1  0.4612860000000  0.4549140000000  0.5697900000000 1.0
C      1  0.4609550000000  0.5801750000000  0.5501530000000 1.0
C      1  0.5385590000000  0.5494330000000  0.4247910000000 1.0
C      1  0.5365020000000  0.4273130000000  0.4510650000000 1.0
C      1  0.5392050000000  0.4521290000000  0.5760730000000 1.0
C      1  0.5358570000000  0.5744750000000  0.5489580000000 1.0
C      1  0.4798640000000  0.5001680000000  0.4949070000000 1.0
C      1  0.5256610000000  0.4992820000000  0.5015430000000 1.0
END
