TITL C-2782225-7408-1144 -0.0268250345858818 125000 -1087.26602532163 0 0 188 (C1) n - 1
REM
REM in /home/nfs/bkarasulu/CARBON/AIRSS/Generating-Clusters/REBO/Higher-Symm/SD-CG/HFTN-CG
REM
REM
REM
REM
REM
REM ./C.cell (12c818d87b63d06a65506943cc24bca4)
REM
REM compiler GCC version 9.2.1 20190827 (Red Hat 9.2.1-1)
REM options -cpp -mtune=generic -march=x86-64 -g -O0 -fpre-include=/usr/include/finclude/math-vector-fortran.h
REM seed -1435300648 192959163 2104421238 1123459131 410124312 -1926598127 -1360258111 -1320146859 -1252040138 769826093 -1631429888 1703488662 654007372 1144863131 463039370 -1343835605 -691190664 -1833595455 1711992843 1473827000 881780891 -589524341 -1877554899 925364070 -2065549493 -1576265670 -1028304300 1105389215 -1349092671 -2141868154 -1521880634 -1495356876 1501816718
REM
CELL 1.54180   50.00000   50.00000   50.00000   90.00000   90.00000   90.00000
LATT -1
SFAC C  
C      1  0.5973920000000  0.4490090000000  0.5189300000000 1.0
C      1  0.4021500000000  0.4407530000000  0.4867170000000 1.0
C      1  0.4028120000000  0.4355070000000  0.5194500000000 1.0
C      1  0.5966890000000  0.4476770000000  0.4904300000000 1.0
C      1  0.5291890000000  0.5416310000000  0.5455250000000 1.0
C      1  0.4769540000000  0.5393610000000  0.4491890000000 1.0
C      1  0.4752460000000  0.5347770000000  0.5477070000000 1.0
C      1  0.5345410000000  0.5425600000000  0.4484750000000 1.0
C      1  0.3981530000000  0.4978750000000  0.5643540000000 1.0
C      1  0.6171540000000  0.5038540000000  0.4344190000000 1.0
C      1  0.6148320000000  0.5059200000000  0.5615360000000 1.0
C      1  0.3859310000000  0.5040640000000  0.4411930000000 1.0
C      1  0.6001670000000  0.4776040000000  0.5649810000000 1.0
C      1  0.4018650000000  0.4788420000000  0.4494920000000 1.0
C      1  0.3991160000000  0.4726760000000  0.5479290000000 1.0
C      1  0.5998780000000  0.4791870000000  0.4366930000000 1.0
C      1  0.4843080000000  0.4411220000000  0.5817090000000 1.0
C      1  0.5132500000000  0.4440640000000  0.4159690000000 1.0
C      1  0.5104920000000  0.4432000000000  0.5839440000000 1.0
C      1  0.4866310000000  0.4425110000000  0.4166870000000 1.0
C      1  0.6073050000000  0.4725720000000  0.5333320000000 1.0
C      1  0.3930710000000  0.4705210000000  0.4806860000000 1.0
C      1  0.3906500000000  0.4670030000000  0.5151830000000 1.0
C      1  0.6051600000000  0.4670230000000  0.4681080000000 1.0
C      1  0.4604220000000  0.4708740000000  0.5931150000000 1.0
C      1  0.5388350000000  0.4781740000000  0.4050870000000 1.0
C      1  0.5402000000000  0.4787180000000  0.5931390000000 1.0
C      1  0.4605940000000  0.4747430000000  0.4063710000000 1.0
C      1  0.4861120000000  0.4374700000000  0.4776150000000 1.0
C      1  0.5127010000000  0.4377110000000  0.5242510000000 1.0
C      1  0.5150630000000  0.4387410000000  0.4773660000000 1.0
C      1  0.4834960000000  0.4356000000000  0.5249840000000 1.0
C      1  0.5107000000000  0.6178510000000  0.5411150000000 1.0
C      1  0.4848850000000  0.6106010000000  0.4641310000000 1.0
C      1  0.4797210000000  0.6068180000000  0.5316220000000 1.0
C      1  0.5184220000000  0.6170120000000  0.4631230000000 1.0
C      1  0.5127260000000  0.4726150000000  0.6119630000000 1.0
C      1  0.4870810000000  0.4745780000000  0.3863890000000 1.0
C      1  0.4881960000000  0.4703890000000  0.6114360000000 1.0
C      1  0.5116970000000  0.4760250000000  0.3862730000000 1.0
C      1  0.4763910000000  0.4804560000000  0.5082880000000 1.0
C      1  0.5218360000000  0.4956400000000  0.4822900000000 1.0
C      1  0.5244390000000  0.4889450000000  0.5141190000000 1.0
C      1  0.4885490000000  0.4936320000000  0.4823090000000 1.0
C      1  0.5528680000000  0.5831430000000  0.5185930000000 1.0
C      1  0.4501000000000  0.5745130000000  0.4833200000000 1.0
C      1  0.4465650000000  0.5730530000000  0.5177160000000 1.0
C      1  0.5583860000000  0.5817840000000  0.4840550000000 1.0
C      1  0.5241980000000  0.4465300000000  0.4471320000000 1.0
C      1  0.4716480000000  0.4477440000000  0.5533800000000 1.0
C      1  0.4752150000000  0.4444360000000  0.4475750000000 1.0
C      1  0.5233670000000  0.4454340000000  0.5538550000000 1.0
C      1  0.5493090000000  0.5512490000000  0.5126930000000 1.0
C      1  0.4508370000000  0.5421510000000  0.4843770000000 1.0
C      1  0.4525190000000  0.5335820000000  0.5153060000000 1.0
C      1  0.5573430000000  0.5483630000000  0.4829690000000 1.0
C      1  0.4911990000000  0.5156600000000  0.4449100000000 1.0
C      1  0.5201490000000  0.5172660000000  0.5547030000000 1.0
C      1  0.5221360000000  0.5184660000000  0.4446610000000 1.0
C      1  0.4898730000000  0.5121450000000  0.5532640000000 1.0
C      1  0.4333900000000  0.4990680000000  0.4634750000000 1.0
C      1  0.5601250000000  0.5030040000000  0.5386730000000 1.0
C      1  0.5602350000000  0.5051770000000  0.4578260000000 1.0
C      1  0.4326580000000  0.4964210000000  0.5443020000000 1.0
C      1  0.4331390000000  0.5287930000000  0.5369050000000 1.0
C      1  0.5714860000000  0.5353830000000  0.4615830000000 1.0
C      1  0.5662380000000  0.5353140000000  0.5321990000000 1.0
C      1  0.4330650000000  0.5311090000000  0.4635680000000 1.0
C      1  0.6369840000000  0.5061420000000  0.4539420000000 1.0
C      1  0.3746890000000  0.5598180000000  0.5295340000000 1.0
C      1  0.3655290000000  0.5111420000000  0.4589780000000 1.0
C      1  0.6355750000000  0.5086400000000  0.5428950000000 1.0
C      1  0.4507620000000  0.5035520000000  0.5883300000000 1.0
C      1  0.5488890000000  0.5109490000000  0.4093690000000 1.0
C      1  0.5482670000000  0.5117280000000  0.5877980000000 1.0
C      1  0.4507520000000  0.5072710000000  0.4119000000000 1.0
C      1  0.5607640000000  0.4322430000000  0.5162720000000 1.0
C      1  0.4407620000000  0.4303740000000  0.4869220000000 1.0
C      1  0.4343530000000  0.4295890000000  0.5154950000000 1.0
C      1  0.5585970000000  0.4358790000000  0.4874490000000 1.0
C      1  0.5388570000000  0.6095990000000  0.4856160000000 1.0
C      1  0.4542760000000  0.6022440000000  0.5118400000000 1.0
C      1  0.4585390000000  0.6066590000000  0.4819370000000 1.0
C      1  0.5361160000000  0.6127440000000  0.5190600000000 1.0
C      1  0.5110390000000  0.5266650000000  0.4821840000000 1.0
C      1  0.4753700000000  0.5102600000000  0.5161050000000 1.0
C      1  0.4784460000000  0.5255880000000  0.4864020000000 1.0
C      1  0.5062870000000  0.5153340000000  0.5131130000000 1.0
C      1  0.4571480000000  0.4545750000000  0.5167540000000 1.0
C      1  0.5388240000000  0.4594360000000  0.4823870000000 1.0
C      1  0.5385290000000  0.4570720000000  0.5147820000000 1.0
C      1  0.4600490000000  0.4537130000000  0.4834380000000 1.0
C      1  0.4859090000000  0.5784530000000  0.5134200000000 1.0
C      1  0.5205640000000  0.5846990000000  0.4953270000000 1.0
C      1  0.5142340000000  0.5874570000000  0.5271830000000 1.0
C      1  0.4914200000000  0.5842850000000  0.4816850000000 1.0
C      1  0.5165570000000  0.5239130000000  0.5936710000000 1.0
C      1  0.4822270000000  0.5206510000000  0.4065010000000 1.0
C      1  0.4823170000000  0.5171370000000  0.5919640000000 1.0
C      1  0.5173470000000  0.5247480000000  0.4057250000000 1.0
C      1  0.5660170000000  0.5312050000000  0.5662860000000 1.0
C      1  0.4329340000000  0.5273880000000  0.4295180000000 1.0
C      1  0.4349840000000  0.5259520000000  0.5710520000000 1.0
C      1  0.5698490000000  0.5298980000000  0.4277570000000 1.0
C      1  0.4044400000000  0.5254640000000  0.5640860000000 1.0
C      1  0.6000260000000  0.5274090000000  0.4350400000000 1.0
C      1  0.5956020000000  0.5270830000000  0.5577120000000 1.0
C      1  0.4034050000000  0.5271840000000  0.4373870000000 1.0
C      1  0.5142860000000  0.4739300000000  0.5415620000000 1.0
C      1  0.4820450000000  0.4749000000000  0.4578540000000 1.0
C      1  0.4853270000000  0.4732930000000  0.5380750000000 1.0
C      1  0.5135860000000  0.4761590000000  0.4566530000000 1.0
C      1  0.4019330000000  0.5406920000000  0.5361720000000 1.0
C      1  0.6043030000000  0.5372290000000  0.4643530000000 1.0
C      1  0.5996970000000  0.5366160000000  0.5283100000000 1.0
C      1  0.4009960000000  0.5424690000000  0.4646430000000 1.0
C      1  0.4195920000000  0.4987160000000  0.4906770000000 1.0
C      1  0.5780230000000  0.5030510000000  0.5119710000000 1.0
C      1  0.5778590000000  0.5033500000000  0.4843930000000 1.0
C      1  0.4149910000000  0.4981940000000  0.5188490000000 1.0
C      1  0.6046750000000  0.4973400000000  0.5203150000000 1.0
C      1  0.3862680000000  0.5001650000000  0.4913030000000 1.0
C      1  0.3815110000000  0.4989650000000  0.5241500000000 1.0
C      1  0.6042640000000  0.4963170000000  0.4746940000000 1.0
C      1  0.4446240000000  0.4111580000000  0.5405780000000 1.0
C      1  0.5540240000000  0.4140970000000  0.4625840000000 1.0
C      1  0.5528120000000  0.4118080000000  0.5406950000000 1.0
C      1  0.4476150000000  0.4093370000000  0.4623370000000 1.0
C      1  0.5484150000000  0.4739880000000  0.5423370000000 1.0
C      1  0.4502250000000  0.4722350000000  0.4613650000000 1.0
C      1  0.4515290000000  0.4730620000000  0.5448970000000 1.0
C      1  0.5475540000000  0.4765550000000  0.4585740000000 1.0
C      1  0.4838790000000  0.4868880000000  0.5753330000000 1.0
C      1  0.5153290000000  0.4945200000000  0.4214830000000 1.0
C      1  0.5146700000000  0.4935520000000  0.5780410000000 1.0
C      1  0.4845340000000  0.4904540000000  0.4229390000000 1.0
C      1  0.3777460000000  0.5306430000000  0.4825590000000 1.0
C      1  0.6255590000000  0.5209370000000  0.5127710000000 1.0
C      1  0.6261740000000  0.5196640000000  0.4826730000000 1.0
C      1  0.3774730000000  0.5311900000000  0.5145940000000 1.0
C      1  0.4832280000000  0.5491040000000  0.5187250000000 1.0
C      1  0.5236460000000  0.5568500000000  0.4782640000000 1.0
C      1  0.5168040000000  0.5453900000000  0.5168730000000 1.0
C      1  0.4926490000000  0.5593980000000  0.4635030000000 1.0
C      1  0.5392650000000  0.4195280000000  0.4335700000000 1.0
C      1  0.4603280000000  0.4126250000000  0.5685310000000 1.0
C      1  0.4620530000000  0.4163110000000  0.4337090000000 1.0
C      1  0.5373680000000  0.4184370000000  0.5684370000000 1.0
C      1  0.4729490000000  0.4069240000000  0.4854210000000 1.0
C      1  0.5282830000000  0.4089540000000  0.5168920000000 1.0
C      1  0.5290730000000  0.4090670000000  0.4855680000000 1.0
C      1  0.4696420000000  0.4066000000000  0.5173730000000 1.0
C      1  0.4849960000000  0.5954690000000  0.5618070000000 1.0
C      1  0.5130110000000  0.6011750000000  0.4374480000000 1.0
C      1  0.5134400000000  0.6009170000000  0.5699260000000 1.0
C      1  0.4833430000000  0.5985380000000  0.4325940000000 1.0
C      1  0.5293870000000  0.5774380000000  0.5727460000000 1.0
C      1  0.4720970000000  0.5726150000000  0.4275880000000 1.0
C      1  0.4735340000000  0.5696140000000  0.5669900000000 1.0
C      1  0.5289010000000  0.5780400000000  0.4310150000000 1.0
C      1  0.4839100000000  0.4035210000000  0.5484370000000 1.0
C      1  0.5154660000000  0.4063890000000  0.4542410000000 1.0
C      1  0.5135450000000  0.4055010000000  0.5476450000000 1.0
C      1  0.4870090000000  0.4053100000000  0.4542290000000 1.0
C      1  0.5428640000000  0.5685410000000  0.5480100000000 1.0
C      1  0.4549190000000  0.5635530000000  0.4513010000000 1.0
C      1  0.4547150000000  0.5616250000000  0.5435490000000 1.0
C      1  0.5497930000000  0.5721650000000  0.4523220000000 1.0
C      1  0.5170510000000  0.5558490000000  0.5871840000000 1.0
C      1  0.4880090000000  0.5524530000000  0.4131630000000 1.0
C      1  0.4876990000000  0.5493710000000  0.5827890000000 1.0
C      1  0.5177360000000  0.5569320000000  0.4151970000000 1.0
C      1  0.4300240000000  0.4879350000000  0.4311740000000 1.0
C      1  0.5698280000000  0.4922200000000  0.5699370000000 1.0
C      1  0.5688520000000  0.4904640000000  0.4282120000000 1.0
C      1  0.4269630000000  0.4825960000000  0.5748620000000 1.0
C      1  0.5729790000000  0.4605580000000  0.4448890000000 1.0
C      1  0.4156790000000  0.4525570000000  0.5631420000000 1.0
C      1  0.4263300000000  0.4565560000000  0.4448300000000 1.0
C      1  0.5720550000000  0.4593540000000  0.5592050000000 1.0
C      1  0.4208270000000  0.4306770000000  0.4612900000000 1.0
C      1  0.5789330000000  0.4338720000000  0.5425700000000 1.0
C      1  0.5795380000000  0.4368700000000  0.4628540000000 1.0
C      1  0.4158340000000  0.4271610000000  0.5497820000000 1.0
C      1  0.5426440000000  0.4458400000000  0.5882040000000 1.0
C      1  0.4544190000000  0.4429890000000  0.4137560000000 1.0
C      1  0.4530790000000  0.4381160000000  0.5872460000000 1.0
C      1  0.5454960000000  0.4467160000000  0.4137910000000 1.0
END
