TITL C-2782240-8521-120 0.00155809349692697 125000 -184.404387589724 0 0 33 (C1) n - 1
REM
REM in /home/nfs/bkarasulu/CARBON/AIRSS/Generating-Clusters/REBO/Higher-Symm/SD-CG/HFTN-CG
REM
REM
REM
REM
REM
REM ./C.cell (12c818d87b63d06a65506943cc24bca4)
REM
REM compiler GCC version 9.2.1 20190827 (Red Hat 9.2.1-1)
REM options -cpp -mtune=generic -march=x86-64 -g -O0 -fpre-include=/usr/include/finclude/math-vector-fortran.h
REM seed -49795596 -1596435629 -1594591148 -1199863374 933293326 117720021 13638151 1267078639 -1061276330 1869682551 -1915673808 1609704780 737653878 262869519 1008563720 755136444 -1329706168 -1705102286 1361528085 -1652883017 388589171 93809582 1161212429 -1891401074 486450358 856855506 1458027374 -277074421 367928417 1186224365 196284974 20293282 -1955368028
REM
CELL 1.54180   50.00000   50.00000   50.00000   90.00000   90.00000   90.00000
LATT -1
SFAC C  
C      1  0.5322480000000  0.4703160000000  0.5140430000000 1.0
C      1  0.5424580000000  0.4962040000000  0.4609330000000 1.0
C      1  0.4711380000000  0.4520730000000  0.5061720000000 1.0
C      1  0.5552150000000  0.4871220000000  0.5138300000000 1.0
C      1  0.4684520000000  0.5274870000000  0.4837040000000 1.0
C      1  0.5276930000000  0.5232140000000  0.4862820000000 1.0
C      1  0.4397050000000  0.4997820000000  0.5111890000000 1.0
C      1  0.5496420000000  0.5187630000000  0.5192570000000 1.0
C      1  0.5032210000000  0.5083190000000  0.4798890000000 1.0
C      1  0.5222970000000  0.4571740000000  0.4896060000000 1.0
C      1  0.4583560000000  0.5212910000000  0.5087420000000 1.0
C      1  0.4701260000000  0.4786100000000  0.5260630000000 1.0
C      1  0.4891060000000  0.4899360000000  0.5017150000000 1.0
C      1  0.4979460000000  0.4785760000000  0.4540350000000 1.0
C      1  0.4979280000000  0.5091620000000  0.4453490000000 1.0
C      1  0.5248580000000  0.4727840000000  0.4645640000000 1.0
C      1  0.5279140000000  0.5359340000000  0.5240850000000 1.0
C      1  0.4785190000000  0.4756620000000  0.4747570000000 1.0
C      1  0.4790830000000  0.5284490000000  0.5275480000000 1.0
C      1  0.4965540000000  0.5476410000000  0.4822090000000 1.0
C      1  0.4837890000000  0.5143860000000  0.5523760000000 1.0
C      1  0.5035540000000  0.4936760000000  0.5511460000000 1.0
C      1  0.5286900000000  0.5184090000000  0.4468070000000 1.0
C      1  0.5095390000000  0.4835070000000  0.5257200000000 1.0
C      1  0.4959680000000  0.4453380000000  0.4941320000000 1.0
C      1  0.4805250000000  0.5333500000000  0.4556340000000 1.0
C      1  0.5255780000000  0.5456680000000  0.4642990000000 1.0
C      1  0.4422040000000  0.4692010000000  0.5122850000000 1.0
C      1  0.5158620000000  0.4846910000000  0.5736940000000 1.0
C      1  0.4532960000000  0.4648280000000  0.4727310000000 1.0
C      1  0.5016220000000  0.5407640000000  0.5140820000000 1.0
C      1  0.4706450000000  0.5207780000000  0.5753000000000 1.0
C      1  0.5562690000000  0.5069040000000  0.4878250000000 1.0
END
