TITL C-2782229-3092-1357 -0.00166998506881914 125000 -442.581173415859 0 0 77 (C1) n - 1
REM
REM in /home/nfs/bkarasulu/CARBON/AIRSS/Generating-Clusters/REBO/Higher-Symm/SD-CG/HFTN-CG
REM
REM
REM
REM
REM
REM ./C.cell (12c818d87b63d06a65506943cc24bca4)
REM
REM compiler GCC version 9.2.1 20190827 (Red Hat 9.2.1-1)
REM options -cpp -mtune=generic -march=x86-64 -g -O0 -fpre-include=/usr/include/finclude/math-vector-fortran.h
REM seed 853445612 -45029329 -196973400 -644994610 805467828 -1958938416 -1883318316 1997962728 1948711755 -2073583979 -1643486229 151914884 369427425 682757133 1070424433 -227343206 1824299038 -1689795276 207544850 -393619862 539384892 -341005881 1870954299 933237543 1261587138 892816001 -1705001428 1112918564 -114933832 1472562568 686722527 1460077063 741528265
REM
CELL 1.54180   50.00000   50.00000   50.00000   90.00000   90.00000   90.00000
LATT -1
SFAC C  
C      1  0.5693150000000  0.4919420000000  0.5327380000000 1.0
C      1  0.5674290000000  0.5069820000000  0.4716890000000 1.0
C      1  0.4362570000000  0.4896850000000  0.4674430000000 1.0
C      1  0.4334920000000  0.5094050000000  0.5355520000000 1.0
C      1  0.5648270000000  0.5343200000000  0.4896790000000 1.0
C      1  0.5677540000000  0.4666890000000  0.5111720000000 1.0
C      1  0.4343760000000  0.4728550000000  0.4952460000000 1.0
C      1  0.4324640000000  0.5320330000000  0.5101950000000 1.0
C      1  0.4715890000000  0.4901860000000  0.4266950000000 1.0
C      1  0.4710360000000  0.5081910000000  0.5757190000000 1.0
C      1  0.5296310000000  0.4881300000000  0.5700010000000 1.0
C      1  0.5296230000000  0.5120130000000  0.4289680000000 1.0
C      1  0.4697760000000  0.4280670000000  0.4887990000000 1.0
C      1  0.4710070000000  0.5720100000000  0.5109310000000 1.0
C      1  0.5295750000000  0.5761540000000  0.4904070000000 1.0
C      1  0.5276400000000  0.4216980000000  0.5116600000000 1.0
C      1  0.4646990000000  0.4957480000000  0.5337020000000 1.0
C      1  0.4680450000000  0.5023840000000  0.4655950000000 1.0
C      1  0.5366540000000  0.4935190000000  0.4780200000000 1.0
C      1  0.5226220000000  0.5123820000000  0.5180360000000 1.0
C      1  0.4780050000000  0.5191720000000  0.4879670000000 1.0
C      1  0.4649910000000  0.4769460000000  0.5102170000000 1.0
C      1  0.5370790000000  0.4723900000000  0.4978760000000 1.0
C      1  0.5330080000000  0.5353460000000  0.5020870000000 1.0
C      1  0.5053410000000  0.5790030000000  0.4664760000000 1.0
C      1  0.5043000000000  0.4193790000000  0.5363400000000 1.0
C      1  0.4926530000000  0.5771130000000  0.5367000000000 1.0
C      1  0.4931050000000  0.4240620000000  0.4648270000000 1.0
C      1  0.5081280000000  0.4624220000000  0.5759320000000 1.0
C      1  0.5066550000000  0.5353850000000  0.4237850000000 1.0
C      1  0.4940960000000  0.5331760000000  0.5765370000000 1.0
C      1  0.4947380000000  0.4652190000000  0.4238050000000 1.0
C      1  0.4858000000000  0.4763070000000  0.4611010000000 1.0
C      1  0.4841790000000  0.5200920000000  0.5400870000000 1.0
C      1  0.5135310000000  0.4853960000000  0.5341350000000 1.0
C      1  0.5143210000000  0.5133340000000  0.4655230000000 1.0
C      1  0.4867490000000  0.4640010000000  0.4895170000000 1.0
C      1  0.4869110000000  0.5362260000000  0.5149500000000 1.0
C      1  0.5152690000000  0.5417690000000  0.4766410000000 1.0
C      1  0.5162870000000  0.4591790000000  0.5183850000000 1.0
C      1  0.5620850000000  0.5193820000000  0.5388590000000 1.0
C      1  0.5667380000000  0.4760150000000  0.4588060000000 1.0
C      1  0.4346300000000  0.5221720000000  0.4587520000000 1.0
C      1  0.4324360000000  0.4773000000000  0.5472020000000 1.0
C      1  0.5657490000000  0.5430560000000  0.5225610000000 1.0
C      1  0.5669680000000  0.4540880000000  0.4794510000000 1.0
C      1  0.4333040000000  0.4576440000000  0.5244860000000 1.0
C      1  0.4387030000000  0.5382160000000  0.4824700000000 1.0
C      1  0.5453460000000  0.5256500000000  0.4559490000000 1.0
C      1  0.5444540000000  0.4733990000000  0.5429320000000 1.0
C      1  0.4542690000000  0.5277910000000  0.5552170000000 1.0
C      1  0.4548970000000  0.4698280000000  0.4468380000000 1.0
C      1  0.5466060000000  0.4451290000000  0.5260990000000 1.0
C      1  0.5463420000000  0.5555940000000  0.4704480000000 1.0
C      1  0.4563950000000  0.5457750000000  0.5273760000000 1.0
C      1  0.4553930000000  0.4560590000000  0.4769620000000 1.0
C      1  0.5147330000000  0.5400310000000  0.5597230000000 1.0
C      1  0.5161850000000  0.4599780000000  0.4409490000000 1.0
C      1  0.4840360000000  0.5427640000000  0.4376010000000 1.0
C      1  0.4846130000000  0.4562930000000  0.5625980000000 1.0
C      1  0.5155860000000  0.5626700000000  0.5424780000000 1.0
C      1  0.5156690000000  0.4396040000000  0.4608900000000 1.0
C      1  0.4836940000000  0.4372830000000  0.5414790000000 1.0
C      1  0.4848560000000  0.5612330000000  0.4595510000000 1.0
C      1  0.5324430000000  0.5163110000000  0.5507560000000 1.0
C      1  0.5361380000000  0.4829910000000  0.4454720000000 1.0
C      1  0.4623860000000  0.5207780000000  0.4388040000000 1.0
C      1  0.4629760000000  0.4779670000000  0.5623710000000 1.0
C      1  0.5374840000000  0.5622850000000  0.5206630000000 1.0
C      1  0.5358170000000  0.4409360000000  0.4846950000000 1.0
C      1  0.4638750000000  0.4436930000000  0.5184730000000 1.0
C      1  0.4677140000000  0.5517410000000  0.4835920000000 1.0
C      1  0.4996540000000  0.4380500000000  0.5015490000000 1.0
C      1  0.5020600000000  0.5606100000000  0.5016920000000 1.0
C      1  0.5000510000000  0.5003070000000  0.4417540000000 1.0
C      1  0.4984460000000  0.4973580000000  0.5594730000000 1.0
C      1  0.4997250000000  0.5014440000000  0.5006430000000 1.0
END
