TITL C-2782238-9940-194 -0.00245601135094057 125000 -666.601102534831 0 0 119 (C1) n - 1
REM
REM in /home/nfs/bkarasulu/CARBON/AIRSS/Generating-Clusters/REBO/Higher-Symm/SD-CG/HFTN-CG
REM
REM
REM
REM
REM
REM ./C.cell (12c818d87b63d06a65506943cc24bca4)
REM
REM compiler GCC version 9.2.1 20190827 (Red Hat 9.2.1-1)
REM options -cpp -mtune=generic -march=x86-64 -g -O0 -fpre-include=/usr/include/finclude/math-vector-fortran.h
REM seed 1294334576 1837764204 -520111132 1760500106 -1133538979 -1684685488 -1341223234 -1566417569 -265333164 -369466439 -257823715 660091661 874719322 203267769 1300128199 1052872196 -431097976 -699402131 1032913681 1816580166 405081980 1163843528 -902056777 6023970 847388446 1595487489 -1473318313 -802780090 782397209 -985366861 -143788992 -2005002102 2127858350
REM
CELL 1.54180   50.00000   50.00000   50.00000   90.00000   90.00000   90.00000
LATT -1
SFAC C  
C      1  0.5010360000000  0.5841490000000  0.4676670000000 1.0
C      1  0.4134230000000  0.5230580000000  0.4783450000000 1.0
C      1  0.4479210000000  0.4268670000000  0.4750080000000 1.0
C      1  0.5588940000000  0.4319120000000  0.4696950000000 1.0
C      1  0.5873490000000  0.5356570000000  0.4843910000000 1.0
C      1  0.4981450000000  0.5856720000000  0.5261890000000 1.0
C      1  0.5954550000000  0.5307100000000  0.5390250000000 1.0
C      1  0.5472880000000  0.4272980000000  0.5223670000000 1.0
C      1  0.4473220000000  0.4325540000000  0.5300730000000 1.0
C      1  0.4130060000000  0.5277850000000  0.5349710000000 1.0
C      1  0.4797510000000  0.5201040000000  0.4834760000000 1.0
C      1  0.4752460000000  0.4870730000000  0.4838640000000 1.0
C      1  0.5045680000000  0.4721530000000  0.4858530000000 1.0
C      1  0.5282340000000  0.4953200000000  0.4859050000000 1.0
C      1  0.5125680000000  0.5248690000000  0.4855090000000 1.0
C      1  0.5200740000000  0.5182010000000  0.5174720000000 1.0
C      1  0.5224740000000  0.4860320000000  0.5186510000000 1.0
C      1  0.4929860000000  0.4727750000000  0.5165630000000 1.0
C      1  0.4711140000000  0.4971250000000  0.5148620000000 1.0
C      1  0.4875440000000  0.5254650000000  0.5164090000000 1.0
C      1  0.5808050000000  0.4890850000000  0.4597990000000 1.0
C      1  0.5381780000000  0.5701150000000  0.4634120000000 1.0
C      1  0.4438970000000  0.5608540000000  0.4559020000000 1.0
C      1  0.4290050000000  0.4616630000000  0.4697220000000 1.0
C      1  0.5080070000000  0.4186280000000  0.4599940000000 1.0
C      1  0.4184470000000  0.4884570000000  0.5392420000000 1.0
C      1  0.4622250000000  0.5720030000000  0.5371720000000 1.0
C      1  0.5508290000000  0.5596660000000  0.5438290000000 1.0
C      1  0.5687380000000  0.4707970000000  0.5436890000000 1.0
C      1  0.4843000000000  0.4204040000000  0.5389190000000 1.0
C      1  0.5716330000000  0.4509910000000  0.5180680000000 1.0
C      1  0.5814140000000  0.5601520000000  0.5301540000000 1.0
C      1  0.4681370000000  0.5866550000000  0.5099010000000 1.0
C      1  0.3981570000000  0.5023040000000  0.5176780000000 1.0
C      1  0.4661730000000  0.4080710000000  0.5154050000000 1.0
C      1  0.4212350000000  0.4391060000000  0.4923420000000 1.0
C      1  0.4271900000000  0.5539710000000  0.4829980000000 1.0
C      1  0.5290880000000  0.5933190000000  0.4846710000000 1.0
C      1  0.5939720000000  0.5023940000000  0.4861960000000 1.0
C      1  0.5343360000000  0.4097540000000  0.4781910000000 1.0
C      1  0.5067980000000  0.4664230000000  0.5889700000000 1.0
C      1  0.5595030000000  0.4820570000000  0.5870820000000 1.0
C      1  0.5304060000000  0.5403700000000  0.5844350000000 1.0
C      1  0.4787370000000  0.5243440000000  0.5923360000000 1.0
C      1  0.4597450000000  0.4914170000000  0.5869050000000 1.0
C      1  0.4867400000000  0.4585860000000  0.4175360000000 1.0
C      1  0.4594560000000  0.4952330000000  0.4102670000000 1.0
C      1  0.4890780000000  0.5217600000000  0.4106050000000 1.0
C      1  0.5415680000000  0.5325580000000  0.4249290000000 1.0
C      1  0.5257160000000  0.4845680000000  0.4073500000000 1.0
C      1  0.5085470000000  0.4518180000000  0.4656710000000 1.0
C      1  0.5479140000000  0.4978020000000  0.4616760000000 1.0
C      1  0.5198820000000  0.5422260000000  0.4629200000000 1.0
C      1  0.4637400000000  0.5331450000000  0.4617800000000 1.0
C      1  0.4590660000000  0.4757780000000  0.4618730000000 1.0
C      1  0.4876730000000  0.4543790000000  0.5382860000000 1.0
C      1  0.4505200000000  0.4967120000000  0.5358870000000 1.0
C      1  0.4810850000000  0.5436140000000  0.5387520000000 1.0
C      1  0.5372850000000  0.5297790000000  0.5378010000000 1.0
C      1  0.5350810000000  0.4751900000000  0.5438370000000 1.0
C      1  0.4413710000000  0.5462190000000  0.5399810000000 1.0
C      1  0.4347000000000  0.4607640000000  0.5444510000000 1.0
C      1  0.5157850000000  0.4262620000000  0.5352550000000 1.0
C      1  0.5826580000000  0.4992960000000  0.5421820000000 1.0
C      1  0.5263090000000  0.5787480000000  0.5437450000000 1.0
C      1  0.5666000000000  0.5590250000000  0.4721370000000 1.0
C      1  0.5642840000000  0.4620510000000  0.4548010000000 1.0
C      1  0.4764530000000  0.4182930000000  0.4584070000000 1.0
C      1  0.4228390000000  0.4931390000000  0.4647670000000 1.0
C      1  0.4746250000000  0.5700260000000  0.4514600000000 1.0
C      1  0.4643870000000  0.4381820000000  0.5584330000000 1.0
C      1  0.5483570000000  0.4441050000000  0.5495030000000 1.0
C      1  0.5666900000000  0.5331620000000  0.5554530000000 1.0
C      1  0.4889990000000  0.5728960000000  0.5560450000000 1.0
C      1  0.4299450000000  0.5134060000000  0.5592510000000 1.0
C      1  0.5343890000000  0.4365550000000  0.4486180000000 1.0
C      1  0.4495400000000  0.4459300000000  0.4485480000000 1.0
C      1  0.4307370000000  0.5298520000000  0.4517850000000 1.0
C      1  0.5129040000000  0.5681090000000  0.4406880000000 1.0
C      1  0.5721520000000  0.5217420000000  0.4593330000000 1.0
C      1  0.5415460000000  0.4638690000000  0.4295150000000 1.0
C      1  0.5600030000000  0.5445960000000  0.4418180000000 1.0
C      1  0.4871830000000  0.5531570000000  0.4247040000000 1.0
C      1  0.4362260000000  0.5016470000000  0.4346230000000 1.0
C      1  0.4710890000000  0.4346080000000  0.4289410000000 1.0
C      1  0.4529680000000  0.4649140000000  0.5716180000000 1.0
C      1  0.4553870000000  0.5339870000000  0.5687850000000 1.0
C      1  0.5150760000000  0.5625450000000  0.5716270000000 1.0
C      1  0.5639770000000  0.5044660000000  0.5704000000000 1.0
C      1  0.5175080000000  0.4447950000000  0.5639290000000 1.0
C      1  0.5135860000000  0.4244920000000  0.5011390000000 1.0
C      1  0.5749920000000  0.4911420000000  0.5099940000000 1.0
C      1  0.5325340000000  0.5722610000000  0.5108180000000 1.0
C      1  0.4494740000000  0.5497730000000  0.5068210000000 1.0
C      1  0.4339600000000  0.4647400000000  0.5106550000000 1.0
C      1  0.4839810000000  0.4228060000000  0.4914690000000 1.0
C      1  0.4242180000000  0.4907800000000  0.4988400000000 1.0
C      1  0.4708020000000  0.5648810000000  0.4850070000000 1.0
C      1  0.5591030000000  0.5547870000000  0.5050370000000 1.0
C      1  0.5648140000000  0.4665870000000  0.4887190000000 1.0
C      1  0.5101620000000  0.4665290000000  0.4388410000000 1.0
C      1  0.5340780000000  0.5031170000000  0.4337870000000 1.0
C      1  0.5045790000000  0.5292930000000  0.4396570000000 1.0
C      1  0.4639980000000  0.5214580000000  0.4320080000000 1.0
C      1  0.4740380000000  0.4832130000000  0.4369900000000 1.0
C      1  0.4860790000000  0.4709590000000  0.5650330000000 1.0
C      1  0.4688690000000  0.5060490000000  0.5587840000000 1.0
C      1  0.4955640000000  0.5349310000000  0.5658380000000 1.0
C      1  0.5323550000000  0.5165240000000  0.5670920000000 1.0
C      1  0.5365560000000  0.4694690000000  0.5776730000000 1.0
C      1  0.5402150000000  0.4447720000000  0.4950630000000 1.0
C      1  0.5013310000000  0.5685700000000  0.4977870000000 1.0
C      1  0.4302840000000  0.5231620000000  0.5077070000000 1.0
C      1  0.4594670000000  0.4443480000000  0.5011740000000 1.0
C      1  0.5748140000000  0.5251190000000  0.5127270000000 1.0
C      1  0.5020870000000  0.5013020000000  0.5638580000000 1.0
C      1  0.5019630000000  0.4978230000000  0.4408990000000 1.0
C      1  0.4882520000000  0.4926220000000  0.6002380000000 1.0
C      1  0.4924200000000  0.4889380000000  0.4021780000000 1.0
END
