TITL C-2782237-5345-570 -0.00266058189003193 125000 -346.405650547026 0 0 60 (C1) n - 1
REM
REM in /home/nfs/bkarasulu/CARBON/AIRSS/Generating-Clusters/REBO/Higher-Symm/SD-CG/HFTN-CG
REM
REM
REM
REM
REM
REM ./C.cell (12c818d87b63d06a65506943cc24bca4)
REM
REM compiler GCC version 9.2.1 20190827 (Red Hat 9.2.1-1)
REM options -cpp -mtune=generic -march=x86-64 -g -O0 -fpre-include=/usr/include/finclude/math-vector-fortran.h
REM seed 272597866 -1042846453 -811859257 -295430588 1595111313 -1221335951 197377318 -1372723356 -634723330 -1851925215 -1627100125 -554219911 392540891 -1952064260 -2064853351 -1783464163 -281986717 -2020432054 1848382505 406120340 -676033740 1014451847 1234933429 1977603553 -315758539 -813445249 -389134150 -1338296115 1416156914 -2120223104 1323160843 -1627089668 1288100290
REM
CELL 1.54180   50.00000   50.00000   50.00000   90.00000   90.00000   90.00000
LATT -1
SFAC C  
C      1  0.5029000000000  0.4584400000000  0.4541300000000 1.0
C      1  0.4587750000000  0.4587180000000  0.5206420000000 1.0
C      1  0.5383930000000  0.4585410000000  0.5254320000000 1.0
C      1  0.4843430000000  0.4910320000000  0.4225720000000 1.0
C      1  0.4396850000000  0.4901680000000  0.5517020000000 1.0
C      1  0.5749880000000  0.4909270000000  0.5249980000000 1.0
C      1  0.4484540000000  0.5384980000000  0.4761350000000 1.0
C      1  0.5052500000000  0.5383650000000  0.5564740000000 1.0
C      1  0.5464480000000  0.5384840000000  0.4672070000000 1.0
C      1  0.4670520000000  0.5236510000000  0.5231740000000 1.0
C      1  0.5364060000000  0.5236200000000  0.5166690000000 1.0
C      1  0.4963590000000  0.5237150000000  0.4602580000000 1.0
C      1  0.4612470000000  0.4861190000000  0.4457410000000 1.0
C      1  0.4719420000000  0.4876120000000  0.5609930000000 1.0
C      1  0.5663810000000  0.4859950000000  0.4934140000000 1.0
C      1  0.4855630000000  0.4378900000000  0.5180470000000 1.0
C      1  0.5227610000000  0.4375520000000  0.5037050000000 1.0
C      1  0.4918040000000  0.4376420000000  0.4786750000000 1.0
C      1  0.5596740000000  0.4849060000000  0.5466290000000 1.0
C      1  0.5106890000000  0.4848860000000  0.4251920000000 1.0
C      1  0.4290510000000  0.4845310000000  0.5275030000000 1.0
C      1  0.4555770000000  0.5133910000000  0.4968010000000 1.0
C      1  0.5194810000000  0.5132920000000  0.5398510000000 1.0
C      1  0.5249200000000  0.5134090000000  0.4632920000000 1.0
C      1  0.4326600000000  0.4755550000000  0.4539320000000 1.0
C      1  0.4938350000000  0.4757320000000  0.5808730000000 1.0
C      1  0.5733050000000  0.4754550000000  0.4644770000000 1.0
C      1  0.4893160000000  0.5021520000000  0.5350660000000 1.0
C      1  0.5361060000000  0.5020530000000  0.4917580000000 1.0
C      1  0.4748320000000  0.5021370000000  0.4728710000000 1.0
C      1  0.4735180000000  0.5189950000000  0.4367900000000 1.0
C      1  0.4584930000000  0.5178380000000  0.5547270000000 1.0
C      1  0.5681220000000  0.5188810000000  0.5084770000000 1.0
C      1  0.5250480000000  0.4384920000000  0.4706060000000 1.0
C      1  0.4620350000000  0.4387630000000  0.4932290000000 1.0
C      1  0.5130870000000  0.4386150000000  0.5364960000000 1.0
C      1  0.5303440000000  0.4696980000000  0.4946000000000 1.0
C      1  0.4802140000000  0.4697940000000  0.4763840000000 1.0
C      1  0.4892250000000  0.4697400000000  0.5301050000000 1.0
C      1  0.4254600000000  0.5036500000000  0.4480860000000 1.0
C      1  0.4931850000000  0.5035770000000  0.5907760000000 1.0
C      1  0.5820700000000  0.5035050000000  0.4611510000000 1.0
C      1  0.5114380000000  0.4667080000000  0.5556720000000 1.0
C      1  0.5422870000000  0.4668400000000  0.4628540000000 1.0
C      1  0.4467080000000  0.4668800000000  0.4816200000000 1.0
C      1  0.5339280000000  0.5537480000000  0.5154430000000 1.0
C      1  0.4965140000000  0.5538340000000  0.4630180000000 1.0
C      1  0.4694390000000  0.5536810000000  0.5217250000000 1.0
C      1  0.4569720000000  0.5629510000000  0.4985170000000 1.0
C      1  0.5201060000000  0.5629410000000  0.5378850000000 1.0
C      1  0.5228770000000  0.5630290000000  0.4635690000000 1.0
C      1  0.5714610000000  0.5235700000000  0.4770430000000 1.0
C      1  0.4445690000000  0.5236720000000  0.4494990000000 1.0
C      1  0.4845680000000  0.5236210000000  0.5736810000000 1.0
C      1  0.5282610000000  0.4880550000000  0.4456560000000 1.0
C      1  0.4386080000000  0.4879480000000  0.5023420000000 1.0
C      1  0.5331800000000  0.4880570000000  0.5517740000000 1.0
C      1  0.5394820000000  0.5628580000000  0.4899650000000 1.0
C      1  0.4716750000000  0.5628970000000  0.4710070000000 1.0
C      1  0.4889320000000  0.5626950000000  0.5390850000000 1.0
END
