TITL C-2782232-2968-1123 0.0024225593437166 125000 -804.164612070911 0 0 139 (C1) n - 1
REM
REM in /home/nfs/bkarasulu/CARBON/AIRSS/Generating-Clusters/REBO/Higher-Symm/SD-CG/HFTN-CG
REM
REM
REM
REM
REM
REM ./C.cell (12c818d87b63d06a65506943cc24bca4)
REM
REM compiler GCC version 9.2.1 20190827 (Red Hat 9.2.1-1)
REM options -cpp -mtune=generic -march=x86-64 -g -O0 -fpre-include=/usr/include/finclude/math-vector-fortran.h
REM seed 1154546362 -1114282013 1211278720 -1256293072 1698266037 -283044945 -607210393 -774574582 1080273138 -2113955438 2143254714 993746882 -621091381 1780314876 1134704989 -1070209617 -1214554765 -1322311527 1983778830 -211355704 1275013778 -1674183417 699579773 1934706110 -981115591 -60603046 899099569 135597665 214235739 1131552620 1490955159 1317513660 -502846669
REM
CELL 1.54180   50.00000   50.00000   50.00000   90.00000   90.00000   90.00000
LATT -1
SFAC C  
C      1  0.4597910000000  0.4791120000000  0.5679990000000 1.0
C      1  0.5472230000000  0.4744010000000  0.4370190000000 1.0
C      1  0.4466590000000  0.5327560000000  0.4255700000000 1.0
C      1  0.5478560000000  0.5174090000000  0.5801850000000 1.0
C      1  0.5693770000000  0.4758280000000  0.4557520000000 1.0
C      1  0.4399730000000  0.4786660000000  0.5472030000000 1.0
C      1  0.4238680000000  0.5331950000000  0.4449750000000 1.0
C      1  0.5658480000000  0.5198140000000  0.5537640000000 1.0
C      1  0.4943560000000  0.4148530000000  0.5569660000000 1.0
C      1  0.5118630000000  0.4126860000000  0.4440030000000 1.0
C      1  0.4936460000000  0.5904920000000  0.4416150000000 1.0
C      1  0.5159710000000  0.5895370000000  0.5553350000000 1.0
C      1  0.5598800000000  0.4128100000000  0.4885700000000 1.0
C      1  0.4449230000000  0.4103460000000  0.5130250000000 1.0
C      1  0.4476890000000  0.5914320000000  0.4881100000000 1.0
C      1  0.5617090000000  0.5871930000000  0.5084680000000 1.0
C      1  0.5627100000000  0.4435660000000  0.5776570000000 1.0
C      1  0.4408470000000  0.4454630000000  0.4236740000000 1.0
C      1  0.5564150000000  0.5531440000000  0.4275410000000 1.0
C      1  0.4390130000000  0.5484170000000  0.5740300000000 1.0
C      1  0.5796930000000  0.4474160000000  0.5563310000000 1.0
C      1  0.4154060000000  0.4482870000000  0.4332720000000 1.0
C      1  0.4208790000000  0.5486530000000  0.5533580000000 1.0
C      1  0.5786970000000  0.5523980000000  0.4434530000000 1.0
C      1  0.4802290000000  0.5051190000000  0.4636400000000 1.0
C      1  0.5197360000000  0.5066010000000  0.5487330000000 1.0
C      1  0.4893920000000  0.4962590000000  0.5465880000000 1.0
C      1  0.5102670000000  0.4953940000000  0.4711240000000 1.0
C      1  0.4494790000000  0.5069760000000  0.4780250000000 1.0
C      1  0.5360290000000  0.5069540000000  0.5185660000000 1.0
C      1  0.5382040000000  0.4966840000000  0.4882100000000 1.0
C      1  0.4502920000000  0.4953900000000  0.5068070000000 1.0
C      1  0.5663430000000  0.4146820000000  0.4569010000000 1.0
C      1  0.4399140000000  0.4190750000000  0.5444410000000 1.0
C      1  0.5689490000000  0.5843460000000  0.5405420000000 1.0
C      1  0.4397530000000  0.5931590000000  0.4566610000000 1.0
C      1  0.4625900000000  0.4161930000000  0.5655080000000 1.0
C      1  0.5435240000000  0.4186770000000  0.4360390000000 1.0
C      1  0.5469030000000  0.5801540000000  0.5621280000000 1.0
C      1  0.4615240000000  0.5881570000000  0.4348720000000 1.0
C      1  0.4293230000000  0.5403430000000  0.4946890000000 1.0
C      1  0.5695310000000  0.5358570000000  0.4998950000000 1.0
C      1  0.4298060000000  0.4593500000000  0.4976110000000 1.0
C      1  0.5684390000000  0.4645290000000  0.4989570000000 1.0
C      1  0.4979050000000  0.5371510000000  0.4363270000000 1.0
C      1  0.4977290000000  0.5426660000000  0.5652660000000 1.0
C      1  0.4993620000000  0.4619730000000  0.4314220000000 1.0
C      1  0.5032890000000  0.4655120000000  0.5706230000000 1.0
C      1  0.5301880000000  0.5060700000000  0.5993830000000 1.0
C      1  0.4728940000000  0.5161960000000  0.4260700000000 1.0
C      1  0.5186680000000  0.4867340000000  0.4331160000000 1.0
C      1  0.4837920000000  0.4889560000000  0.5857870000000 1.0
C      1  0.5836450000000  0.5174300000000  0.5248520000000 1.0
C      1  0.4132120000000  0.5217390000000  0.4716680000000 1.0
C      1  0.4171060000000  0.4797740000000  0.5220420000000 1.0
C      1  0.5896430000000  0.4820870000000  0.4782210000000 1.0
C      1  0.5727560000000  0.5520920000000  0.5505520000000 1.0
C      1  0.4295160000000  0.5651200000000  0.4412820000000 1.0
C      1  0.5729030000000  0.4447560000000  0.4435170000000 1.0
C      1  0.4246620000000  0.4491420000000  0.5483090000000 1.0
C      1  0.5497510000000  0.5488500000000  0.5753820000000 1.0
C      1  0.4520410000000  0.5623210000000  0.4157710000000 1.0
C      1  0.4508260000000  0.4477430000000  0.5699990000000 1.0
C      1  0.5492480000000  0.4473980000000  0.4193830000000 1.0
C      1  0.4300230000000  0.5660350000000  0.4755390000000 1.0
C      1  0.5768280000000  0.5593470000000  0.5185280000000 1.0
C      1  0.4253770000000  0.4364780000000  0.5183120000000 1.0
C      1  0.5728420000000  0.4416040000000  0.4775850000000 1.0
C      1  0.4840940000000  0.5633200000000  0.4259880000000 1.0
C      1  0.5196470000000  0.5613260000000  0.5715400000000 1.0
C      1  0.5174460000000  0.4383980000000  0.4245390000000 1.0
C      1  0.4841980000000  0.4415400000000  0.5734550000000 1.0
C      1  0.5327340000000  0.3963450000000  0.4940160000000 1.0
C      1  0.4729100000000  0.3951710000000  0.5082410000000 1.0
C      1  0.5344930000000  0.6032510000000  0.5043290000000 1.0
C      1  0.4760850000000  0.6052630000000  0.4927050000000 1.0
C      1  0.4974600000000  0.3997000000000  0.5293270000000 1.0
C      1  0.5086600000000  0.3976380000000  0.4718240000000 1.0
C      1  0.5121370000000  0.6059270000000  0.5280640000000 1.0
C      1  0.4987060000000  0.6061290000000  0.4690580000000 1.0
C      1  0.5175790000000  0.4261380000000  0.5348690000000 1.0
C      1  0.4862370000000  0.4216160000000  0.4645080000000 1.0
C      1  0.5182130000000  0.5803620000000  0.4615550000000 1.0
C      1  0.4895300000000  0.5829740000000  0.5357290000000 1.0
C      1  0.5405470000000  0.4217700000000  0.5137720000000 1.0
C      1  0.4636380000000  0.4186140000000  0.4866630000000 1.0
C      1  0.4667740000000  0.5803490000000  0.5134300000000 1.0
C      1  0.5404300000000  0.5771820000000  0.4838650000000 1.0
C      1  0.4887180000000  0.5188040000000  0.5819510000000 1.0
C      1  0.5142020000000  0.5148910000000  0.4169430000000 1.0
C      1  0.4808090000000  0.4714390000000  0.4065820000000 1.0
C      1  0.5205890000000  0.4787610000000  0.5972480000000 1.0
C      1  0.5914540000000  0.5125440000000  0.4855690000000 1.0
C      1  0.4127990000000  0.5114350000000  0.5102640000000 1.0
C      1  0.4066100000000  0.4714340000000  0.4799160000000 1.0
C      1  0.5856980000000  0.4881180000000  0.5165730000000 1.0
C      1  0.4561620000000  0.5493810000000  0.5138010000000 1.0
C      1  0.5439870000000  0.5447880000000  0.4846240000000 1.0
C      1  0.4585780000000  0.4502350000000  0.4818050000000 1.0
C      1  0.5413010000000  0.4538330000000  0.5165090000000 1.0
C      1  0.5185300000000  0.5478930000000  0.4614460000000 1.0
C      1  0.4814810000000  0.5514120000000  0.5366930000000 1.0
C      1  0.4836370000000  0.4536280000000  0.4584160000000 1.0
C      1  0.5162340000000  0.4582080000000  0.5399110000000 1.0
C      1  0.4576310000000  0.4912760000000  0.4425360000000 1.0
C      1  0.5377810000000  0.4835130000000  0.5619590000000 1.0
C      1  0.4670740000000  0.5134010000000  0.5489610000000 1.0
C      1  0.5332560000000  0.5113600000000  0.4515680000000 1.0
C      1  0.4282120000000  0.4950980000000  0.4560110000000 1.0
C      1  0.5520570000000  0.4860270000000  0.5375220000000 1.0
C      1  0.5587220000000  0.5108550000000  0.4697110000000 1.0
C      1  0.4481100000000  0.5131370000000  0.5286630000000 1.0
C      1  0.4806880000000  0.4827080000000  0.6133420000000 1.0
C      1  0.5039250000000  0.5112910000000  0.3864640000000 1.0
C      1  0.4813730000000  0.4992240000000  0.4006430000000 1.0
C      1  0.5213790000000  0.5214600000000  0.6201810000000 1.0
C      1  0.6150250000000  0.4700640000000  0.4747770000000 1.0
C      1  0.3919980000000  0.4695630000000  0.5312040000000 1.0
C      1  0.3979180000000  0.4973520000000  0.4868080000000 1.0
C      1  0.6098350000000  0.5282560000000  0.5298190000000 1.0
C      1  0.4676560000000  0.4714210000000  0.5058290000000 1.0
C      1  0.5200290000000  0.4736570000000  0.5032470000000 1.0
C      1  0.4674650000000  0.5286620000000  0.4930900000000 1.0
C      1  0.5200200000000  0.5303820000000  0.4991770000000 1.0
C      1  0.4925550000000  0.4709430000000  0.4837420000000 1.0
C      1  0.4928410000000  0.4746610000000  0.5235430000000 1.0
C      1  0.4957370000000  0.5320120000000  0.4770860000000 1.0
C      1  0.5043600000000  0.5286700000000  0.5288580000000 1.0
C      1  0.5819470000000  0.5333370000000  0.4620620000000 1.0
C      1  0.4236780000000  0.5307990000000  0.5323180000000 1.0
C      1  0.5763410000000  0.4680490000000  0.5378890000000 1.0
C      1  0.4101250000000  0.4687120000000  0.4511420000000 1.0
C      1  0.4606200000000  0.5308400000000  0.5734540000000 1.0
C      1  0.5369300000000  0.5351160000000  0.4285200000000 1.0
C      1  0.5414160000000  0.4612130000000  0.5817030000000 1.0
C      1  0.4598770000000  0.4656310000000  0.4263450000000 1.0
C      1  0.5057920000000  0.6181210000000  0.4985170000000 1.0
C      1  0.5030570000000  0.3842400000000  0.5010990000000 1.0
C      1  0.4862620000000  0.5123630000000  0.5103630000000 1.0
END
