TITL C-2782234-8014-200 0.000246841901477625 125000 -377.622175796318 0 0 68 (C1) n - 1
REM
REM in /home/nfs/bkarasulu/CARBON/AIRSS/Generating-Clusters/REBO/Higher-Symm/SD-CG/HFTN-CG
REM
REM
REM
REM
REM
REM ./C.cell (12c818d87b63d06a65506943cc24bca4)
REM
REM compiler GCC version 9.2.1 20190827 (Red Hat 9.2.1-1)
REM options -cpp -mtune=generic -march=x86-64 -g -O0 -fpre-include=/usr/include/finclude/math-vector-fortran.h
REM seed 83051515 -1255123566 1771504871 523659237 -1183241677 1591200634 852675090 1432427308 1938326301 162143514 -1227540785 -152380297 1474156063 -1961388922 951443138 2094489700 1991745984 -25857258 1318722752 406818310 -359152062 2068004592 1098887572 -1255548337 -1910042342 939100288 1584468748 1103851939 -1646545140 1980921850 1242450107 -1604080384 1651279966
REM
CELL 1.54180   50.00000   50.00000   50.00000   90.00000   90.00000   90.00000
LATT -1
SFAC C  
C      1  0.5062830000000  0.4430630000000  0.4736930000000 1.0
C      1  0.5095770000000  0.5091210000000  0.5582340000000 1.0
C      1  0.5027120000000  0.5553350000000  0.4607070000000 1.0
C      1  0.5625600000000  0.4494620000000  0.4720390000000 1.0
C      1  0.5670230000000  0.5092710000000  0.5524590000000 1.0
C      1  0.5600280000000  0.5319460000000  0.4855710000000 1.0
C      1  0.4300980000000  0.5416890000000  0.4877550000000 1.0
C      1  0.4266040000000  0.4738710000000  0.4690540000000 1.0
C      1  0.4247170000000  0.4917240000000  0.5378440000000 1.0
C      1  0.5246010000000  0.5057780000000  0.4613230000000 1.0
C      1  0.5321080000000  0.4722170000000  0.5155350000000 1.0
C      1  0.5450500000000  0.5508980000000  0.5285870000000 1.0
C      1  0.5362240000000  0.5610360000000  0.4990710000000 1.0
C      1  0.5457190000000  0.4420070000000  0.4455390000000 1.0
C      1  0.5518410000000  0.4853630000000  0.5692770000000 1.0
C      1  0.4904820000000  0.5532600000000  0.4189750000000 1.0
C      1  0.4801540000000  0.4071950000000  0.5043890000000 1.0
C      1  0.4964920000000  0.5419480000000  0.5767780000000 1.0
C      1  0.5321660000000  0.5524560000000  0.4484070000000 1.0
C      1  0.5219020000000  0.4191810000000  0.4843340000000 1.0
C      1  0.5274770000000  0.5299980000000  0.5761520000000 1.0
C      1  0.4846450000000  0.4531040000000  0.4499530000000 1.0
C      1  0.4895030000000  0.4827710000000  0.5605700000000 1.0
C      1  0.4763800000000  0.5538770000000  0.4811450000000 1.0
C      1  0.4668060000000  0.5282890000000  0.4520260000000 1.0
C      1  0.4699050000000  0.4589840000000  0.4957580000000 1.0
C      1  0.4714280000000  0.5125220000000  0.5409940000000 1.0
C      1  0.5428820000000  0.4547940000000  0.5350640000000 1.0
C      1  0.5670710000000  0.5664960000000  0.5377950000000 1.0
C      1  0.5425010000000  0.5060960000000  0.4395590000000 1.0
C      1  0.4955810000000  0.5233220000000  0.4639430000000 1.0
C      1  0.5036210000000  0.4630080000000  0.4989970000000 1.0
C      1  0.5012570000000  0.5175840000000  0.5270370000000 1.0
C      1  0.5398170000000  0.5142230000000  0.4887240000000 1.0
C      1  0.5508550000000  0.4698490000000  0.4876210000000 1.0
C      1  0.5516660000000  0.5192700000000  0.5301720000000 1.0
C      1  0.4422520000000  0.4735560000000  0.4964840000000 1.0
C      1  0.4437080000000  0.5158330000000  0.5296550000000 1.0
C      1  0.4420940000000  0.5205000000000  0.4667010000000 1.0
C      1  0.5534720000000  0.5158420000000  0.5807130000000 1.0
C      1  0.5509490000000  0.5565160000000  0.4712010000000 1.0
C      1  0.5472890000000  0.4205730000000  0.4706850000000 1.0
C      1  0.5182570000000  0.4556560000000  0.4442040000000 1.0
C      1  0.5234740000000  0.4781970000000  0.5608630000000 1.0
C      1  0.5071160000000  0.5652930000000  0.4921320000000 1.0
C      1  0.5109390000000  0.4318390000000  0.5302600000000 1.0
C      1  0.4946060000000  0.5560150000000  0.5394900000000 1.0
C      1  0.5049480000000  0.5091320000000  0.4267940000000 1.0
C      1  0.5078390000000  0.5180590000000  0.4952540000000 1.0
C      1  0.5231830000000  0.4796360000000  0.4777070000000 1.0
C      1  0.5295440000000  0.5017010000000  0.5244610000000 1.0
C      1  0.4807070000000  0.4797420000000  0.4709200000000 1.0
C      1  0.4820610000000  0.4826950000000  0.5272220000000 1.0
C      1  0.4690260000000  0.5270010000000  0.4988570000000 1.0
C      1  0.4854100000000  0.5527500000000  0.5136320000000 1.0
C      1  0.4981480000000  0.4833090000000  0.4416340000000 1.0
C      1  0.5035180000000  0.4594220000000  0.5403300000000 1.0
C      1  0.4315640000000  0.5401400000000  0.5126950000000 1.0
C      1  0.4261230000000  0.4954240000000  0.4557700000000 1.0
C      1  0.4254330000000  0.4711320000000  0.5229610000000 1.0
C      1  0.5211460000000  0.5504640000000  0.5505200000000 1.0
C      1  0.5132010000000  0.5370940000000  0.4268030000000 1.0
C      1  0.5078960000000  0.4128270000000  0.5090780000000 1.0
C      1  0.4756280000000  0.5285440000000  0.5678290000000 1.0
C      1  0.4664850000000  0.5459080000000  0.4308360000000 1.0
C      1  0.4641100000000  0.4284010000000  0.4981590000000 1.0
C      1  0.4827990000000  0.4967450000000  0.4983640000000 1.0
C      1  0.4439290000000  0.5054150000000  0.4972250000000 1.0
END
