TITL C-2782238-9940-1452 0.00101632091361538 125000 -717.439037206338 0 0 122 (C1) n - 1
REM
REM in /home/nfs/bkarasulu/CARBON/AIRSS/Generating-Clusters/REBO/Higher-Symm/SD-CG/HFTN-CG
REM
REM
REM
REM
REM
REM ./C.cell (12c818d87b63d06a65506943cc24bca4)
REM
REM compiler GCC version 9.2.1 20190827 (Red Hat 9.2.1-1)
REM options -cpp -mtune=generic -march=x86-64 -g -O0 -fpre-include=/usr/include/finclude/math-vector-fortran.h
REM seed -1790771209 1545959493 -656774734 -1608325131 -520736374 318951518 2024472850 -680514003 876179593 39464098 2073897380 116234827 -2127738594 477155026 -103122642 1097690335 1070610937 -2060810657 9204360 -1846868815 -261409790 -337161992 921469256 64580876 -620744838 1848027704 -565314383 396118963 -2070083908 1922456024 -2035697875 1423278724 786093247
REM
CELL 1.54180   50.00000   50.00000   50.00000   90.00000   90.00000   90.00000
LATT -1
SFAC C  
C      1  0.4866400000000  0.5158400000000  0.3989610000000 1.0
C      1  0.5915630000000  0.5025520000000  0.5294700000000 1.0
C      1  0.4797360000000  0.5092730000000  0.4833100000000 1.0
C      1  0.4409840000000  0.4554710000000  0.5556240000000 1.0
C      1  0.4826890000000  0.6037160000000  0.6120110000000 1.0
C      1  0.5209240000000  0.4809180000000  0.4871920000000 1.0
C      1  0.5454610000000  0.5539740000000  0.4175040000000 1.0
C      1  0.5616440000000  0.5656040000000  0.4450600000000 1.0
C      1  0.4891460000000  0.5466500000000  0.4714000000000 1.0
C      1  0.5279420000000  0.5166270000000  0.5354870000000 1.0
C      1  0.5199540000000  0.4707990000000  0.4485170000000 1.0
C      1  0.5455180000000  0.4828240000000  0.4559800000000 1.0
C      1  0.4832310000000  0.4362690000000  0.4520120000000 1.0
C      1  0.4983430000000  0.5211480000000  0.5501670000000 1.0
C      1  0.4349950000000  0.4527600000000  0.4497420000000 1.0
C      1  0.4253440000000  0.5644690000000  0.5045460000000 1.0
C      1  0.4170190000000  0.5459340000000  0.4418390000000 1.0
C      1  0.4338230000000  0.4387000000000  0.4749380000000 1.0
C      1  0.5558260000000  0.5320720000000  0.4916010000000 1.0
C      1  0.4782460000000  0.5919260000000  0.4670320000000 1.0
C      1  0.4467820000000  0.4040550000000  0.5431730000000 1.0
C      1  0.4870850000000  0.5583170000000  0.5827760000000 1.0
C      1  0.4410110000000  0.5675490000000  0.4815300000000 1.0
C      1  0.5145960000000  0.5835710000000  0.4379170000000 1.0
C      1  0.5280210000000  0.4457050000000  0.5740910000000 1.0
C      1  0.5830440000000  0.4734120000000  0.5281090000000 1.0
C      1  0.4568150000000  0.4989690000000  0.5963710000000 1.0
C      1  0.4447910000000  0.5140930000000  0.4936880000000 1.0
C      1  0.4650650000000  0.5603930000000  0.4323350000000 1.0
C      1  0.5886400000000  0.5023240000000  0.4421550000000 1.0
C      1  0.4413560000000  0.4891590000000  0.4090790000000 1.0
C      1  0.5425660000000  0.5453720000000  0.5390340000000 1.0
C      1  0.5557880000000  0.5857820000000  0.4881380000000 1.0
C      1  0.4687790000000  0.5406140000000  0.4126280000000 1.0
C      1  0.5452770000000  0.4387280000000  0.5469320000000 1.0
C      1  0.5974710000000  0.5105070000000  0.5026820000000 1.0
C      1  0.5723830000000  0.4641260000000  0.5555040000000 1.0
C      1  0.4864590000000  0.4630070000000  0.4957400000000 1.0
C      1  0.4413850000000  0.5232760000000  0.5240890000000 1.0
C      1  0.5759320000000  0.4410570000000  0.4852790000000 1.0
C      1  0.4675350000000  0.5760460000000  0.4875880000000 1.0
C      1  0.4593870000000  0.5334680000000  0.4718520000000 1.0
C      1  0.4481680000000  0.4146430000000  0.5137520000000 1.0
C      1  0.5690900000000  0.5466540000000  0.5263990000000 1.0
C      1  0.4579950000000  0.4819060000000  0.5690030000000 1.0
C      1  0.4617450000000  0.4977520000000  0.5257460000000 1.0
C      1  0.5745310000000  0.5097540000000  0.4859730000000 1.0
C      1  0.5298960000000  0.5619370000000  0.5580160000000 1.0
C      1  0.5331490000000  0.4550620000000  0.4823730000000 1.0
C      1  0.4636410000000  0.5478320000000  0.5691950000000 1.0
C      1  0.3828260000000  0.4375760000000  0.5250410000000 1.0
C      1  0.5127610000000  0.5480050000000  0.5760350000000 1.0
C      1  0.4081960000000  0.4814240000000  0.5138910000000 1.0
C      1  0.4523860000000  0.5917260000000  0.5512700000000 1.0
C      1  0.4691370000000  0.4509320000000  0.5688500000000 1.0
C      1  0.4527730000000  0.4208770000000  0.4870940000000 1.0
C      1  0.4534960000000  0.5219930000000  0.5729690000000 1.0
C      1  0.5888100000000  0.4717470000000  0.4403210000000 1.0
C      1  0.4372610000000  0.5526310000000  0.5272200000000 1.0
C      1  0.5078820000000  0.4512450000000  0.5130750000000 1.0
C      1  0.5460280000000  0.4700710000000  0.4181110000000 1.0
C      1  0.4179920000000  0.4933830000000  0.5617110000000 1.0
C      1  0.4983320000000  0.5394880000000  0.4395520000000 1.0
C      1  0.5210810000000  0.4763140000000  0.4068860000000 1.0
C      1  0.5919740000000  0.4548210000000  0.5022730000000 1.0
C      1  0.5654390000000  0.4552680000000  0.4351860000000 1.0
C      1  0.5219040000000  0.5175740000000  0.5749610000000 1.0
C      1  0.4286560000000  0.4889150000000  0.4877600000000 1.0
C      1  0.5004220000000  0.4948190000000  0.4130550000000 1.0
C      1  0.4984520000000  0.5383550000000  0.5207100000000 1.0
C      1  0.5538750000000  0.4402160000000  0.4590920000000 1.0
C      1  0.5111770000000  0.4940660000000  0.5928070000000 1.0
C      1  0.4841510000000  0.5803970000000  0.4413510000000 1.0
C      1  0.5049440000000  0.4115170000000  0.4848260000000 1.0
C      1  0.4192050000000  0.4566370000000  0.4941770000000 1.0
C      1  0.4363040000000  0.4663180000000  0.4229230000000 1.0
C      1  0.5075570000000  0.4174010000000  0.5163970000000 1.0
C      1  0.5741880000000  0.5213880000000  0.5438080000000 1.0
C      1  0.4365170000000  0.5126120000000  0.5528770000000 1.0
C      1  0.4032510000000  0.4829670000000  0.5400420000000 1.0
C      1  0.4414940000000  0.5526230000000  0.4531030000000 1.0
C      1  0.4874250000000  0.4912440000000  0.4379460000000 1.0
C      1  0.5496390000000  0.4315450000000  0.4974330000000 1.0
C      1  0.4869230000000  0.4975380000000  0.6055480000000 1.0
C      1  0.4781420000000  0.4170870000000  0.4738300000000 1.0
C      1  0.5266580000000  0.4201320000000  0.4654270000000 1.0
C      1  0.4725000000000  0.4869450000000  0.5028290000000 1.0
C      1  0.4921590000000  0.4630560000000  0.4659880000000 1.0
C      1  0.4783310000000  0.4967930000000  0.5503550000000 1.0
C      1  0.5126660000000  0.5660530000000  0.4653730000000 1.0
C      1  0.5716770000000  0.5592690000000  0.4963410000000 1.0
C      1  0.5444670000000  0.5203050000000  0.4225280000000 1.0
C      1  0.5349460000000  0.4595460000000  0.5218960000000 1.0
C      1  0.5213560000000  0.4679500000000  0.5874770000000 1.0
C      1  0.4640380000000  0.4920110000000  0.4508620000000 1.0
C      1  0.5591750000000  0.4968980000000  0.4310120000000 1.0
C      1  0.5925680000000  0.5271250000000  0.4548530000000 1.0
C      1  0.4248280000000  0.4888090000000  0.5898870000000 1.0
C      1  0.4931950000000  0.4507230000000  0.5555050000000 1.0
C      1  0.5264060000000  0.5291500000000  0.5063540000000 1.0
C      1  0.5125140000000  0.4281340000000  0.5484240000000 1.0
C      1  0.4318840000000  0.4340720000000  0.5370130000000 1.0
C      1  0.5021880000000  0.4764750000000  0.5497060000000 1.0
C      1  0.5093060000000  0.5051110000000  0.4794420000000 1.0
C      1  0.5150840000000  0.5375090000000  0.4175530000000 1.0
C      1  0.5272110000000  0.4882270000000  0.5484640000000 1.0
C      1  0.5517030000000  0.4814790000000  0.5652230000000 1.0
C      1  0.5390330000000  0.5408240000000  0.4490070000000 1.0
C      1  0.5568170000000  0.4725510000000  0.5090590000000 1.0
C      1  0.5541930000000  0.5126290000000  0.5649510000000 1.0
C      1  0.4504760000000  0.5645790000000  0.5492650000000 1.0
C      1  0.5395090000000  0.4200000000000  0.5205650000000 1.0
C      1  0.4403230000000  0.4809500000000  0.4598930000000 1.0
C      1  0.5602700000000  0.4848430000000  0.4821390000000 1.0
C      1  0.4848150000000  0.5817540000000  0.5978680000000 1.0
C      1  0.5290040000000  0.5297280000000  0.4732980000000 1.0
C      1  0.4081930000000  0.4419710000000  0.5198720000000 1.0
C      1  0.5144000000000  0.4391240000000  0.4437060000000 1.0
C      1  0.4545220000000  0.5127670000000  0.4023880000000 1.0
C      1  0.5403340000000  0.5833300000000  0.4605280000000 1.0
C      1  0.5811110000000  0.5497580000000  0.4650750000000 1.0
C      1  0.4841290000000  0.5561050000000  0.5042000000000 1.0
END
