TITL C-2782228-2999-1365 0.000700598484068897 125000 -961.821896608609 0 0 163 (C1) n - 1
REM
REM in /home/nfs/bkarasulu/CARBON/AIRSS/Generating-Clusters/REBO/Higher-Symm/SD-CG/HFTN-CG
REM
REM
REM
REM
REM
REM ./C.cell (12c818d87b63d06a65506943cc24bca4)
REM
REM compiler GCC version 9.2.1 20190827 (Red Hat 9.2.1-1)
REM options -cpp -mtune=generic -march=x86-64 -g -O0 -fpre-include=/usr/include/finclude/math-vector-fortran.h
REM seed 1328538688 -201904208 1515831839 1660998989 -236518640 -1023656970 2095598377 792899515 1193462923 -999258648 1464811654 857345732 -1623804680 1536909702 -572774414 -1931477578 1116017887 1071979356 663547109 -1578952332 -794932681 894279723 2127952108 -1496557915 286537021 1912025733 682334325 558136525 103429281 -479003793 212450858 1344337533 -159543094
REM
CELL 1.54180   50.00000   50.00000   50.00000   90.00000   90.00000   90.00000
LATT -1
SFAC C  
C      1  0.4808860000000  0.5728530000000  0.5604760000000 1.0
C      1  0.4519070000000  0.5778910000000  0.4539470000000 1.0
C      1  0.5637980000000  0.5744040000000  0.4856400000000 1.0
C      1  0.4815950000000  0.4225270000000  0.5647110000000 1.0
C      1  0.4532120000000  0.4274980000000  0.4523150000000 1.0
C      1  0.5666600000000  0.4220060000000  0.4848060000000 1.0
C      1  0.4803410000000  0.5706880000000  0.4091480000000 1.0
C      1  0.5855700000000  0.5725100000000  0.5330260000000 1.0
C      1  0.4274630000000  0.5692070000000  0.5612570000000 1.0
C      1  0.4828930000000  0.4352010000000  0.4102860000000 1.0
C      1  0.5866880000000  0.4345810000000  0.5322950000000 1.0
C      1  0.4293870000000  0.4339850000000  0.5602830000000 1.0
C      1  0.4584970000000  0.5149310000000  0.4872610000000 1.0
C      1  0.5251180000000  0.5122190000000  0.4708560000000 1.0
C      1  0.5136850000000  0.5092580000000  0.5379670000000 1.0
C      1  0.4631060000000  0.4821560000000  0.4937160000000 1.0
C      1  0.5276940000000  0.4798110000000  0.4724360000000 1.0
C      1  0.5131010000000  0.4780680000000  0.5391980000000 1.0
C      1  0.4931580000000  0.5163800000000  0.4600330000000 1.0
C      1  0.5372940000000  0.5171540000000  0.5178450000000 1.0
C      1  0.4630020000000  0.5125870000000  0.5194800000000 1.0
C      1  0.4947680000000  0.4864220000000  0.4702610000000 1.0
C      1  0.5323690000000  0.4841590000000  0.5118420000000 1.0
C      1  0.4768510000000  0.4838180000000  0.5239570000000 1.0
C      1  0.4323070000000  0.5369120000000  0.5270220000000 1.0
C      1  0.5091660000000  0.5451370000000  0.4374080000000 1.0
C      1  0.5581310000000  0.5383420000000  0.5445610000000 1.0
C      1  0.4403460000000  0.4507050000000  0.5246170000000 1.0
C      1  0.5125190000000  0.4526940000000  0.4389730000000 1.0
C      1  0.5496440000000  0.4504100000000  0.5409920000000 1.0
C      1  0.4206900000000  0.5182570000000  0.4125330000000 1.0
C      1  0.6104560000000  0.5137680000000  0.4753200000000 1.0
C      1  0.4637790000000  0.5154100000000  0.6072830000000 1.0
C      1  0.4239220000000  0.4894380000000  0.4160890000000 1.0
C      1  0.6117630000000  0.4847260000000  0.4746060000000 1.0
C      1  0.4663100000000  0.4864690000000  0.6088270000000 1.0
C      1  0.4652990000000  0.4518810000000  0.5712530000000 1.0
C      1  0.4592170000000  0.4561930000000  0.4347490000000 1.0
C      1  0.5790070000000  0.4519690000000  0.4956890000000 1.0
C      1  0.4599710000000  0.5469500000000  0.5679480000000 1.0
C      1  0.4539940000000  0.5507700000000  0.4331490000000 1.0
C      1  0.5810440000000  0.5476160000000  0.4979150000000 1.0
C      1  0.5159540000000  0.4053370000000  0.5125600000000 1.0
C      1  0.4781980000000  0.4055650000000  0.5073700000000 1.0
C      1  0.5048460000000  0.4056930000000  0.4800930000000 1.0
C      1  0.5158330000000  0.5848640000000  0.5087150000000 1.0
C      1  0.4776740000000  0.5878610000000  0.5119630000000 1.0
C      1  0.5021880000000  0.5827450000000  0.4811640000000 1.0
C      1  0.4942590000000  0.4786730000000  0.6120440000000 1.0
C      1  0.4089760000000  0.4806200000000  0.4396260000000 1.0
C      1  0.6011930000000  0.4748090000000  0.4494710000000 1.0
C      1  0.4896660000000  0.5279660000000  0.6108030000000 1.0
C      1  0.4033330000000  0.5287310000000  0.4332840000000 1.0
C      1  0.5985080000000  0.5235940000000  0.4503760000000 1.0
C      1  0.4480820000000  0.4701130000000  0.5929620000000 1.0
C      1  0.4487240000000  0.4755530000000  0.4091770000000 1.0
C      1  0.6062240000000  0.4699990000000  0.4989520000000 1.0
C      1  0.4445610000000  0.5278220000000  0.5891980000000 1.0
C      1  0.4442270000000  0.5341370000000  0.4055390000000 1.0
C      1  0.6061260000000  0.5276470000000  0.5008080000000 1.0
C      1  0.4909970000000  0.5507110000000  0.3944450000000 1.0
C      1  0.5969350000000  0.5513830000000  0.5449950000000 1.0
C      1  0.4115480000000  0.5477950000000  0.5638670000000 1.0
C      1  0.4894340000000  0.4557940000000  0.3945470000000 1.0
C      1  0.5955330000000  0.4548870000000  0.5474430000000 1.0
C      1  0.4109820000000  0.4535240000000  0.5595090000000 1.0
C      1  0.6083190000000  0.4837800000000  0.5233430000000 1.0
C      1  0.4252910000000  0.4828770000000  0.5821630000000 1.0
C      1  0.4698380000000  0.4905700000000  0.3964150000000 1.0
C      1  0.6070260000000  0.5134760000000  0.5257710000000 1.0
C      1  0.4228570000000  0.5124980000000  0.5788390000000 1.0
C      1  0.4655990000000  0.5201170000000  0.3933010000000 1.0
C      1  0.4495930000000  0.4792020000000  0.4658790000000 1.0
C      1  0.5564360000000  0.4734760000000  0.4706810000000 1.0
C      1  0.4986720000000  0.4726150000000  0.5643000000000 1.0
C      1  0.4431820000000  0.5242140000000  0.4631080000000 1.0
C      1  0.5534270000000  0.5220020000000  0.4679810000000 1.0
C      1  0.5012560000000  0.5219850000000  0.5629480000000 1.0
C      1  0.5300280000000  0.4314940000000  0.4966750000000 1.0
C      1  0.4879620000000  0.4300890000000  0.5263020000000 1.0
C      1  0.4836570000000  0.4308400000000  0.4773200000000 1.0
C      1  0.5293920000000  0.5574830000000  0.4960410000000 1.0
C      1  0.4884040000000  0.5600150000000  0.5237070000000 1.0
C      1  0.4781180000000  0.5640200000000  0.4802070000000 1.0
C      1  0.5387370000000  0.5532260000000  0.5659410000000 1.0
C      1  0.4233080000000  0.5524170000000  0.4995090000000 1.0
C      1  0.5394310000000  0.5446510000000  0.4364890000000 1.0
C      1  0.5349980000000  0.4546140000000  0.5671640000000 1.0
C      1  0.4256480000000  0.4546980000000  0.4981230000000 1.0
C      1  0.5431110000000  0.4509250000000  0.4373150000000 1.0
C      1  0.4998270000000  0.5190620000000  0.3906140000000 1.0
C      1  0.5927900000000  0.5213530000000  0.5557100000000 1.0
C      1  0.4051830000000  0.5193160000000  0.5505710000000 1.0
C      1  0.5032840000000  0.4849630000000  0.3928750000000 1.0
C      1  0.5947310000000  0.4871170000000  0.5548080000000 1.0
C      1  0.4049120000000  0.4854370000000  0.5544230000000 1.0
C      1  0.5672120000000  0.4775700000000  0.5302320000000 1.0
C      1  0.4409430000000  0.4771530000000  0.5451500000000 1.0
C      1  0.4992430000000  0.4829810000000  0.4307740000000 1.0
C      1  0.5673010000000  0.5105170000000  0.5271820000000 1.0
C      1  0.4437270000000  0.5102330000000  0.5450280000000 1.0
C      1  0.4926990000000  0.5165170000000  0.4280360000000 1.0
C      1  0.4551990000000  0.4153060000000  0.4841640000000 1.0
C      1  0.5370620000000  0.4128600000000  0.4701940000000 1.0
C      1  0.5080610000000  0.4128230000000  0.5452940000000 1.0
C      1  0.4543000000000  0.5860950000000  0.4872100000000 1.0
C      1  0.5334580000000  0.5806880000000  0.4710670000000 1.0
C      1  0.5063380000000  0.5838860000000  0.5404120000000 1.0
C      1  0.5083730000000  0.5529840000000  0.5636310000000 1.0
C      1  0.4371630000000  0.5540490000000  0.4723250000000 1.0
C      1  0.5574780000000  0.5533140000000  0.4596900000000 1.0
C      1  0.5067780000000  0.4423590000000  0.5716890000000 1.0
C      1  0.4391170000000  0.4495260000000  0.4724660000000 1.0
C      1  0.5605070000000  0.4430100000000  0.4607170000000 1.0
C      1  0.4510790000000  0.4214950000000  0.5497280000000 1.0
C      1  0.4818690000000  0.4233690000000  0.4346970000000 1.0
C      1  0.5676850000000  0.4211000000000  0.5183360000000 1.0
C      1  0.4498320000000  0.5804630000000  0.5486960000000 1.0
C      1  0.4795030000000  0.5814610000000  0.4343350000000 1.0
C      1  0.5646650000000  0.5838390000000  0.5179760000000 1.0
C      1  0.5135750000000  0.4556950000000  0.4866480000000 1.0
C      1  0.5064640000000  0.4548610000000  0.5192300000000 1.0
C      1  0.4817890000000  0.4560260000000  0.4963400000000 1.0
C      1  0.5130320000000  0.5329290000000  0.4903120000000 1.0
C      1  0.4992870000000  0.5293420000000  0.5193740000000 1.0
C      1  0.4809330000000  0.5358820000000  0.4927270000000 1.0
C      1  0.4643020000000  0.5428710000000  0.5348010000000 1.0
C      1  0.4802340000000  0.5470990000000  0.4544560000000 1.0
C      1  0.5522670000000  0.5462090000000  0.5132530000000 1.0
C      1  0.4711140000000  0.4539200000000  0.5377250000000 1.0
C      1  0.4853200000000  0.4564980000000  0.4567450000000 1.0
C      1  0.5472870000000  0.4537960000000  0.5078950000000 1.0
C      1  0.5119470000000  0.5262540000000  0.5930840000000 1.0
C      1  0.4109180000000  0.5263970000000  0.4606940000000 1.0
C      1  0.5711900000000  0.5208830000000  0.4411270000000 1.0
C      1  0.5139830000000  0.4784850000000  0.5912840000000 1.0
C      1  0.4175170000000  0.4825950000000  0.4670500000000 1.0
C      1  0.5733850000000  0.4762920000000  0.4431160000000 1.0
C      1  0.5688670000000  0.5159220000000  0.4934090000000 1.0
C      1  0.4720620000000  0.5158190000000  0.5630460000000 1.0
C      1  0.4599530000000  0.5174440000000  0.4378420000000 1.0
C      1  0.5694290000000  0.4849480000000  0.4968810000000 1.0
C      1  0.4691130000000  0.4849800000000  0.5627310000000 1.0
C      1  0.4674960000000  0.4886250000000  0.4416060000000 1.0
C      1  0.5389750000000  0.5886610000000  0.5307180000000 1.0
C      1  0.4479050000000  0.5888500000000  0.5209700000000 1.0
C      1  0.5068640000000  0.5765510000000  0.4496600000000 1.0
C      1  0.5394670000000  0.4188360000000  0.5332860000000 1.0
C      1  0.4503270000000  0.4195930000000  0.5178030000000 1.0
C      1  0.5105380000000  0.4204350000000  0.4498600000000 1.0
C      1  0.4083720000000  0.4786040000000  0.4969450000000 1.0
C      1  0.5543150000000  0.4714630000000  0.4188840000000 1.0
C      1  0.5444340000000  0.4786180000000  0.5827510000000 1.0
C      1  0.4010070000000  0.5341830000000  0.4863350000000 1.0
C      1  0.5505940000000  0.5251050000000  0.4175260000000 1.0
C      1  0.5391090000000  0.5355680000000  0.5917690000000 1.0
C      1  0.4024350000000  0.4923990000000  0.5211630000000 1.0
C      1  0.5356850000000  0.4826850000000  0.4009890000000 1.0
C      1  0.5675480000000  0.4930530000000  0.5743940000000 1.0
C      1  0.4026960000000  0.5237370000000  0.5175560000000 1.0
C      1  0.5315880000000  0.5120100000000  0.4007230000000 1.0
C      1  0.5647650000000  0.5244850000000  0.5748120000000 1.0
C      1  0.5013090000000  0.4903400000000  0.5020870000000 1.0
END
