TITL C-2782229-3092-156 -0.000785431051389397 125000 -207.293921415629 0 0 37 (C1) n - 1
REM
REM in /home/nfs/bkarasulu/CARBON/AIRSS/Generating-Clusters/REBO/Higher-Symm/SD-CG/HFTN-CG
REM
REM
REM
REM
REM
REM ./C.cell (12c818d87b63d06a65506943cc24bca4)
REM
REM compiler GCC version 9.2.1 20190827 (Red Hat 9.2.1-1)
REM options -cpp -mtune=generic -march=x86-64 -g -O0 -fpre-include=/usr/include/finclude/math-vector-fortran.h
REM seed 1135925517 679839370 -988652112 1061240060 -574447923 -1828577082 -883002349 -964373200 -246698726 1161682278 704489363 -478177430 -772976858 -80660805 1518865493 -991481953 977598752 1261867678 -1409277166 -399339076 -852450667 1291139874 1506339054 82076055 -1634398811 1548657238 1342456997 -135011005 -855907033 -1794189247 -2091780097 1754999994 1122125574
REM
CELL 1.54180   50.00000   50.00000   50.00000   90.00000   90.00000   90.00000
LATT -1
SFAC C  
C      1  0.4895540000000  0.4661330000000  0.5243300000000 1.0
C      1  0.4835190000000  0.5270440000000  0.5099680000000 1.0
C      1  0.5408630000000  0.5028040000000  0.5203420000000 1.0
C      1  0.4872290000000  0.4743400000000  0.4974440000000 1.0
C      1  0.4790510000000  0.5256450000000  0.4772630000000 1.0
C      1  0.5311990000000  0.5005080000000  0.4917150000000 1.0
C      1  0.4538510000000  0.5286190000000  0.5195120000000 1.0
C      1  0.5516140000000  0.5276780000000  0.5258520000000 1.0
C      1  0.5043620000000  0.4434890000000  0.5282910000000 1.0
C      1  0.4521720000000  0.5206630000000  0.4693740000000 1.0
C      1  0.5476000000000  0.5237570000000  0.4763640000000 1.0
C      1  0.4944770000000  0.4543740000000  0.4786030000000 1.0
C      1  0.5383800000000  0.4691320000000  0.4680780000000 1.0
C      1  0.4640830000000  0.4827030000000  0.4659480000000 1.0
C      1  0.5096940000000  0.5507760000000  0.4719950000000 1.0
C      1  0.5365420000000  0.4663250000000  0.5333860000000 1.0
C      1  0.4539610000000  0.4828780000000  0.5309460000000 1.0
C      1  0.5100170000000  0.5504860000000  0.5280980000000 1.0
C      1  0.4841090000000  0.4906770000000  0.5443310000000 1.0
C      1  0.4997330000000  0.5202970000000  0.5376880000000 1.0
C      1  0.5180610000000  0.4916630000000  0.5404830000000 1.0
C      1  0.4869900000000  0.4932820000000  0.4551910000000 1.0
C      1  0.5032310000000  0.5234670000000  0.4552750000000 1.0
C      1  0.5206440000000  0.4946160000000  0.4599120000000 1.0
C      1  0.5312290000000  0.4416870000000  0.5100510000000 1.0
C      1  0.4413640000000  0.5043320000000  0.5162810000000 1.0
C      1  0.5359490000000  0.5494120000000  0.5151870000000 1.0
C      1  0.5222950000000  0.4482610000000  0.4796950000000 1.0
C      1  0.4380980000000  0.4967690000000  0.4855330000000 1.0
C      1  0.5352730000000  0.5484690000000  0.4853200000000 1.0
C      1  0.4514720000000  0.4586250000000  0.5150590000000 1.0
C      1  0.4906270000000  0.5661830000000  0.5141070000000 1.0
C      1  0.5588280000000  0.4615040000000  0.5101300000000 1.0
C      1  0.4479020000000  0.4648380000000  0.4871860000000 1.0
C      1  0.4900400000000  0.5654180000000  0.4863250000000 1.0
C      1  0.5619820000000  0.4729790000000  0.4840920000000 1.0
C      1  0.4985150000000  0.5020640000000  0.4923780000000 1.0
END
