TITL C-2782239-8622-836 0.000189546066821811 125000 -169.081566760188 0 0 32 (Ci) n - 1
REM
REM in /home/nfs/bkarasulu/CARBON/AIRSS/Generating-Clusters/REBO/Higher-Symm/SD-CG/HFTN-CG
REM
REM
REM
REM
REM
REM ./C.cell (12c818d87b63d06a65506943cc24bca4)
REM
REM compiler GCC version 9.2.1 20190827 (Red Hat 9.2.1-1)
REM options -cpp -mtune=generic -march=x86-64 -g -O0 -fpre-include=/usr/include/finclude/math-vector-fortran.h
REM seed 1196406783 385501125 722339583 1643939743 1922135920 1419404451 -695823919 1250463668 2107424301 -1654196292 1229248415 -194454894 1922663979 1682104649 -1738697107 320786802 209957778 -1058970771 -523626182 958247165 1881570342 -1784030647 1490960006 -1772169973 976712759 -1903185101 -457839247 1294035986 2093668461 306738574 321554120 -246850636 409754058
REM
CELL 1.54180   50.00000   50.00000   50.00000   90.00000   90.00000   90.00000
LATT -1
SFAC C  
C      1  0.5403370000000  0.5410310000000  0.4827210000000 1.0
C      1  0.4859890000000  0.5394420000000  0.5419880000000 1.0
C      1  0.5379290000000  0.4894310000000  0.5410830000000 1.0
C      1  0.5359480000000  0.4646800000000  0.5174440000000 1.0
C      1  0.4577030000000  0.4613190000000  0.4839250000000 1.0
C      1  0.4642970000000  0.5377470000000  0.5161920000000 1.0
C      1  0.4813940000000  0.4608680000000  0.4588480000000 1.0
C      1  0.5118510000000  0.4675550000000  0.5420280000000 1.0
C      1  0.5175880000000  0.5378690000000  0.4556520000000 1.0
C      1  0.5447770000000  0.5188350000000  0.4569710000000 1.0
C      1  0.4607660000000  0.5158360000000  0.5424930000000 1.0
C      1  0.4553920000000  0.4839740000000  0.4585850000000 1.0
C      1  0.4655220000000  0.5361940000000  0.4831530000000 1.0
C      1  0.5200770000000  0.5400050000000  0.5417490000000 1.0
C      1  0.4566930000000  0.4820380000000  0.5436250000000 1.0
C      1  0.4611340000000  0.4598420000000  0.5178750000000 1.0
C      1  0.5371730000000  0.4631270000000  0.4844040000000 1.0
C      1  0.5437670000000  0.5395550000000  0.5166710000000 1.0
C      1  0.5154810000000  0.4614320000000  0.4586080000000 1.0
C      1  0.4838820000000  0.4630050000000  0.5449450000000 1.0
C      1  0.4896190000000  0.5333190000000  0.4585680000000 1.0
C      1  0.4635410000000  0.5114420000000  0.4595140000000 1.0
C      1  0.5460780000000  0.5169000000000  0.5420120000000 1.0
C      1  0.5407040000000  0.4850380000000  0.4581040000000 1.0
C      1  0.4834870000000  0.5037780000000  0.5242560000000 1.0
C      1  0.5159500000000  0.4875120000000  0.5077870000000 1.0
C      1  0.5160880000000  0.5243630000000  0.4927700000000 1.0
C      1  0.4896780000000  0.4845010000000  0.4780140000000 1.0
C      1  0.5117920000000  0.5163730000000  0.5225820000000 1.0
C      1  0.4853820000000  0.4765110000000  0.5078270000000 1.0
C      1  0.4855200000000  0.5133620000000  0.4928090000000 1.0
C      1  0.5179830000000  0.4970960000000  0.4763410000000 1.0
END
