TITL C-2782227-3064-275 -0.00252721859498281 125000 -848.75902384146 0 0 148 (C1) n - 1
REM
REM in /home/nfs/bkarasulu/CARBON/AIRSS/Generating-Clusters/REBO/Higher-Symm/SD-CG/HFTN-CG
REM
REM
REM
REM
REM
REM ./C.cell (12c818d87b63d06a65506943cc24bca4)
REM
REM compiler GCC version 9.2.1 20190827 (Red Hat 9.2.1-1)
REM options -cpp -mtune=generic -march=x86-64 -g -O0 -fpre-include=/usr/include/finclude/math-vector-fortran.h
REM seed -1309092025 1284629507 -512299395 -1396911804 1539357684 217202088 -768392005 52319788 -1125855460 561007380 2112935910 -1998324533 905271024 429721790 -168332306 823563328 528286575 1172502900 237195537 197432154 1215067665 260415461 1872033379 1241016675 178353228 376294582 -95530784 1434495802 337887084 1773051600 332737982 643520872 1214526840
REM
CELL 1.54180   50.00000   50.00000   50.00000   90.00000   90.00000   90.00000
LATT -1
SFAC C  
C      1  0.4773810000000  0.5063440000000  0.4419930000000 1.0
C      1  0.5254940000000  0.5148950000000  0.4484910000000 1.0
C      1  0.5037700000000  0.4723320000000  0.4414320000000 1.0
C      1  0.4753250000000  0.5139920000000  0.5585700000000 1.0
C      1  0.5287550000000  0.5070930000000  0.5548430000000 1.0
C      1  0.5004170000000  0.4790900000000  0.5578920000000 1.0
C      1  0.4528010000000  0.5849100000000  0.5220110000000 1.0
C      1  0.6022740000000  0.4962240000000  0.5269650000000 1.0
C      1  0.4333270000000  0.4223010000000  0.5294240000000 1.0
C      1  0.4477250000000  0.5833030000000  0.4737000000000 1.0
C      1  0.6005380000000  0.4946570000000  0.4756150000000 1.0
C      1  0.4321190000000  0.4207660000000  0.4754700000000 1.0
C      1  0.4782350000000  0.4961080000000  0.4015250000000 1.0
C      1  0.5034470000000  0.5196490000000  0.4010800000000 1.0
C      1  0.5111680000000  0.4862140000000  0.4001070000000 1.0
C      1  0.4771600000000  0.4986940000000  0.5973350000000 1.0
C      1  0.5006310000000  0.5235350000000  0.5943150000000 1.0
C      1  0.5102760000000  0.4903940000000  0.5949700000000 1.0
C      1  0.4435750000000  0.5461060000000  0.5245050000000 1.0
C      1  0.5738110000000  0.5241170000000  0.5133560000000 1.0
C      1  0.4797830000000  0.4170030000000  0.5124190000000 1.0
C      1  0.4410080000000  0.5477170000000  0.4906200000000 1.0
C      1  0.5701290000000  0.5258530000000  0.4836260000000 1.0
C      1  0.4787590000000  0.4141540000000  0.4781290000000 1.0
C      1  0.4663310000000  0.5823790000000  0.5464650000000 1.0
C      1  0.5914160000000  0.4916260000000  0.5521470000000 1.0
C      1  0.4416860000000  0.4338570000000  0.5536060000000 1.0
C      1  0.4618220000000  0.5741050000000  0.4510260000000 1.0
C      1  0.5888840000000  0.4883820000000  0.4509660000000 1.0
C      1  0.4396410000000  0.4299220000000  0.4500630000000 1.0
C      1  0.4916760000000  0.4306310000000  0.5398930000000 1.0
C      1  0.4407330000000  0.5414460000000  0.5552710000000 1.0
C      1  0.5707800000000  0.5427100000000  0.5625940000000 1.0
C      1  0.4943870000000  0.4219380000000  0.4494400000000 1.0
C      1  0.4453880000000  0.5351150000000  0.4607850000000 1.0
C      1  0.5743820000000  0.5383300000000  0.4356150000000 1.0
C      1  0.5668320000000  0.4532790000000  0.4568180000000 1.0
C      1  0.4164520000000  0.4597120000000  0.4625530000000 1.0
C      1  0.5106510000000  0.5865060000000  0.4583480000000 1.0
C      1  0.5680960000000  0.4524740000000  0.5482850000000 1.0
C      1  0.4157580000000  0.4615090000000  0.5420790000000 1.0
C      1  0.5024750000000  0.5934500000000  0.5348240000000 1.0
C      1  0.5445360000000  0.5495280000000  0.5783680000000 1.0
C      1  0.5067100000000  0.4411480000000  0.5681690000000 1.0
C      1  0.4318330000000  0.5190070000000  0.5777420000000 1.0
C      1  0.5448990000000  0.5434340000000  0.4247230000000 1.0
C      1  0.5104180000000  0.4376460000000  0.4243790000000 1.0
C      1  0.4413240000000  0.5201270000000  0.4323000000000 1.0
C      1  0.3987720000000  0.4700150000000  0.4829120000000 1.0
C      1  0.5261230000000  0.6004380000000  0.4853930000000 1.0
C      1  0.5743650000000  0.4369240000000  0.4860400000000 1.0
C      1  0.4020000000000  0.4732650000000  0.5164790000000 1.0
C      1  0.5225030000000  0.6021880000000  0.5164640000000 1.0
C      1  0.5751290000000  0.4355640000000  0.5195740000000 1.0
C      1  0.5437490000000  0.4910010000000  0.5881400000000 1.0
C      1  0.4587010000000  0.4704020000000  0.5927910000000 1.0
C      1  0.4849290000000  0.5513530000000  0.5844990000000 1.0
C      1  0.5442440000000  0.4856380000000  0.4088160000000 1.0
C      1  0.4594450000000  0.4694240000000  0.4116390000000 1.0
C      1  0.4895070000000  0.5475520000000  0.4149820000000 1.0
C      1  0.5394100000000  0.4576720000000  0.5181040000000 1.0
C      1  0.4445360000000  0.4909740000000  0.5117320000000 1.0
C      1  0.5218190000000  0.5523570000000  0.5171870000000 1.0
C      1  0.5400400000000  0.4572960000000  0.4861740000000 1.0
C      1  0.4513370000000  0.4885850000000  0.4826460000000 1.0
C      1  0.5215560000000  0.5570030000000  0.4859530000000 1.0
C      1  0.4681720000000  0.5017290000000  0.5276350000000 1.0
C      1  0.5302840000000  0.5265490000000  0.5267570000000 1.0
C      1  0.5133960000000  0.4724450000000  0.5279680000000 1.0
C      1  0.4704900000000  0.5062650000000  0.4717110000000 1.0
C      1  0.5176780000000  0.5279170000000  0.4775310000000 1.0
C      1  0.5157640000000  0.4704020000000  0.4724780000000 1.0
C      1  0.5301960000000  0.4963060000000  0.5147880000000 1.0
C      1  0.4802360000000  0.4703900000000  0.5248260000000 1.0
C      1  0.4890460000000  0.5253170000000  0.5228980000000 1.0
C      1  0.5287970000000  0.4970410000000  0.4841070000000 1.0
C      1  0.4833890000000  0.4659390000000  0.4749170000000 1.0
C      1  0.4940000000000  0.5147770000000  0.4927180000000 1.0
C      1  0.5391480000000  0.4439380000000  0.5584410000000 1.0
C      1  0.4339270000000  0.4927790000000  0.5583650000000 1.0
C      1  0.5217330000000  0.5575280000000  0.5568500000000 1.0
C      1  0.5372570000000  0.4505920000000  0.4409870000000 1.0
C      1  0.4374430000000  0.4901800000000  0.4453350000000 1.0
C      1  0.5293570000000  0.5657540000000  0.4439680000000 1.0
C      1  0.5085670000000  0.5418050000000  0.4413110000000 1.0
C      1  0.5325220000000  0.4846290000000  0.4393690000000 1.0
C      1  0.4691750000000  0.4739510000000  0.4446850000000 1.0
C      1  0.5029420000000  0.5293550000000  0.5532990000000 1.0
C      1  0.5315740000000  0.4742280000000  0.5631920000000 1.0
C      1  0.4663620000000  0.4806370000000  0.5610840000000 1.0
C      1  0.5440480000000  0.5770360000000  0.5122020000000 1.0
C      1  0.5444520000000  0.4255330000000  0.5098940000000 1.0
C      1  0.4164890000000  0.5038490000000  0.5161790000000 1.0
C      1  0.5474320000000  0.5749800000000  0.4783880000000 1.0
C      1  0.5436430000000  0.4264410000000  0.4769100000000 1.0
C      1  0.4046870000000  0.4994100000000  0.4870180000000 1.0
C      1  0.4915050000000  0.4631790000000  0.5867080000000 1.0
C      1  0.4619900000000  0.5261140000000  0.5854840000000 1.0
C      1  0.5312460000000  0.5224880000000  0.5846930000000 1.0
C      1  0.4923620000000  0.4607050000000  0.4122050000000 1.0
C      1  0.4669690000000  0.5239310000000  0.4156860000000 1.0
C      1  0.5316780000000  0.5165850000000  0.4154350000000 1.0
C      1  0.4330970000000  0.4614240000000  0.5717350000000 1.0
C      1  0.4953950000000  0.5767130000000  0.5640280000000 1.0
C      1  0.5702850000000  0.4765990000000  0.5722420000000 1.0
C      1  0.4343810000000  0.4588430000000  0.4326950000000 1.0
C      1  0.4891440000000  0.5758890000000  0.4340710000000 1.0
C      1  0.5687790000000  0.4725080000000  0.4285910000000 1.0
C      1  0.5658950000000  0.4754830000000  0.4809720000000 1.0
C      1  0.4438850000000  0.4622550000000  0.4731420000000 1.0
C      1  0.4942640000000  0.5770600000000  0.4866030000000 1.0
C      1  0.5669440000000  0.4741580000000  0.5232650000000 1.0
C      1  0.4398450000000  0.4627890000000  0.5231290000000 1.0
C      1  0.4962180000000  0.5644200000000  0.5269790000000 1.0
C      1  0.4059470000000  0.5481410000000  0.5368600000000 1.0
C      1  0.5824370000000  0.5489990000000  0.5326600000000 1.0
C      1  0.5217370000000  0.3951310000000  0.5218710000000 1.0
C      1  0.4075940000000  0.5443360000000  0.4677110000000 1.0
C      1  0.5882300000000  0.5466320000000  0.4645760000000 1.0
C      1  0.5168910000000  0.3895290000000  0.4558490000000 1.0
C      1  0.5519340000000  0.5621690000000  0.5412830000000 1.0
C      1  0.5249610000000  0.4242720000000  0.5372010000000 1.0
C      1  0.4181850000000  0.5188830000000  0.5421380000000 1.0
C      1  0.5619110000000  0.5643720000000  0.4540200000000 1.0
C      1  0.5284500000000  0.4192610000000  0.4524640000000 1.0
C      1  0.4197860000000  0.5126860000000  0.4642240000000 1.0
C      1  0.4651030000000  0.4414760000000  0.4845770000000 1.0
C      1  0.4733130000000  0.5525320000000  0.4830670000000 1.0
C      1  0.5570260000000  0.5032110000000  0.4700670000000 1.0
C      1  0.4633110000000  0.4449480000000  0.5157290000000 1.0
C      1  0.4724840000000  0.5501280000000  0.5148610000000 1.0
C      1  0.5599590000000  0.5028370000000  0.5301950000000 1.0
C      1  0.4775500000000  0.5434270000000  0.4530850000000 1.0
C      1  0.5662970000000  0.5083200000000  0.4393810000000 1.0
C      1  0.4674120000000  0.4397580000000  0.4447180000000 1.0
C      1  0.4590770000000  0.5613210000000  0.5667790000000 1.0
C      1  0.5683180000000  0.5122070000000  0.5606640000000 1.0
C      1  0.4685030000000  0.4471380000000  0.5550530000000 1.0
C      1  0.4983370000000  0.3875100000000  0.4756990000000 1.0
C      1  0.4187460000000  0.5712420000000  0.4840310000000 1.0
C      1  0.6051340000000  0.5256890000000  0.4850030000000 1.0
C      1  0.5000370000000  0.3937420000000  0.5049440000000 1.0
C      1  0.4221780000000  0.5707590000000  0.5171810000000 1.0
C      1  0.6061000000000  0.5283680000000  0.5188810000000 1.0
C      1  0.5913100000000  0.4782760000000  0.5018370000000 1.0
C      1  0.4650830000000  0.5891030000000  0.4964010000000 1.0
C      1  0.4308960000000  0.4191520000000  0.5025510000000 1.0
C      1  0.4896490000000  0.4844640000000  0.4987100000000 1.0
END
