TITL C-2782230-7391-1298 0.000405496825213354 125000 -1001.56857766059 0 0 170 (C1) n - 1
REM
REM in /home/nfs/bkarasulu/CARBON/AIRSS/Generating-Clusters/REBO/Higher-Symm/SD-CG/HFTN-CG
REM
REM
REM
REM
REM
REM ./C.cell (12c818d87b63d06a65506943cc24bca4)
REM
REM compiler GCC version 9.2.1 20190827 (Red Hat 9.2.1-1)
REM options -cpp -mtune=generic -march=x86-64 -g -O0 -fpre-include=/usr/include/finclude/math-vector-fortran.h
REM seed -650723010 -1660272241 -737365 659212249 101548958 -815271896 -1002287464 1223902699 -860332 -2021321217 -1832395286 -1055646989 2010198740 1941513737 1474716317 338881937 -1776308431 572490214 -365738674 1635851191 575223539 228263426 543465574 -2129573777 1773249472 949582314 1965184373 120422443 -1012968338 -910691192 1873487214 1862413624 -93301693
REM
CELL 1.54180   50.00000   50.00000   50.00000   90.00000   90.00000   90.00000
LATT -1
SFAC C  
C      1  0.4340440000000  0.4917450000000  0.4641300000000 1.0
C      1  0.4335840000000  0.4960020000000  0.5409020000000 1.0
C      1  0.5063160000000  0.4916700000000  0.4584600000000 1.0
C      1  0.5111650000000  0.5065980000000  0.5365200000000 1.0
C      1  0.4655140000000  0.4498020000000  0.5126540000000 1.0
C      1  0.4693590000000  0.5653750000000  0.4775590000000 1.0
C      1  0.5638550000000  0.4995580000000  0.5845090000000 1.0
C      1  0.5690270000000  0.5004310000000  0.4172080000000 1.0
C      1  0.5540850000000  0.5867620000000  0.5129470000000 1.0
C      1  0.5555620000000  0.4096340000000  0.4831390000000 1.0
C      1  0.4594190000000  0.5650140000000  0.5607340000000 1.0
C      1  0.4624990000000  0.4352250000000  0.4387740000000 1.0
C      1  0.4529820000000  0.5362540000000  0.4361380000000 1.0
C      1  0.4597530000000  0.4602090000000  0.5685600000000 1.0
C      1  0.5161370000000  0.5611580000000  0.4145680000000 1.0
C      1  0.5142010000000  0.4315020000000  0.5894360000000 1.0
C      1  0.4748140000000  0.5907710000000  0.4929020000000 1.0
C      1  0.4745020000000  0.4033800000000  0.5013720000000 1.0
C      1  0.5044750000000  0.4802600000000  0.5515890000000 1.0
C      1  0.5022400000000  0.5217490000000  0.4465450000000 1.0
C      1  0.5661540000000  0.4604920000000  0.5045270000000 1.0
C      1  0.5716010000000  0.5363420000000  0.4906520000000 1.0
C      1  0.4139860000000  0.5485520000000  0.4810160000000 1.0
C      1  0.4090110000000  0.4464980000000  0.5356080000000 1.0
C      1  0.5093670000000  0.5490310000000  0.5879830000000 1.0
C      1  0.5142360000000  0.4575780000000  0.4176310000000 1.0
C      1  0.5275610000000  0.4640870000000  0.4957750000000 1.0
C      1  0.5226340000000  0.5380840000000  0.4979100000000 1.0
C      1  0.5186290000000  0.5928650000000  0.4954920000000 1.0
C      1  0.5176810000000  0.4074990000000  0.4985680000000 1.0
C      1  0.5118960000000  0.6112800000000  0.5218750000000 1.0
C      1  0.5084560000000  0.3931270000000  0.4706020000000 1.0
C      1  0.5016610000000  0.4028550000000  0.5437430000000 1.0
C      1  0.5027210000000  0.5999410000000  0.4546280000000 1.0
C      1  0.4185610000000  0.4633220000000  0.4550910000000 1.0
C      1  0.4166610000000  0.5381380000000  0.5445720000000 1.0
C      1  0.4414770000000  0.4846640000000  0.5130090000000 1.0
C      1  0.4395260000000  0.5050090000000  0.4906950000000 1.0
C      1  0.4611480000000  0.5475300000000  0.4063490000000 1.0
C      1  0.4632110000000  0.4527600000000  0.6011560000000 1.0
C      1  0.4713110000000  0.4862740000000  0.5277020000000 1.0
C      1  0.4691360000000  0.5140140000000  0.4763900000000 1.0
C      1  0.5086740000000  0.4394530000000  0.4974820000000 1.0
C      1  0.5036160000000  0.5638460000000  0.4989330000000 1.0
C      1  0.3978160000000  0.4963450000000  0.4791760000000 1.0
C      1  0.3945970000000  0.4962250000000  0.5342860000000 1.0
C      1  0.4030220000000  0.5223160000000  0.5257110000000 1.0
C      1  0.4064820000000  0.4642500000000  0.4869690000000 1.0
C      1  0.5325270000000  0.4819490000000  0.4303300000000 1.0
C      1  0.5252970000000  0.5252310000000  0.5688360000000 1.0
C      1  0.5729890000000  0.5634080000000  0.4440250000000 1.0
C      1  0.5670030000000  0.4409510000000  0.5591660000000 1.0
C      1  0.4871550000000  0.5521420000000  0.4426070000000 1.0
C      1  0.4856190000000  0.4517990000000  0.5544970000000 1.0
C      1  0.5349160000000  0.5939000000000  0.5321830000000 1.0
C      1  0.5359970000000  0.4042480000000  0.4631860000000 1.0
C      1  0.5956800000000  0.4863860000000  0.4649790000000 1.0
C      1  0.5923050000000  0.5136330000000  0.5377100000000 1.0
C      1  0.5386300000000  0.4827770000000  0.4612620000000 1.0
C      1  0.5391550000000  0.5239990000000  0.5402830000000 1.0
C      1  0.5774350000000  0.4341240000000  0.4773960000000 1.0
C      1  0.5753460000000  0.5628040000000  0.5199030000000 1.0
C      1  0.5763440000000  0.4309910000000  0.5115690000000 1.0
C      1  0.5881270000000  0.5636390000000  0.4886300000000 1.0
C      1  0.4543120000000  0.4773620000000  0.4440970000000 1.0
C      1  0.4508880000000  0.5185890000000  0.5513380000000 1.0
C      1  0.4512630000000  0.4826040000000  0.6001850000000 1.0
C      1  0.4477400000000  0.5163720000000  0.4098380000000 1.0
C      1  0.5101890000000  0.4371230000000  0.4397690000000 1.0
C      1  0.5095220000000  0.5606800000000  0.5593390000000 1.0
C      1  0.4647050000000  0.5086910000000  0.4452170000000 1.0
C      1  0.4671380000000  0.4903760000000  0.5611960000000 1.0
C      1  0.5281710000000  0.4315150000000  0.5590140000000 1.0
C      1  0.5283220000000  0.5622380000000  0.4462120000000 1.0
C      1  0.5177420000000  0.5425070000000  0.4658080000000 1.0
C      1  0.5160360000000  0.4517770000000  0.5405540000000 1.0
C      1  0.4540650000000  0.5934260000000  0.4371980000000 1.0
C      1  0.4518920000000  0.4138230000000  0.5564650000000 1.0
C      1  0.5588100000000  0.5287700000000  0.4624720000000 1.0
C      1  0.5436950000000  0.4723900000000  0.5241340000000 1.0
C      1  0.4831340000000  0.5812140000000  0.4435440000000 1.0
C      1  0.4817880000000  0.4206320000000  0.5525890000000 1.0
C      1  0.4856860000000  0.4241630000000  0.4814240000000 1.0
C      1  0.4859940000000  0.5810530000000  0.5223970000000 1.0
C      1  0.5419180000000  0.5446910000000  0.5918240000000 1.0
C      1  0.5456840000000  0.4583380000000  0.4089200000000 1.0
C      1  0.5118310000000  0.5134180000000  0.6045380000000 1.0
C      1  0.5201940000000  0.4880350000000  0.3930050000000 1.0
C      1  0.4327470000000  0.5807160000000  0.5157140000000 1.0
C      1  0.4341910000000  0.4215460000000  0.4800080000000 1.0
C      1  0.5342450000000  0.5776150000000  0.5556360000000 1.0
C      1  0.5355270000000  0.4213250000000  0.4408450000000 1.0
C      1  0.5488010000000  0.5546960000000  0.4217520000000 1.0
C      1  0.5453400000000  0.4436570000000  0.5852380000000 1.0
C      1  0.5109100000000  0.4880470000000  0.4895160000000 1.0
C      1  0.5076120000000  0.5133090000000  0.5055320000000 1.0
C      1  0.4904850000000  0.5646210000000  0.4048490000000 1.0
C      1  0.4878070000000  0.4305610000000  0.5960670000000 1.0
C      1  0.4741980000000  0.4962840000000  0.4151210000000 1.0
C      1  0.4757150000000  0.5027850000000  0.5911620000000 1.0
C      1  0.5071950000000  0.5026400000000  0.4202580000000 1.0
C      1  0.5051360000000  0.4990380000000  0.5752240000000 1.0
C      1  0.5933640000000  0.4814430000000  0.5299720000000 1.0
C      1  0.6051580000000  0.5179340000000  0.4706570000000 1.0
C      1  0.4176750000000  0.4362480000000  0.5037870000000 1.0
C      1  0.4192290000000  0.5760780000000  0.4900780000000 1.0
C      1  0.5634720000000  0.4198240000000  0.5385040000000 1.0
C      1  0.5742580000000  0.5790810000000  0.4682290000000 1.0
C      1  0.5447510000000  0.5021940000000  0.5147380000000 1.0
C      1  0.5479920000000  0.5056440000000  0.4807200000000 1.0
C      1  0.5642990000000  0.5276210000000  0.4289050000000 1.0
C      1  0.5619200000000  0.4711090000000  0.5759960000000 1.0
C      1  0.4616690000000  0.5804280000000  0.4099900000000 1.0
C      1  0.4579080000000  0.4235130000000  0.5843680000000 1.0
C      1  0.4249760000000  0.5428790000000  0.4507890000000 1.0
C      1  0.4296520000000  0.4525540000000  0.5604920000000 1.0
C      1  0.4101440000000  0.4726210000000  0.5184610000000 1.0
C      1  0.4118780000000  0.5221300000000  0.4963850000000 1.0
C      1  0.4911380000000  0.4711040000000  0.4019050000000 1.0
C      1  0.4838980000000  0.5334440000000  0.5985630000000 1.0
C      1  0.5523700000000  0.4570950000000  0.4735050000000 1.0
C      1  0.5487390000000  0.5418790000000  0.5149290000000 1.0
C      1  0.4984250000000  0.5369700000000  0.5406180000000 1.0
C      1  0.4937010000000  0.4648360000000  0.4509220000000 1.0
C      1  0.5798400000000  0.5144170000000  0.5670080000000 1.0
C      1  0.5842900000000  0.4850770000000  0.4349960000000 1.0
C      1  0.4838750000000  0.5728450000000  0.5501190000000 1.0
C      1  0.4849870000000  0.4260200000000  0.4530090000000 1.0
C      1  0.4286500000000  0.4192360000000  0.5322230000000 1.0
C      1  0.4318370000000  0.5926950000000  0.4629530000000 1.0
C      1  0.4963380000000  0.3942140000000  0.5176130000000 1.0
C      1  0.4944320000000  0.6107970000000  0.4801740000000 1.0
C      1  0.4526090000000  0.6011030000000  0.5143300000000 1.0
C      1  0.4533680000000  0.4002710000000  0.4790390000000 1.0
C      1  0.4804460000000  0.3881460000000  0.4650200000000 1.0
C      1  0.4815750000000  0.6152290000000  0.5236040000000 1.0
C      1  0.4345430000000  0.4601790000000  0.4248890000000 1.0
C      1  0.4348450000000  0.5357130000000  0.5721500000000 1.0
C      1  0.5463050000000  0.4048760000000  0.5129970000000 1.0
C      1  0.5490860000000  0.5922250000000  0.4809980000000 1.0
C      1  0.5540880000000  0.4314450000000  0.4230380000000 1.0
C      1  0.5527070000000  0.5695150000000  0.5750000000000 1.0
C      1  0.4867220000000  0.5398480000000  0.4806350000000 1.0
C      1  0.4939050000000  0.4630070000000  0.5171720000000 1.0
C      1  0.4646830000000  0.4533880000000  0.4138790000000 1.0
C      1  0.4580430000000  0.5492260000000  0.5868210000000 1.0
C      1  0.5737450000000  0.4868650000000  0.4895040000000 1.0
C      1  0.5750190000000  0.5114810000000  0.5094540000000 1.0
C      1  0.4789090000000  0.4848760000000  0.4866320000000 1.0
C      1  0.4781890000000  0.5139390000000  0.5153130000000 1.0
C      1  0.4395800000000  0.5581040000000  0.5361830000000 1.0
C      1  0.4411530000000  0.4425610000000  0.4600280000000 1.0
C      1  0.4678840000000  0.4607250000000  0.4689770000000 1.0
C      1  0.4670020000000  0.5381930000000  0.5321820000000 1.0
C      1  0.4459330000000  0.5645200000000  0.4631380000000 1.0
C      1  0.4486410000000  0.4458150000000  0.5329510000000 1.0
C      1  0.5338320000000  0.4043030000000  0.5446330000000 1.0
C      1  0.5285810000000  0.5894430000000  0.4569050000000 1.0
C      1  0.6007390000000  0.5401030000000  0.5189670000000 1.0
C      1  0.6006430000000  0.4583860000000  0.4833050000000 1.0
C      1  0.5902720000000  0.5352100000000  0.4495200000000 1.0
C      1  0.5687790000000  0.4691630000000  0.5434160000000 1.0
C      1  0.5526980000000  0.4877570000000  0.3967190000000 1.0
C      1  0.5451490000000  0.5134210000000  0.6011850000000 1.0
C      1  0.4072800000000  0.5024360000000  0.4489270000000 1.0
C      1  0.4114230000000  0.4879980000000  0.5601610000000 1.0
C      1  0.4267850000000  0.4771640000000  0.5839650000000 1.0
C      1  0.4182250000000  0.5196040000000  0.4267470000000 1.0
C      1  0.6110040000000  0.5309710000000  0.4943810000000 1.0
C      1  0.6052240000000  0.4667790000000  0.5098910000000 1.0
END
