TITL C-2782225-7408-716 -0.00688407899924664 125000 -662.775168033566 0 0 112 (C7) n - 1
REM
REM in /home/nfs/bkarasulu/CARBON/AIRSS/Generating-Clusters/REBO/Higher-Symm/SD-CG/HFTN-CG
REM
REM
REM
REM
REM
REM ./C.cell (12c818d87b63d06a65506943cc24bca4)
REM
REM compiler GCC version 9.2.1 20190827 (Red Hat 9.2.1-1)
REM options -cpp -mtune=generic -march=x86-64 -g -O0 -fpre-include=/usr/include/finclude/math-vector-fortran.h
REM seed -1303830475 1696135254 -1858522678 1717151558 -1336908608 175411524 -97389296 -1473327529 -649746879 1628146361 748759320 628881329 -371730058 -1133395321 59101239 1470627877 1149640406 -1514083739 -1167985557 -1794479709 1775488218 -1966606852 -1366187637 -1496908425 1343400402 -334035968 1805924214 -818909639 1428942233 -1912894790 -1523742064 -627355111 -1443124615
REM
CELL 1.54180   50.00000   50.00000   50.00000   90.00000   90.00000   90.00000
LATT -1
SFAC C  
C      1  0.4493610000000  0.4176300000000  0.5102810000000 1.0
C      1  0.4493620000000  0.4566780000000  0.5708090000000 1.0
C      1  0.4493590000000  0.5283470000000  0.5780180000000 1.0
C      1  0.4493540000000  0.5786680000000  0.5264800000000 1.0
C      1  0.4493510000000  0.5697490000000  0.4550040000000 1.0
C      1  0.4493520000000  0.5083050000000  0.4174120000000 1.0
C      1  0.4493570000000  0.4406060000000  0.4420130000000 1.0
C      1  0.5130600000000  0.4125460000000  0.4458410000000 1.0
C      1  0.5130650000000  0.4031310000000  0.5346060000000 1.0
C      1  0.5130640000000  0.4666600000000  0.5973120000000 1.0
C      1  0.5130590000000  0.5552960000000  0.5867400000000 1.0
C      1  0.5130540000000  0.6022930000000  0.5108500000000 1.0
C      1  0.5130510000000  0.5722620000000  0.4267890000000 1.0
C      1  0.5130540000000  0.4878170000000  0.3978580000000 1.0
C      1  0.5026240000000  0.4645960000000  0.4863020000000 1.0
C      1  0.5026250000000  0.4672160000000  0.5191400000000 1.0
C      1  0.5026250000000  0.4945240000000  0.5375650000000 1.0
C      1  0.5026230000000  0.5259550000000  0.5277030000000 1.0
C      1  0.5026210000000  0.5378420000000  0.4969800000000 1.0
C      1  0.5026200000000  0.5212330000000  0.4685310000000 1.0
C      1  0.5026220000000  0.4886350000000  0.4637790000000 1.0
C      1  0.5821630000000  0.4870480000000  0.5303580000000 1.0
C      1  0.5821620000000  0.5156640000000  0.5290560000000 1.0
C      1  0.5821600000000  0.5324880000000  0.5058710000000 1.0
C      1  0.5821590000000  0.5248510000000  0.4782620000000 1.0
C      1  0.5821600000000  0.4985030000000  0.4670200000000 1.0
C      1  0.5821620000000  0.4732860000000  0.4806090000000 1.0
C      1  0.5821630000000  0.4681880000000  0.5087970000000 1.0
C      1  0.4615770000000  0.4277070000000  0.4636280000000 1.0
C      1  0.4615810000000  0.4264870000000  0.5338420000000 1.0
C      1  0.4615800000000  0.4806220000000  0.5785740000000 1.0
C      1  0.4615760000000  0.5493480000000  0.5641390000000 1.0
C      1  0.4615720000000  0.5809120000000  0.5014080000000 1.0
C      1  0.4615700000000  0.5515460000000  0.4376170000000 1.0
C      1  0.4615730000000  0.4833640000000  0.4208040000000 1.0
C      1  0.4885570000000  0.5548070000000  0.5687010000000 1.0
C      1  0.4885520000000  0.5878840000000  0.4999840000000 1.0
C      1  0.4885500000000  0.5547820000000  0.4312790000000 1.0
C      1  0.4885530000000  0.4804270000000  0.4143230000000 1.0
C      1  0.4885590000000  0.4208110000000  0.4618830000000 1.0
C      1  0.4885620000000  0.4208250000000  0.5381470000000 1.0
C      1  0.4885610000000  0.4804590000000  0.5856850000000 1.0
C      1  0.5377630000000  0.5595650000000  0.4432690000000 1.0
C      1  0.5377650000000  0.4927870000000  0.4180600000000 1.0
C      1  0.5377700000000  0.4314410000000  0.4545520000000 1.0
C      1  0.5377730000000  0.4217230000000  0.5252660000000 1.0
C      1  0.5377730000000  0.4709510000000  0.5769530000000 1.0
C      1  0.5377690000000  0.5420540000000  0.5706920000000 1.0
C      1  0.5377650000000  0.5814920000000  0.5111970000000 1.0
C      1  0.4311750000000  0.5130710000000  0.4689930000000 1.0
C      1  0.4311770000000  0.4839040000000  0.4704470000000 1.0
C      1  0.4311790000000  0.4668550000000  0.4941570000000 1.0
C      1  0.4311800000000  0.4747620000000  0.5222690000000 1.0
C      1  0.4311790000000  0.5016710000000  0.5336150000000 1.0
C      1  0.4311770000000  0.5273200000000  0.5196500000000 1.0
C      1  0.4311750000000  0.5323930000000  0.4908910000000 1.0
C      1  0.5123160000000  0.4792790000000  0.4366650000000 1.0
C      1  0.5123200000000  0.4375640000000  0.4767120000000 1.0
C      1  0.5123220000000  0.4428650000000  0.5342940000000 1.0
C      1  0.5123220000000  0.4911900000000  0.5660520000000 1.0
C      1  0.5123180000000  0.5461500000000  0.5480710000000 1.0
C      1  0.5123150000000  0.5663580000000  0.4938910000000 1.0
C      1  0.5123140000000  0.5365980000000  0.4443110000000 1.0
C      1  0.5633060000000  0.5587710000000  0.5115120000000 1.0
C      1  0.5633040000000  0.5456470000000  0.4612300000000 1.0
C      1  0.5633050000000  0.4981530000000  0.4401410000000 1.0
C      1  0.5633090000000  0.4520520000000  0.4641240000000 1.0
C      1  0.5633120000000  0.4420590000000  0.5151210000000 1.0
C      1  0.5633120000000  0.4757000000000  0.5547290000000 1.0
C      1  0.5633090000000  0.5276410000000  0.5531230000000 1.0
C      1  0.4708390000000  0.5125520000000  0.4660350000000 1.0
C      1  0.4708410000000  0.4812690000000  0.4690090000000 1.0
C      1  0.4708430000000  0.4640900000000  0.4953210000000 1.0
C      1  0.4708440000000  0.4739510000000  0.5251580000000 1.0
C      1  0.4708430000000  0.5034260000000  0.5360510000000 1.0
C      1  0.4708410000000  0.5303200000000  0.5197980000000 1.0
C      1  0.4708390000000  0.5343820000000  0.4886380000000 1.0
C      1  0.4398620000000  0.5948700000000  0.4490470000000 1.0
C      1  0.4398630000000  0.5193100000000  0.3940580000000 1.0
C      1  0.4398690000000  0.4292070000000  0.4188470000000 1.0
C      1  0.4398750000000  0.3924110000000  0.5047490000000 1.0
C      1  0.4398760000000  0.4366280000000  0.5870760000000 1.0
C      1  0.4398720000000  0.5285640000000  0.6038360000000 1.0
C      1  0.4398660000000  0.5989880000000  0.5424070000000 1.0
C      1  0.4508940000000  0.4393060000000  0.4897110000000 1.0
C      1  0.4508950000000  0.4541110000000  0.5410370000000 1.0
C      1  0.4508940000000  0.5034700000000  0.5614620000000 1.0
C      1  0.4508900000000  0.5502140000000  0.5356070000000 1.0
C      1  0.4508870000000  0.5591440000000  0.4829410000000 1.0
C      1  0.4508870000000  0.5235360000000  0.4431220000000 1.0
C      1  0.4508900000000  0.4702020000000  0.4461350000000 1.0
C      1  0.5379100000000  0.4326600000000  0.4943220000000 1.0
C      1  0.5379110000000  0.4535770000000  0.5491100000000 1.0
C      1  0.5379090000000  0.5094530000000  0.5669150000000 1.0
C      1  0.5379050000000  0.5582130000000  0.5343310000000 1.0
C      1  0.5379030000000  0.5631380000000  0.4758940000000 1.0
C      1  0.5379030000000  0.5205210000000  0.4356070000000 1.0
C      1  0.5379060000000  0.4624520000000  0.4438090000000 1.0
C      1  0.5442980000000  0.5109160000000  0.4668620000000 1.0
C      1  0.5442990000000  0.4809000000000  0.4708050000000 1.0
C      1  0.5443010000000  0.4652690000000  0.4967310000000 1.0
C      1  0.5443020000000  0.4757920000000  0.5251170000000 1.0
C      1  0.5443010000000  0.5045460000000  0.5345880000000 1.0
C      1  0.5442990000000  0.5298790000000  0.5180120000000 1.0
C      1  0.5442980000000  0.5327140000000  0.4878710000000 1.0
C      1  0.5142810000000  0.5959710000000  0.4129370000000 1.0
C      1  0.5142840000000  0.4917690000000  0.3706840000000 1.0
C      1  0.5142910000000  0.3937650000000  0.4258080000000 1.0
C      1  0.5142970000000  0.3757590000000  0.5368000000000 1.0
C      1  0.5142970000000  0.4513090000000  0.6200800000000 1.0
C      1  0.5142910000000  0.5635250000000  0.6129370000000 1.0
C      1  0.5142840000000  0.6279060000000  0.5207490000000 1.0
END
