TITL C-2782225-7408-1498 -0.00244552267030489 125000 -560.342605948566 0 0 97 (C1) n - 1
REM
REM in /home/nfs/bkarasulu/CARBON/AIRSS/Generating-Clusters/REBO/Higher-Symm/SD-CG/HFTN-CG
REM
REM
REM
REM
REM
REM ./C.cell (12c818d87b63d06a65506943cc24bca4)
REM
REM compiler GCC version 9.2.1 20190827 (Red Hat 9.2.1-1)
REM options -cpp -mtune=generic -march=x86-64 -g -O0 -fpre-include=/usr/include/finclude/math-vector-fortran.h
REM seed -547846935 848036109 -1185959709 1043271478 -1202551155 1004051649 -922884970 -1864704065 180909098 1099615630 -1812476004 -1397075654 1484667010 -2077824137 642913978 1945376863 768234890 -293193016 2032909792 737923258 1371151886 -2140675707 899460419 952080681 1468061115 -677100747 -52269025 1759066504 231136627 406368072 1030779229 -1497613179 -592897165
REM
CELL 1.54180   50.00000   50.00000   50.00000   90.00000   90.00000   90.00000
LATT -1
SFAC C  
C      1  0.4180750000000  0.4866850000000  0.5398580000000 1.0
C      1  0.5860470000000  0.4819070000000  0.4521070000000 1.0
C      1  0.5011600000000  0.4351000000000  0.5376960000000 1.0
C      1  0.4969570000000  0.4367920000000  0.4616530000000 1.0
C      1  0.5360700000000  0.4639780000000  0.4377800000000 1.0
C      1  0.4613090000000  0.4611940000000  0.5636430000000 1.0
C      1  0.5360950000000  0.5269550000000  0.5106690000000 1.0
C      1  0.4769230000000  0.5196930000000  0.4925430000000 1.0
C      1  0.5437660000000  0.4549560000000  0.4759720000000 1.0
C      1  0.4538440000000  0.4500890000000  0.5259800000000 1.0
C      1  0.5636710000000  0.4437780000000  0.5005540000000 1.0
C      1  0.4349880000000  0.4401050000000  0.4994030000000 1.0
C      1  0.5822760000000  0.5420990000000  0.4506440000000 1.0
C      1  0.4203090000000  0.5376000000000  0.5426360000000 1.0
C      1  0.4862760000000  0.4470370000000  0.5632200000000 1.0
C      1  0.5111190000000  0.4500900000000  0.4365200000000 1.0
C      1  0.5006430000000  0.5261420000000  0.4476260000000 1.0
C      1  0.5011520000000  0.5237610000000  0.5490930000000 1.0
C      1  0.4453020000000  0.5417590000000  0.4823460000000 1.0
C      1  0.5575600000000  0.5477560000000  0.5079100000000 1.0
C      1  0.5330680000000  0.4325470000000  0.5438060000000 1.0
C      1  0.4651730000000  0.4342900000000  0.4547100000000 1.0
C      1  0.5473170000000  0.5707080000000  0.4963910000000 1.0
C      1  0.4627090000000  0.5565830000000  0.4984050000000 1.0
C      1  0.5576340000000  0.4512900000000  0.5295760000000 1.0
C      1  0.4411190000000  0.4515500000000  0.4713970000000 1.0
C      1  0.5474660000000  0.5212410000000  0.5790010000000 1.0
C      1  0.4491060000000  0.5254420000000  0.4296050000000 1.0
C      1  0.4716820000000  0.4653700000000  0.4501590000000 1.0
C      1  0.5263030000000  0.4631970000000  0.5505240000000 1.0
C      1  0.5896810000000  0.4956820000000  0.4830130000000 1.0
C      1  0.4030380000000  0.4863230000000  0.5110790000000 1.0
C      1  0.4987230000000  0.4757700000000  0.5384020000000 1.0
C      1  0.4997410000000  0.4776260000000  0.4631400000000 1.0
C      1  0.5160890000000  0.5862280000000  0.4564650000000 1.0
C      1  0.4783420000000  0.5826310000000  0.5237960000000 1.0
C      1  0.4370220000000  0.5202310000000  0.4570450000000 1.0
C      1  0.5625710000000  0.5093670000000  0.5557480000000 1.0
C      1  0.5448160000000  0.5126900000000  0.4562500000000 1.0
C      1  0.4607680000000  0.5110920000000  0.5487890000000 1.0
C      1  0.4850530000000  0.5539930000000  0.4434530000000 1.0
C      1  0.5169740000000  0.5500940000000  0.5547270000000 1.0
C      1  0.5688510000000  0.5634230000000  0.4512850000000 1.0
C      1  0.4271140000000  0.5626440000000  0.5346400000000 1.0
C      1  0.4153170000000  0.4568430000000  0.5195630000000 1.0
C      1  0.5825080000000  0.4624290000000  0.4801370000000 1.0
C      1  0.5751280000000  0.5130670000000  0.4576290000000 1.0
C      1  0.4306910000000  0.5128750000000  0.5449790000000 1.0
C      1  0.5363080000000  0.4265630000000  0.4897100000000 1.0
C      1  0.4625790000000  0.4232010000000  0.5099350000000 1.0
C      1  0.4614690000000  0.4715070000000  0.4897270000000 1.0
C      1  0.5369530000000  0.4732150000000  0.5133220000000 1.0
C      1  0.4493060000000  0.5732480000000  0.5215670000000 1.0
C      1  0.5464610000000  0.5764500000000  0.4651460000000 1.0
C      1  0.5914370000000  0.5176750000000  0.5527500000000 1.0
C      1  0.4099610000000  0.5127080000000  0.4560820000000 1.0
C      1  0.4844360000000  0.5527780000000  0.6173050000000 1.0
C      1  0.5226210000000  0.5610250000000  0.3918100000000 1.0
C      1  0.5107970000000  0.5409620000000  0.5224690000000 1.0
C      1  0.4878570000000  0.5397470000000  0.4727820000000 1.0
C      1  0.4960960000000  0.5616030000000  0.5050110000000 1.0
C      1  0.5164310000000  0.5742950000000  0.4867430000000 1.0
C      1  0.5834250000000  0.5377150000000  0.5118440000000 1.0
C      1  0.4183840000000  0.5308060000000  0.4907350000000 1.0
C      1  0.4559300000000  0.5029060000000  0.4783300000000 1.0
C      1  0.5450370000000  0.5032170000000  0.5271810000000 1.0
C      1  0.5320970000000  0.5024630000000  0.5941400000000 1.0
C      1  0.4594810000000  0.5035380000000  0.4142800000000 1.0
C      1  0.5042540000000  0.4586330000000  0.5834830000000 1.0
C      1  0.4925700000000  0.4610070000000  0.4164190000000 1.0
C      1  0.4617780000000  0.5508690000000  0.4274490000000 1.0
C      1  0.5368920000000  0.5473060000000  0.5743210000000 1.0
C      1  0.4704430000000  0.5173250000000  0.5803180000000 1.0
C      1  0.5338130000000  0.5217970000000  0.4258370000000 1.0
C      1  0.4721220000000  0.4736040000000  0.5199220000000 1.0
C      1  0.5248880000000  0.4784030000000  0.4822620000000 1.0
C      1  0.4775310000000  0.5352840000000  0.5990540000000 1.0
C      1  0.5281430000000  0.5416720000000  0.4085970000000 1.0
C      1  0.4456580000000  0.4812930000000  0.4549830000000 1.0
C      1  0.5540610000000  0.4790080000000  0.5487250000000 1.0
C      1  0.5011370000000  0.4983810000000  0.5583210000000 1.0
C      1  0.4972920000000  0.4993630000000  0.4418040000000 1.0
C      1  0.5112880000000  0.4868540000000  0.5825190000000 1.0
C      1  0.4831220000000  0.4883600000000  0.4195140000000 1.0
C      1  0.4651320000000  0.4875560000000  0.5715850000000 1.0
C      1  0.5351410000000  0.4911290000000  0.4324520000000 1.0
C      1  0.4036690000000  0.5088690000000  0.4968140000000 1.0
C      1  0.5960270000000  0.5144290000000  0.5056640000000 1.0
C      1  0.5082880000000  0.4217080000000  0.4880880000000 1.0
C      1  0.4909980000000  0.4207680000000  0.5105810000000 1.0
C      1  0.5076510000000  0.4570830000000  0.5122900000000 1.0
C      1  0.4911590000000  0.4577940000000  0.4880150000000 1.0
C      1  0.4331810000000  0.4582230000000  0.5486960000000 1.0
C      1  0.5637600000000  0.4574600000000  0.4512420000000 1.0
C      1  0.5306260000000  0.5101890000000  0.4829470000000 1.0
C      1  0.4764550000000  0.5055070000000  0.5235830000000 1.0
C      1  0.5038880000000  0.5049690000000  0.5033110000000 1.0
END
