TITL C-2782234-8014-1248 -0.000345034505651236 125000 -620.098538958722 0 0 108 (C1) n - 1
REM
REM in /home/nfs/bkarasulu/CARBON/AIRSS/Generating-Clusters/REBO/Higher-Symm/SD-CG/HFTN-CG
REM
REM
REM
REM
REM
REM ./C.cell (12c818d87b63d06a65506943cc24bca4)
REM
REM compiler GCC version 9.2.1 20190827 (Red Hat 9.2.1-1)
REM options -cpp -mtune=generic -march=x86-64 -g -O0 -fpre-include=/usr/include/finclude/math-vector-fortran.h
REM seed -477835933 -976986425 916664376 -419356700 901844918 703741735 1251702934 910578768 -1844458966 546742861 -392756369 -286200819 -1502460300 903176203 1960807589 -651676120 917526728 -1617359344 746263039 -823338060 -58131017 722944929 803678281 1292757129 -1069674548 -551253035 1510172910 -999463941 -1982188583 -1668844997 -191632811 1480825980 377055152
REM
CELL 1.54180   50.00000   50.00000   50.00000   90.00000   90.00000   90.00000
LATT -1
SFAC C  
C      1  0.5239050000000  0.5463120000000  0.5257370000000 1.0
C      1  0.4855610000000  0.5472280000000  0.4937350000000 1.0
C      1  0.5109010000000  0.5469660000000  0.4788940000000 1.0
C      1  0.4929150000000  0.5469770000000  0.5241320000000 1.0
C      1  0.5288820000000  0.4985760000000  0.5619880000000 1.0
C      1  0.4701820000000  0.5008690000000  0.4310170000000 1.0
C      1  0.5221240000000  0.5049710000000  0.4411000000000 1.0
C      1  0.4720730000000  0.4986620000000  0.5613650000000 1.0
C      1  0.5190950000000  0.5067720000000  0.5157950000000 1.0
C      1  0.4817330000000  0.4950420000000  0.4799400000000 1.0
C      1  0.5130900000000  0.4965410000000  0.4838890000000 1.0
C      1  0.4855270000000  0.5019810000000  0.5130100000000 1.0
C      1  0.4578440000000  0.5317230000000  0.5785910000000 1.0
C      1  0.5414940000000  0.5354780000000  0.4243790000000 1.0
C      1  0.4540730000000  0.5348690000000  0.4177540000000 1.0
C      1  0.5414280000000  0.5316900000000  0.5804680000000 1.0
C      1  0.4503140000000  0.5032380000000  0.4570350000000 1.0
C      1  0.5524210000000  0.5040320000000  0.5392490000000 1.0
C      1  0.4501150000000  0.5029820000000  0.5355440000000 1.0
C      1  0.5480070000000  0.4976950000000  0.4560070000000 1.0
C      1  0.5823520000000  0.5626680000000  0.5011720000000 1.0
C      1  0.4245490000000  0.5546060000000  0.4859380000000 1.0
C      1  0.5761060000000  0.5568690000000  0.4748030000000 1.0
C      1  0.4250890000000  0.5579160000000  0.5135470000000 1.0
C      1  0.4707870000000  0.5755640000000  0.4855520000000 1.0
C      1  0.5328430000000  0.5773560000000  0.5185260000000 1.0
C      1  0.4735060000000  0.5750810000000  0.5194940000000 1.0
C      1  0.5281500000000  0.5746150000000  0.4849310000000 1.0
C      1  0.5144470000000  0.4747060000000  0.5426890000000 1.0
C      1  0.4861680000000  0.4761740000000  0.4449910000000 1.0
C      1  0.5147610000000  0.4765630000000  0.4493900000000 1.0
C      1  0.4858830000000  0.4753680000000  0.5438090000000 1.0
C      1  0.5532530000000  0.4403570000000  0.5218120000000 1.0
C      1  0.4406290000000  0.4416880000000  0.4851150000000 1.0
C      1  0.5537720000000  0.4433030000000  0.4930920000000 1.0
C      1  0.4429920000000  0.4432560000000  0.5132040000000 1.0
C      1  0.5751110000000  0.4733920000000  0.5603560000000 1.0
C      1  0.4296760000000  0.4696550000000  0.4416110000000 1.0
C      1  0.5777200000000  0.4710880000000  0.4530960000000 1.0
C      1  0.4309150000000  0.4704900000000  0.5580440000000 1.0
C      1  0.5512820000000  0.4766450000000  0.5766180000000 1.0
C      1  0.4464110000000  0.4826350000000  0.4148610000000 1.0
C      1  0.5601850000000  0.4625630000000  0.4317910000000 1.0
C      1  0.4502300000000  0.4832660000000  0.5826180000000 1.0
C      1  0.4133770000000  0.4962490000000  0.4861930000000 1.0
C      1  0.5878750000000  0.5003960000000  0.5213290000000 1.0
C      1  0.4132960000000  0.4964460000000  0.5186890000000 1.0
C      1  0.5874270000000  0.5012800000000  0.4894580000000 1.0
C      1  0.4807060000000  0.5297450000000  0.4462270000000 1.0
C      1  0.5153750000000  0.5274450000000  0.5506780000000 1.0
C      1  0.4842990000000  0.5276130000000  0.5491390000000 1.0
C      1  0.5096980000000  0.5311580000000  0.4507540000000 1.0
C      1  0.4128040000000  0.4973540000000  0.4521670000000 1.0
C      1  0.5891820000000  0.4997690000000  0.5513940000000 1.0
C      1  0.4130530000000  0.4971190000000  0.5479800000000 1.0
C      1  0.5874820000000  0.5012340000000  0.4553520000000 1.0
C      1  0.4877320000000  0.5778430000000  0.5488400000000 1.0
C      1  0.5117860000000  0.5791590000000  0.4554080000000 1.0
C      1  0.4827310000000  0.5772460000000  0.4558870000000 1.0
C      1  0.5170800000000  0.5779440000000  0.5488090000000 1.0
C      1  0.5638820000000  0.5173030000000  0.5664930000000 1.0
C      1  0.4339370000000  0.5174600000000  0.4339560000000 1.0
C      1  0.5634090000000  0.5189490000000  0.4388020000000 1.0
C      1  0.4364050000000  0.5161070000000  0.5638220000000 1.0
C      1  0.5569120000000  0.4890470000000  0.5119830000000 1.0
C      1  0.4437160000000  0.4827450000000  0.4786790000000 1.0
C      1  0.5578460000000  0.4924800000000  0.4804490000000 1.0
C      1  0.4425610000000  0.4831090000000  0.5099620000000 1.0
C      1  0.5736520000000  0.4559350000000  0.4772590000000 1.0
C      1  0.4260610000000  0.4517390000000  0.5326840000000 1.0
C      1  0.5712220000000  0.4536890000000  0.5396250000000 1.0
C      1  0.4226170000000  0.4510010000000  0.4667080000000 1.0
C      1  0.4694840000000  0.4652170000000  0.4707060000000 1.0
C      1  0.5282270000000  0.4739490000000  0.5129820000000 1.0
C      1  0.4718860000000  0.4707010000000  0.5159330000000 1.0
C      1  0.5228500000000  0.4652580000000  0.4805380000000 1.0
C      1  0.4738070000000  0.5558050000000  0.5631860000000 1.0
C      1  0.5254960000000  0.5580600000000  0.4401480000000 1.0
C      1  0.4695190000000  0.5571700000000  0.4384530000000 1.0
C      1  0.5283330000000  0.5557980000000  0.5642280000000 1.0
C      1  0.5267440000000  0.4327490000000  0.4767910000000 1.0
C      1  0.4728740000000  0.4376980000000  0.5244680000000 1.0
C      1  0.5307960000000  0.4249400000000  0.5333450000000 1.0
C      1  0.4674600000000  0.4321210000000  0.4710090000000 1.0
C      1  0.4862820000000  0.5155180000000  0.5881580000000 1.0
C      1  0.5131150000000  0.5210690000000  0.4123240000000 1.0
C      1  0.4839190000000  0.5214250000000  0.4073630000000 1.0
C      1  0.5147640000000  0.5138880000000  0.5894110000000 1.0
C      1  0.4825280000000  0.4118000000000  0.5108080000000 1.0
C      1  0.5182370000000  0.4064810000000  0.4902060000000 1.0
C      1  0.4785190000000  0.4085650000000  0.4863130000000 1.0
C      1  0.5211510000000  0.4037280000000  0.5172050000000 1.0
C      1  0.4501300000000  0.5510280000000  0.4757780000000 1.0
C      1  0.5608940000000  0.5579330000000  0.5177220000000 1.0
C      1  0.4501960000000  0.5526300000000  0.5240280000000 1.0
C      1  0.5494060000000  0.5513230000000  0.4715830000000 1.0
C      1  0.4605800000000  0.4575370000000  0.4325820000000 1.0
C      1  0.5284820000000  0.4591590000000  0.5682620000000 1.0
C      1  0.4633120000000  0.4596920000000  0.5631130000000 1.0
C      1  0.5326810000000  0.4557090000000  0.4326730000000 1.0
C      1  0.4605650000000  0.5250840000000  0.5171060000000 1.0
C      1  0.5327180000000  0.5234410000000  0.4822850000000 1.0
C      1  0.4665060000000  0.5232920000000  0.4851810000000 1.0
C      1  0.5450840000000  0.5287040000000  0.5111160000000 1.0
C      1  0.5145630000000  0.4364730000000  0.5544250000000 1.0
C      1  0.4847080000000  0.4365180000000  0.4442550000000 1.0
C      1  0.5137230000000  0.4367320000000  0.4474150000000 1.0
C      1  0.4858370000000  0.4368120000000  0.5534900000000 1.0
END
