TITL C-2782234-8014-443 -0.0340694143056908 125000 -811.833365669514 0 0 140 (C1) n - 1
REM
REM in /home/nfs/bkarasulu/CARBON/AIRSS/Generating-Clusters/REBO/Higher-Symm/SD-CG/HFTN-CG
REM
REM
REM
REM
REM
REM ./C.cell (12c818d87b63d06a65506943cc24bca4)
REM
REM compiler GCC version 9.2.1 20190827 (Red Hat 9.2.1-1)
REM options -cpp -mtune=generic -march=x86-64 -g -O0 -fpre-include=/usr/include/finclude/math-vector-fortran.h
REM seed -255199329 -1587238545 432721190 2006185695 -592279084 -227561354 1742156140 1967930715 -2084957091 -1351601863 821741783 327379281 -1911333174 632008363 1685806412 -1960161052 546452863 378503876 2094591168 681044925 8326320 -801792784 130980469 -444077011 648207524 803303287 -1625386033 1347812261 220537519 -1021291841 30119301 -65928021 1094501462
REM
CELL 1.54180   50.00000   50.00000   50.00000   90.00000   90.00000   90.00000
LATT -1
SFAC C  
C      1  0.4418920000000  0.5017110000000  0.4465300000000 1.0
C      1  0.4395870000000  0.4545230000000  0.5260480000000 1.0
C      1  0.4271450000000  0.5505950000000  0.5072040000000 1.0
C      1  0.5507670000000  0.5191970000000  0.5182220000000 1.0
C      1  0.5515300000000  0.5072120000000  0.4777990000000 1.0
C      1  0.5551940000000  0.4674690000000  0.5134790000000 1.0
C      1  0.5101020000000  0.3985840000000  0.4625160000000 1.0
C      1  0.5164700000000  0.5216050000000  0.6108370000000 1.0
C      1  0.5134980000000  0.5865260000000  0.4310140000000 1.0
C      1  0.5440800000000  0.5443260000000  0.5385880000000 1.0
C      1  0.5472420000000  0.5136980000000  0.4462760000000 1.0
C      1  0.5418340000000  0.4388420000000  0.5197030000000 1.0
C      1  0.4420930000000  0.4817220000000  0.5689580000000 1.0
C      1  0.4304450000000  0.5791490000000  0.4663550000000 1.0
C      1  0.4353810000000  0.4428580000000  0.4539390000000 1.0
C      1  0.4575930000000  0.5877950000000  0.4492660000000 1.0
C      1  0.4594790000000  0.4188520000000  0.4538970000000 1.0
C      1  0.4617240000000  0.4956330000000  0.5915030000000 1.0
C      1  0.4606290000000  0.5370350000000  0.4710480000000 1.0
C      1  0.4629560000000  0.4621150000000  0.4832440000000 1.0
C      1  0.4561600000000  0.5141890000000  0.5198710000000 1.0
C      1  0.5270050000000  0.4784130000000  0.4650890000000 1.0
C      1  0.5278910000000  0.4767520000000  0.5415170000000 1.0
C      1  0.5267910000000  0.5487820000000  0.5028060000000 1.0
C      1  0.5198660000000  0.5916360000000  0.4599760000000 1.0
C      1  0.5161750000000  0.4190320000000  0.4444680000000 1.0
C      1  0.5288810000000  0.4938860000000  0.6070810000000 1.0
C      1  0.5886860000000  0.5109180000000  0.5276130000000 1.0
C      1  0.5886110000000  0.5194150000000  0.4693130000000 1.0
C      1  0.5905570000000  0.4627560000000  0.4959330000000 1.0
C      1  0.5657480000000  0.4433780000000  0.5513440000000 1.0
C      1  0.5620740000000  0.5775570000000  0.5190610000000 1.0
C      1  0.5575920000000  0.4821460000000  0.4240000000000 1.0
C      1  0.4491660000000  0.5827680000000  0.5296110000000 1.0
C      1  0.4528230000000  0.4878190000000  0.4090570000000 1.0
C      1  0.4529840000000  0.4272500000000  0.5564330000000 1.0
C      1  0.4743240000000  0.5189880000000  0.4214020000000 1.0
C      1  0.4786720000000  0.4023120000000  0.5255820000000 1.0
C      1  0.4769830000000  0.5565770000000  0.5412740000000 1.0
C      1  0.5161510000000  0.5928620000000  0.5197140000000 1.0
C      1  0.5184550000000  0.4542220000000  0.4259220000000 1.0
C      1  0.5289740000000  0.4503220000000  0.5810040000000 1.0
C      1  0.4961450000000  0.4142680000000  0.5449110000000 1.0
C      1  0.4986840000000  0.5750360000000  0.5509340000000 1.0
C      1  0.5017040000000  0.5092680000000  0.4096670000000 1.0
C      1  0.4731380000000  0.5211550000000  0.5716950000000 1.0
C      1  0.4658360000000  0.5570060000000  0.4370890000000 1.0
C      1  0.4627740000000  0.4150080000000  0.4874250000000 1.0
C      1  0.4885630000000  0.5529860000000  0.4606910000000 1.0
C      1  0.4862900000000  0.4467000000000  0.4767540000000 1.0
C      1  0.4997140000000  0.5015650000000  0.5808500000000 1.0
C      1  0.4911520000000  0.3988510000000  0.4974800000000 1.0
C      1  0.4949830000000  0.5398510000000  0.5901860000000 1.0
C      1  0.4926310000000  0.5629100000000  0.4173520000000 1.0
C      1  0.4561030000000  0.5403090000000  0.5019350000000 1.0
C      1  0.4667040000000  0.4993730000000  0.4696290000000 1.0
C      1  0.4689480000000  0.4697660000000  0.5291470000000 1.0
C      1  0.4806210000000  0.4654530000000  0.4285240000000 1.0
C      1  0.4892420000000  0.4510270000000  0.5796220000000 1.0
C      1  0.4816570000000  0.5859190000000  0.4974930000000 1.0
C      1  0.5393550000000  0.5390350000000  0.4760140000000 1.0
C      1  0.5394140000000  0.4573260000000  0.4846790000000 1.0
C      1  0.5391900000000  0.5057070000000  0.5473380000000 1.0
C      1  0.4418430000000  0.5353330000000  0.4378680000000 1.0
C      1  0.4410360000000  0.4294410000000  0.5040880000000 1.0
C      1  0.4530620000000  0.5260280000000  0.5503180000000 1.0
C      1  0.4112920000000  0.5128520000000  0.4504720000000 1.0
C      1  0.4142180000000  0.4712430000000  0.5181770000000 1.0
C      1  0.4092250000000  0.5316230000000  0.5160990000000 1.0
C      1  0.5565370000000  0.4366990000000  0.4668800000000 1.0
C      1  0.5621050000000  0.5036750000000  0.5707780000000 1.0
C      1  0.5591160000000  0.5626100000000  0.4658840000000 1.0
C      1  0.4295510000000  0.5244390000000  0.4768250000000 1.0
C      1  0.4354730000000  0.4765440000000  0.4849540000000 1.0
C      1  0.4320240000000  0.5042350000000  0.4980300000000 1.0
C      1  0.5288440000000  0.5435390000000  0.5891090000000 1.0
C      1  0.5253550000000  0.5559040000000  0.4226970000000 1.0
C      1  0.5242470000000  0.4013820000000  0.4898860000000 1.0
C      1  0.4449480000000  0.5172600000000  0.4099850000000 1.0
C      1  0.4527060000000  0.4141970000000  0.5300510000000 1.0
C      1  0.4463680000000  0.5577940000000  0.5490080000000 1.0
C      1  0.4806690000000  0.4956810000000  0.4407930000000 1.0
C      1  0.4916960000000  0.4543150000000  0.5470450000000 1.0
C      1  0.4763060000000  0.5585900000000  0.5129660000000 1.0
C      1  0.4798100000000  0.5945280000000  0.5301040000000 1.0
C      1  0.4834540000000  0.4849810000000  0.4026350000000 1.0
C      1  0.4800520000000  0.4229810000000  0.5680040000000 1.0
C      1  0.5346300000000  0.4741560000000  0.4376590000000 1.0
C      1  0.5408380000000  0.4556110000000  0.5559880000000 1.0
C      1  0.5347480000000  0.5738320000000  0.5132660000000 1.0
C      1  0.4432280000000  0.4557770000000  0.5582740000000 1.0
C      1  0.4315250000000  0.5814270000000  0.5005200000000 1.0
C      1  0.4414050000000  0.4703430000000  0.4343120000000 1.0
C      1  0.5784230000000  0.4333470000000  0.5055180000000 1.0
C      1  0.5767900000000  0.5356290000000  0.5448130000000 1.0
C      1  0.5784760000000  0.5251770000000  0.4394300000000 1.0
C      1  0.4154800000000  0.5013870000000  0.5271200000000 1.0
C      1  0.3991050000000  0.5377450000000  0.4677080000000 1.0
C      1  0.4067610000000  0.4629740000000  0.4898620000000 1.0
C      1  0.5552750000000  0.4925470000000  0.5984580000000 1.0
C      1  0.5460370000000  0.5900160000000  0.4675500000000 1.0
C      1  0.5424220000000  0.4262120000000  0.4420260000000 1.0
C      1  0.5818750000000  0.5644170000000  0.5321000000000 1.0
C      1  0.5773030000000  0.5001490000000  0.4201800000000 1.0
C      1  0.5810110000000  0.4305340000000  0.5328870000000 1.0
C      1  0.5519960000000  0.5465880000000  0.4388250000000 1.0
C      1  0.5489930000000  0.4198120000000  0.4945190000000 1.0
C      1  0.5533790000000  0.5354650000000  0.5698390000000 1.0
C      1  0.5849310000000  0.4920630000000  0.5546630000000 1.0
C      1  0.5832250000000  0.5505800000000  0.4806100000000 1.0
C      1  0.5794640000000  0.4570130000000  0.4654340000000 1.0
C      1  0.4982730000000  0.4871990000000  0.5287250000000 1.0
C      1  0.5045290000000  0.5310280000000  0.5065690000000 1.0
C      1  0.4987570000000  0.4901840000000  0.4757660000000 1.0
C      1  0.4790280000000  0.3944690000000  0.4657440000000 1.0
C      1  0.4833380000000  0.5139650000000  0.6092180000000 1.0
C      1  0.4802410000000  0.5928760000000  0.4276810000000 1.0
C      1  0.5121850000000  0.4372100000000  0.5295710000000 1.0
C      1  0.5208620000000  0.5560500000000  0.5591440000000 1.0
C      1  0.5226980000000  0.5226020000000  0.4262870000000 1.0
C      1  0.5782530000000  0.5253710000000  0.5013750000000 1.0
C      1  0.5801420000000  0.4888460000000  0.4765710000000 1.0
C      1  0.5835500000000  0.4774470000000  0.5244430000000 1.0
C      1  0.4950480000000  0.4426480000000  0.4472730000000 1.0
C      1  0.5098440000000  0.4732470000000  0.5920610000000 1.0
C      1  0.4993670000000  0.5783390000000  0.4748370000000 1.0
C      1  0.5139500000000  0.5227530000000  0.5583550000000 1.0
C      1  0.5141400000000  0.5347370000000  0.4556580000000 1.0
C      1  0.5098480000000  0.4480670000000  0.4978430000000 1.0
C      1  0.4659890000000  0.4645410000000  0.5959810000000 1.0
C      1  0.4566610000000  0.5938090000000  0.4824860000000 1.0
C      1  0.4590460000000  0.4415160000000  0.4301440000000 1.0
C      1  0.4201720000000  0.5544700000000  0.4524980000000 1.0
C      1  0.4220750000000  0.4392290000000  0.4806960000000 1.0
C      1  0.4323740000000  0.5027240000000  0.5517500000000 1.0
C      1  0.4989480000000  0.5203290000000  0.4805830000000 1.0
C      1  0.5116390000000  0.4800710000000  0.5019630000000 1.0
C      1  0.4992720000000  0.5175080000000  0.5308520000000 1.0
C      1  0.5392130000000  0.4924690000000  0.5035850000000 1.0
C      1  0.4688010000000  0.4898170000000  0.5022120000000 1.0
END
