TITL C-2782236-320-154 -0.00347930470063524 125000 -566.910515310927 0 0 99 (C1) n - 1
REM
REM in /home/nfs/bkarasulu/CARBON/AIRSS/Generating-Clusters/REBO/Higher-Symm/SD-CG/HFTN-CG
REM
REM
REM
REM
REM
REM ./C.cell (12c818d87b63d06a65506943cc24bca4)
REM
REM compiler GCC version 9.2.1 20190827 (Red Hat 9.2.1-1)
REM options -cpp -mtune=generic -march=x86-64 -g -O0 -fpre-include=/usr/include/finclude/math-vector-fortran.h
REM seed 745762387 1793750300 1443759121 -1109290079 2076199940 1885653351 -1922918202 1333071662 -398969655 182245015 1757499701 -194210585 1810416205 -29162102 -1836194578 -659642723 -410038867 -1930016876 865426858 -865724575 -105306176 42117341 280206885 -1027917436 191325840 1452819708 -768721449 422500551 -423323206 1344513122 1997449736 1064640632 -1976548306
REM
CELL 1.54180   50.00000   50.00000   50.00000   90.00000   90.00000   90.00000
LATT -1
SFAC C  
C      1  0.4885990000000  0.5422130000000  0.4410750000000 1.0
C      1  0.4907170000000  0.5714720000000  0.5226500000000 1.0
C      1  0.4870730000000  0.5073560000000  0.5722850000000 1.0
C      1  0.4864400000000  0.4340490000000  0.5223850000000 1.0
C      1  0.4865850000000  0.4530340000000  0.4409950000000 1.0
C      1  0.4575250000000  0.4613960000000  0.5188850000000 1.0
C      1  0.4559030000000  0.4652300000000  0.4631040000000 1.0
C      1  0.4670960000000  0.5304540000000  0.4636400000000 1.0
C      1  0.4723960000000  0.5372860000000  0.5135590000000 1.0
C      1  0.4678150000000  0.5017370000000  0.5385480000000 1.0
C      1  0.5413010000000  0.5428510000000  0.4461410000000 1.0
C      1  0.5447240000000  0.5685510000000  0.5237870000000 1.0
C      1  0.5424800000000  0.5019660000000  0.5684240000000 1.0
C      1  0.5426670000000  0.4363760000000  0.5204190000000 1.0
C      1  0.5433040000000  0.4561270000000  0.4449130000000 1.0
C      1  0.5172660000000  0.4237720000000  0.4786510000000 1.0
C      1  0.5170900000000  0.4967360000000  0.4272080000000 1.0
C      1  0.5145920000000  0.5779010000000  0.4746460000000 1.0
C      1  0.5156320000000  0.5514750000000  0.5600330000000 1.0
C      1  0.5144130000000  0.4606870000000  0.5616780000000 1.0
C      1  0.5202760000000  0.5192560000000  0.5371610000000 1.0
C      1  0.5206800000000  0.4708400000000  0.5237360000000 1.0
C      1  0.5008580000000  0.4599540000000  0.4757670000000 1.0
C      1  0.5023130000000  0.5049140000000  0.4632120000000 1.0
C      1  0.5203170000000  0.5445340000000  0.4954890000000 1.0
C      1  0.5975510000000  0.5393700000000  0.5060960000000 1.0
C      1  0.5949960000000  0.5012920000000  0.5312230000000 1.0
C      1  0.5979970000000  0.4588500000000  0.5120470000000 1.0
C      1  0.5816670000000  0.4851830000000  0.4868130000000 1.0
C      1  0.5917640000000  0.5206020000000  0.4712540000000 1.0
C      1  0.5160200000000  0.4421500000000  0.4514930000000 1.0
C      1  0.5156820000000  0.5261670000000  0.4399930000000 1.0
C      1  0.5173490000000  0.5751170000000  0.5073060000000 1.0
C      1  0.5151830000000  0.5204580000000  0.5699250000000 1.0
C      1  0.5139980000000  0.4406900000000  0.5352380000000 1.0
C      1  0.4286930000000  0.4669980000000  0.4543440000000 1.0
C      1  0.4366330000000  0.5374230000000  0.4634730000000 1.0
C      1  0.4460730000000  0.5334890000000  0.5237410000000 1.0
C      1  0.4392500000000  0.4937860000000  0.5546280000000 1.0
C      1  0.4304280000000  0.4465390000000  0.5163300000000 1.0
C      1  0.4711620000000  0.4519320000000  0.5472520000000 1.0
C      1  0.4689010000000  0.4343540000000  0.4636220000000 1.0
C      1  0.4708150000000  0.5140870000000  0.4333730000000 1.0
C      1  0.4717660000000  0.5659460000000  0.4965360000000 1.0
C      1  0.4720450000000  0.5318570000000  0.5540270000000 1.0
C      1  0.4402480000000  0.4216920000000  0.4680020000000 1.0
C      1  0.4425140000000  0.5089730000000  0.4235630000000 1.0
C      1  0.4432320000000  0.5756030000000  0.4962990000000 1.0
C      1  0.4450300000000  0.5415830000000  0.5635980000000 1.0
C      1  0.4462830000000  0.4428570000000  0.5632060000000 1.0
C      1  0.4188340000000  0.5432850000000  0.5422190000000 1.0
C      1  0.4280070000000  0.4691480000000  0.5621970000000 1.0
C      1  0.4228600000000  0.4332530000000  0.4931120000000 1.0
C      1  0.4215420000000  0.4897710000000  0.4394270000000 1.0
C      1  0.4244470000000  0.5560320000000  0.4796280000000 1.0
C      1  0.4208320000000  0.4436010000000  0.5431920000000 1.0
C      1  0.4160450000000  0.4424480000000  0.4625180000000 1.0
C      1  0.4224090000000  0.5220490000000  0.4444350000000 1.0
C      1  0.4222920000000  0.5550970000000  0.5125350000000 1.0
C      1  0.4251080000000  0.5168890000000  0.5620920000000 1.0
C      1  0.4890850000000  0.4854970000000  0.4308530000000 1.0
C      1  0.4858600000000  0.5657110000000  0.4655970000000 1.0
C      1  0.4908900000000  0.5556530000000  0.5466030000000 1.0
C      1  0.4864930000000  0.4765050000000  0.5631480000000 1.0
C      1  0.4887320000000  0.4240690000000  0.4894710000000 1.0
C      1  0.5726930000000  0.4626280000000  0.5195970000000 1.0
C      1  0.5597490000000  0.4735690000000  0.4768070000000 1.0
C      1  0.5673670000000  0.5177080000000  0.4617070000000 1.0
C      1  0.5722260000000  0.5499180000000  0.5016480000000 1.0
C      1  0.5725490000000  0.5115430000000  0.5440020000000 1.0
C      1  0.4969540000000  0.5251460000000  0.5215120000000 1.0
C      1  0.4979960000000  0.4865910000000  0.5328660000000 1.0
C      1  0.4780150000000  0.4540680000000  0.4968100000000 1.0
C      1  0.4743600000000  0.4856410000000  0.4604780000000 1.0
C      1  0.4957600000000  0.5380270000000  0.4811530000000 1.0
C      1  0.5587360000000  0.4439140000000  0.4713890000000 1.0
C      1  0.5529080000000  0.5129430000000  0.4341470000000 1.0
C      1  0.5539870000000  0.5736280000000  0.4913240000000 1.0
C      1  0.5576740000000  0.5320210000000  0.5629210000000 1.0
C      1  0.5568880000000  0.4541750000000  0.5457160000000 1.0
C      1  0.5428370000000  0.5552670000000  0.5495430000000 1.0
C      1  0.5407120000000  0.4734770000000  0.5624760000000 1.0
C      1  0.5422430000000  0.4297990000000  0.4920540000000 1.0
C      1  0.5426630000000  0.4823380000000  0.4326560000000 1.0
C      1  0.5400390000000  0.5655770000000  0.4638830000000 1.0
C      1  0.5357470000000  0.5082080000000  0.4695700000000 1.0
C      1  0.5463860000000  0.5349710000000  0.4970860000000 1.0
C      1  0.5459320000000  0.5127340000000  0.5300940000000 1.0
C      1  0.5463440000000  0.4762840000000  0.5142630000000 1.0
C      1  0.5267240000000  0.4784050000000  0.4798070000000 1.0
C      1  0.3962590000000  0.5065850000000  0.4709120000000 1.0
C      1  0.4684060000000  0.4913560000000  0.5070290000000 1.0
C      1  0.4210460000000  0.5047700000000  0.4804790000000 1.0
C      1  0.4963570000000  0.4892030000000  0.4930310000000 1.0
C      1  0.6324550000000  0.4993000000000  0.4963550000000 1.0
C      1  0.3718660000000  0.5083710000000  0.4614970000000 1.0
C      1  0.4457020000000  0.5029630000000  0.4899960000000 1.0
C      1  0.6049930000000  0.5065520000000  0.4998130000000 1.0
C      1  0.5491070000000  0.5041040000000  0.5001480000000 1.0
END
