TITL C-2782237-5345-1365 -0.00250292371433352 125000 -1155.40337296549 0 0 199 (C1) n - 1
REM
REM in /home/nfs/bkarasulu/CARBON/AIRSS/Generating-Clusters/REBO/Higher-Symm/SD-CG/HFTN-CG
REM
REM
REM
REM
REM
REM ./C.cell (12c818d87b63d06a65506943cc24bca4)
REM
REM compiler GCC version 9.2.1 20190827 (Red Hat 9.2.1-1)
REM options -cpp -mtune=generic -march=x86-64 -g -O0 -fpre-include=/usr/include/finclude/math-vector-fortran.h
REM seed -1589166832 1170609192 501258183 -1232005931 -1257404292 1974999468 -857487820 -708665605 -234880359 1424873918 1857411659 -1372589560 1147329468 679666096 1161351531 -2087773080 -409521767 1933645482 -1500693064 -460600443 718086940 -119750679 -506155439 241977270 1256843527 663503345 1843058906 1921470970 -546833953 -177345024 -2096999538 751352069 -187456251
REM
CELL 1.54180   50.00000   50.00000   50.00000   90.00000   90.00000   90.00000
LATT -1
SFAC C  
C      1  0.4498850000000  0.6014690000000  0.4732660000000 1.0
C      1  0.4415890000000  0.4349850000000  0.4191930000000 1.0
C      1  0.4468850000000  0.4676410000000  0.5948260000000 1.0
C      1  0.4616010000000  0.4367230000000  0.3990050000000 1.0
C      1  0.4650430000000  0.4482490000000  0.6043660000000 1.0
C      1  0.4713690000000  0.6147020000000  0.4870270000000 1.0
C      1  0.4590790000000  0.5716970000000  0.5581000000000 1.0
C      1  0.4616570000000  0.5180830000000  0.4009100000000 1.0
C      1  0.4645050000000  0.4053140000000  0.5317760000000 1.0
C      1  0.4265730000000  0.5161230000000  0.4523430000000 1.0
C      1  0.4060940000000  0.4503080000000  0.5129170000000 1.0
C      1  0.4303090000000  0.5319700000000  0.5349710000000 1.0
C      1  0.5877900000000  0.4959350000000  0.4676660000000 1.0
C      1  0.5853930000000  0.4791150000000  0.5239870000000 1.0
C      1  0.5860460000000  0.5328660000000  0.5102180000000 1.0
C      1  0.4049880000000  0.5318690000000  0.4735040000000 1.0
C      1  0.3958730000000  0.4598720000000  0.4839930000000 1.0
C      1  0.3961070000000  0.5059450000000  0.5502140000000 1.0
C      1  0.4365500000000  0.4901060000000  0.5401680000000 1.0
C      1  0.4359390000000  0.5339830000000  0.4864410000000 1.0
C      1  0.4380880000000  0.4638100000000  0.4644020000000 1.0
C      1  0.5830580000000  0.5656640000000  0.5056380000000 1.0
C      1  0.5874400000000  0.4730370000000  0.4457650000000 1.0
C      1  0.5866310000000  0.4634040000000  0.5524530000000 1.0
C      1  0.5185890000000  0.5299600000000  0.5208350000000 1.0
C      1  0.5148280000000  0.5004950000000  0.4660100000000 1.0
C      1  0.5345580000000  0.4839580000000  0.5221570000000 1.0
C      1  0.5176170000000  0.4550010000000  0.4812620000000 1.0
C      1  0.5122370000000  0.5054510000000  0.5647530000000 1.0
C      1  0.5107300000000  0.5510620000000  0.4800650000000 1.0
C      1  0.4251870000000  0.5486180000000  0.5709440000000 1.0
C      1  0.4231880000000  0.5384460000000  0.4193460000000 1.0
C      1  0.4287430000000  0.4078910000000  0.5029200000000 1.0
C      1  0.3846350000000  0.4832070000000  0.5062730000000 1.0
C      1  0.3900240000000  0.5146630000000  0.5191130000000 1.0
C      1  0.3865920000000  0.5091200000000  0.4857270000000 1.0
C      1  0.5047920000000  0.4038840000000  0.5672350000000 1.0
C      1  0.5002170000000  0.6013320000000  0.5503760000000 1.0
C      1  0.5025030000000  0.4884720000000  0.3863470000000 1.0
C      1  0.5012700000000  0.5305280000000  0.5469760000000 1.0
C      1  0.5037060000000  0.5288180000000  0.4566180000000 1.0
C      1  0.5008890000000  0.4352520000000  0.5004410000000 1.0
C      1  0.5038430000000  0.5279230000000  0.4978690000000 1.0
C      1  0.5036960000000  0.4785470000000  0.4771850000000 1.0
C      1  0.5118150000000  0.4934370000000  0.5353660000000 1.0
C      1  0.5715810000000  0.4851410000000  0.5708080000000 1.0
C      1  0.5677400000000  0.5667540000000  0.4771370000000 1.0
C      1  0.5707240000000  0.4475210000000  0.4572150000000 1.0
C      1  0.5153000000000  0.4032880000000  0.4542280000000 1.0
C      1  0.5191740000000  0.5069460000000  0.6040480000000 1.0
C      1  0.5157530000000  0.5909350000000  0.4317820000000 1.0
C      1  0.4185030000000  0.5625820000000  0.5439480000000 1.0
C      1  0.4216990000000  0.5145870000000  0.4126990000000 1.0
C      1  0.4224020000000  0.4242760000000  0.5237770000000 1.0
C      1  0.4941930000000  0.5862650000000  0.4148370000000 1.0
C      1  0.4978590000000  0.3875530000000  0.4675070000000 1.0
C      1  0.5016690000000  0.5290350000000  0.6044300000000 1.0
C      1  0.4334090000000  0.4622770000000  0.5264450000000 1.0
C      1  0.4399920000000  0.5523040000000  0.5119380000000 1.0
C      1  0.4357710000000  0.4878400000000  0.4445180000000 1.0
C      1  0.5473890000000  0.5025670000000  0.5986310000000 1.0
C      1  0.5453890000000  0.5784250000000  0.4434580000000 1.0
C      1  0.5449620000000  0.4155140000000  0.4620760000000 1.0
C      1  0.4599470000000  0.4733720000000  0.4161990000000 1.0
C      1  0.4627270000000  0.4385230000000  0.5647960000000 1.0
C      1  0.4659520000000  0.5826210000000  0.5102340000000 1.0
C      1  0.5557370000000  0.4698660000000  0.5931770000000 1.0
C      1  0.5595950000000  0.5965660000000  0.4687950000000 1.0
C      1  0.5536670000000  0.4348050000000  0.4351100000000 1.0
C      1  0.4694640000000  0.4539090000000  0.4653300000000 1.0
C      1  0.4667810000000  0.4914930000000  0.5568690000000 1.0
C      1  0.4701370000000  0.5459430000000  0.4696800000000 1.0
C      1  0.5930460000000  0.4286770000000  0.4733110000000 1.0
C      1  0.5936270000000  0.5102880000000  0.5754360000000 1.0
C      1  0.5892300000000  0.5559590000000  0.4545830000000 1.0
C      1  0.5400410000000  0.4570080000000  0.5284660000000 1.0
C      1  0.5417420000000  0.5467820000000  0.5259040000000 1.0
C      1  0.5387200000000  0.4959400000000  0.4510440000000 1.0
C      1  0.4167480000000  0.4556170000000  0.4304590000000 1.0
C      1  0.4225580000000  0.4638630000000  0.5713340000000 1.0
C      1  0.4266850000000  0.5868710000000  0.4893080000000 1.0
C      1  0.4378410000000  0.5637460000000  0.4342420000000 1.0
C      1  0.4304940000000  0.4101110000000  0.4762970000000 1.0
C      1  0.4382840000000  0.5274690000000  0.5859020000000 1.0
C      1  0.5689810000000  0.5068910000000  0.5353290000000 1.0
C      1  0.5654670000000  0.5242770000000  0.4847780000000 1.0
C      1  0.5700800000000  0.4800230000000  0.4871890000000 1.0
C      1  0.5351980000000  0.5233490000000  0.4044070000000 1.0
C      1  0.5385470000000  0.4065010000000  0.5281150000000 1.0
C      1  0.5488590000000  0.5863190000000  0.5799630000000 1.0
C      1  0.4336790000000  0.5831880000000  0.5215090000000 1.0
C      1  0.4275560000000  0.4815220000000  0.4139750000000 1.0
C      1  0.4332370000000  0.4403730000000  0.5518890000000 1.0
C      1  0.5715310000000  0.4854200000000  0.4183740000000 1.0
C      1  0.5742670000000  0.4348540000000  0.5532640000000 1.0
C      1  0.5719140000000  0.5842130000000  0.5319330000000 1.0
C      1  0.5040460000000  0.4808800000000  0.5952310000000 1.0
C      1  0.5071660000000  0.5857590000000  0.4612870000000 1.0
C      1  0.5018100000000  0.4243870000000  0.4389190000000 1.0
C      1  0.5841030000000  0.4507990000000  0.4982140000000 1.0
C      1  0.5881530000000  0.5299460000000  0.5496800000000 1.0
C      1  0.5838040000000  0.5238600000000  0.4559580000000 1.0
C      1  0.5220700000000  0.4310460000000  0.5907810000000 1.0
C      1  0.5261400000000  0.6045500000000  0.5057210000000 1.0
C      1  0.5181890000000  0.4551750000000  0.4017250000000 1.0
C      1  0.4681840000000  0.4438900000000  0.4960460000000 1.0
C      1  0.4563800000000  0.5233770000000  0.5488690000000 1.0
C      1  0.4540720000000  0.5308730000000  0.4509250000000 1.0
C      1  0.6048950000000  0.4606910000000  0.4729320000000 1.0
C      1  0.6039430000000  0.4933020000000  0.5488980000000 1.0
C      1  0.6017000000000  0.5468070000000  0.4833680000000 1.0
C      1  0.4836630000000  0.4521230000000  0.4282890000000 1.0
C      1  0.4853920000000  0.4626580000000  0.5734460000000 1.0
C      1  0.4945890000000  0.5784380000000  0.4923040000000 1.0
C      1  0.5363070000000  0.3856620000000  0.5039010000000 1.0
C      1  0.5272450000000  0.5710780000000  0.5861260000000 1.0
C      1  0.5212480000000  0.5494560000000  0.4121750000000 1.0
C      1  0.5423170000000  0.5464810000000  0.4759340000000 1.0
C      1  0.5498380000000  0.4565840000000  0.4785680000000 1.0
C      1  0.5449700000000  0.5003530000000  0.5570910000000 1.0
C      1  0.5024520000000  0.4376570000000  0.5637230000000 1.0
C      1  0.5048970000000  0.5854240000000  0.5225690000000 1.0
C      1  0.4994290000000  0.4784870000000  0.4187940000000 1.0
C      1  0.3866540000000  0.4645880000000  0.5339420000000 1.0
C      1  0.4018040000000  0.5448510000000  0.5200410000000 1.0
C      1  0.3988840000000  0.4968490000000  0.4570560000000 1.0
C      1  0.5547820000000  0.4373260000000  0.5815170000000 1.0
C      1  0.5600680000000  0.5986520000000  0.5034640000000 1.0
C      1  0.5516520000000  0.4586630000000  0.4100170000000 1.0
C      1  0.4905640000000  0.4411450000000  0.5321530000000 1.0
C      1  0.4890810000000  0.5557240000000  0.5280750000000 1.0
C      1  0.4902890000000  0.5064320000000  0.4353220000000 1.0
C      1  0.4492620000000  0.4731450000000  0.4934350000000 1.0
C      1  0.4588610000000  0.5055810000000  0.5206620000000 1.0
C      1  0.4494000000000  0.5076680000000  0.4909550000000 1.0
C      1  0.4571910000000  0.5861230000000  0.4503020000000 1.0
C      1  0.4449970000000  0.4138660000000  0.4457290000000 1.0
C      1  0.4560420000000  0.4996490000000  0.5944130000000 1.0
C      1  0.6081960000000  0.4825330000000  0.4988870000000 1.0
C      1  0.6092420000000  0.5101950000000  0.5196840000000 1.0
C      1  0.6104150000000  0.5139670000000  0.4854580000000 1.0
C      1  0.5261510000000  0.4152750000000  0.4907400000000 1.0
C      1  0.5231470000000  0.5466400000000  0.5652330000000 1.0
C      1  0.5226090000000  0.5530810000000  0.4419320000000 1.0
C      1  0.4685110000000  0.4118050000000  0.5043400000000 1.0
C      1  0.4660930000000  0.5464190000000  0.5648430000000 1.0
C      1  0.4626790000000  0.5344350000000  0.4237840000000 1.0
C      1  0.5446180000000  0.4388460000000  0.5054190000000 1.0
C      1  0.5492310000000  0.5342500000000  0.5567450000000 1.0
C      1  0.5443450000000  0.5247460000000  0.4508690000000 1.0
C      1  0.4698620000000  0.5900000000000  0.5410570000000 1.0
C      1  0.4705410000000  0.4928580000000  0.3953040000000 1.0
C      1  0.4732560000000  0.4114380000000  0.5569380000000 1.0
C      1  0.5433610000000  0.5689560000000  0.5087140000000 1.0
C      1  0.5402630000000  0.4721760000000  0.4391990000000 1.0
C      1  0.5380200000000  0.4513990000000  0.5552720000000 1.0
C      1  0.4306260000000  0.4968560000000  0.5728770000000 1.0
C      1  0.4304500000000  0.5615340000000  0.4668590000000 1.0
C      1  0.4233310000000  0.4365140000000  0.4568560000000 1.0
C      1  0.5657630000000  0.4169180000000  0.4892900000000 1.0
C      1  0.5642400000000  0.5219860000000  0.5841900000000 1.0
C      1  0.5618030000000  0.5496070000000  0.4353360000000 1.0
C      1  0.5305480000000  0.6116160000000  0.5458130000000 1.0
C      1  0.5331800000000  0.4848830000000  0.3798900000000 1.0
C      1  0.5369540000000  0.4004530000000  0.5735390000000 1.0
C      1  0.4698210000000  0.5371770000000  0.5954940000000 1.0
C      1  0.4678110000000  0.5660160000000  0.4174730000000 1.0
C      1  0.4872690000000  0.3932110000000  0.4928380000000 1.0
C      1  0.4697070000000  0.5491660000000  0.5014690000000 1.0
C      1  0.4688470000000  0.4831690000000  0.4478940000000 1.0
C      1  0.4647370000000  0.4619050000000  0.5400550000000 1.0
C      1  0.4959480000000  0.6178660000000  0.4984800000000 1.0
C      1  0.4884890000000  0.4428100000000  0.3900950000000 1.0
C      1  0.4902450000000  0.4358430000000  0.6025350000000 1.0
C      1  0.5224690000000  0.4443790000000  0.4322450000000 1.0
C      1  0.5250800000000  0.4631860000000  0.5844530000000 1.0
C      1  0.5317230000000  0.5847070000000  0.4803180000000 1.0
C      1  0.3992220000000  0.4682690000000  0.4567140000000 1.0
C      1  0.3981250000000  0.4789780000000  0.5559410000000 1.0
C      1  0.4060650000000  0.5597290000000  0.4916640000000 1.0
C      1  0.4796000000000  0.4819510000000  0.4945510000000 1.0
C      1  0.4877910000000  0.4929720000000  0.5229870000000 1.0
C      1  0.4822670000000  0.5133500000000  0.4891810000000 1.0
C      1  0.4717210000000  0.4283990000000  0.4472770000000 1.0
C      1  0.4844120000000  0.5013690000000  0.5814800000000 1.0
C      1  0.4799320000000  0.5696670000000  0.4565340000000 1.0
C      1  0.5063050000000  0.4110800000000  0.5345950000000 1.0
C      1  0.4988810000000  0.5686790000000  0.5582260000000 1.0
C      1  0.5012430000000  0.5160400000000  0.4056990000000 1.0
C      1  0.4955810000000  0.5593010000000  0.5908220000000 1.0
C      1  0.4926330000000  0.5487710000000  0.4018880000000 1.0
C      1  0.5065550000000  0.3884540000000  0.5129540000000 1.0
C      1  0.5773270000000  0.4260380000000  0.5205420000000 1.0
C      1  0.5856020000000  0.5565670000000  0.5442560000000 1.0
C      1  0.5733050000000  0.5188560000000  0.4246410000000 1.0
C      1  0.5490180000000  0.4998320000000  0.3973610000000 1.0
C      1  0.5531900000000  0.4092400000000  0.5522680000000 1.0
C      1  0.5528150000000  0.5972330000000  0.5538560000000 1.0
C      1  0.5566530000000  0.5002250000000  0.5059240000000 1.0
END
