TITL C-2782226-7400-255 0.00895016480142409 125000 -75.583608192457 0 0 15 (Cs) n - 1
REM
REM in /home/nfs/bkarasulu/CARBON/AIRSS/Generating-Clusters/REBO/Higher-Symm/SD-CG/HFTN-CG
REM
REM
REM
REM
REM
REM ./C.cell (12c818d87b63d06a65506943cc24bca4)
REM
REM compiler GCC version 9.2.1 20190827 (Red Hat 9.2.1-1)
REM options -cpp -mtune=generic -march=x86-64 -g -O0 -fpre-include=/usr/include/finclude/math-vector-fortran.h
REM seed 384844755 1884089392 1598039334 -272164349 -1450429082 1402633462 1376168301 -30444591 122354150 -921680290 270340241 1871104559 -199224962 1468038094 791995703 1105952477 -304682313 992024630 -791163034 -720029795 -483539761 540768935 -734177635 1973692587 1376819121 -1981072120 -1655555802 -849140162 875294097 655096720 -227338922 1005612416 1175308169
REM
CELL 1.54180   50.00000   50.00000   50.00000   90.00000   90.00000   90.00000
LATT -1
SFAC C  
C      1  0.5220180000000  0.4663300000000  0.5099610000000 1.0
C      1  0.5246430000000  0.5325220000000  0.4900890000000 1.0
C      1  0.4755680000000  0.4667420000000  0.4926920000000 1.0
C      1  0.4750810000000  0.5287660000000  0.5083380000000 1.0
C      1  0.5246440000000  0.5082750000000  0.4658420000000 1.0
C      1  0.5220170000000  0.4884040000000  0.5320340000000 1.0
C      1  0.4750830000000  0.4900240000000  0.4695960000000 1.0
C      1  0.4755660000000  0.5056700000000  0.5316200000000 1.0
C      1  0.4982090000000  0.4973680000000  0.5437580000000 1.0
C      1  0.5001420000000  0.4957920000000  0.4517960000000 1.0
C      1  0.5001390000000  0.5465670000000  0.5025700000000 1.0
C      1  0.4982110000000  0.4546050000000  0.5009960000000 1.0
C      1  0.4632490000000  0.4973020000000  0.5010590000000 1.0
C      1  0.5322600000000  0.4988970000000  0.4994680000000 1.0
C      1  0.4993480000000  0.5090160000000  0.4893460000000 1.0
END
