TITL C-2782237-5345-714 0.00246258632614707 125000 -358.785721054716 0 0 64 (C3) n - 1
REM
REM in /home/nfs/bkarasulu/CARBON/AIRSS/Generating-Clusters/REBO/Higher-Symm/SD-CG/HFTN-CG
REM
REM
REM
REM
REM
REM ./C.cell (12c818d87b63d06a65506943cc24bca4)
REM
REM compiler GCC version 9.2.1 20190827 (Red Hat 9.2.1-1)
REM options -cpp -mtune=generic -march=x86-64 -g -O0 -fpre-include=/usr/include/finclude/math-vector-fortran.h
REM seed -328055460 -1198210486 2015788016 -2079630873 -2034262103 190844659 -114715036 1958949397 755574360 658930554 -409446720 1961688731 357155877 1246308439 1480022955 799445795 782693532 323252020 155548219 1461367339 -1880868318 -904940628 800298841 -227261988 495645707 358998680 2077010358 1061028792 -3210280 -613937000 -1815354850 911840760 1567708420
REM
CELL 1.54180   50.00000   50.00000   50.00000   90.00000   90.00000   90.00000
LATT -1
SFAC C  
C      1  0.4576270000000  0.4982840000000  0.4772570000000 1.0
C      1  0.4576270000000  0.4803140000000  0.5126480000000 1.0
C      1  0.4576280000000  0.5199480000000  0.5105150000000 1.0
C      1  0.5054120000000  0.5267960000000  0.5148720000000 1.0
C      1  0.5054110000000  0.4986320000000  0.4691470000000 1.0
C      1  0.5054110000000  0.4731150000000  0.5164000000000 1.0
C      1  0.4613160000000  0.5153640000000  0.4492040000000 1.0
C      1  0.4613150000000  0.4474790000000  0.5118830000000 1.0
C      1  0.4613170000000  0.5357040000000  0.5393330000000 1.0
C      1  0.5125910000000  0.4586500000000  0.5658080000000 1.0
C      1  0.5125930000000  0.5768170000000  0.5026960000000 1.0
C      1  0.5125900000000  0.4630770000000  0.4319160000000 1.0
C      1  0.4929450000000  0.5182110000000  0.4473660000000 1.0
C      1  0.4929440000000  0.4444630000000  0.5103350000000 1.0
C      1  0.4929460000000  0.5358700000000  0.5427180000000 1.0
C      1  0.5714460000000  0.5410880000000  0.4803370000000 1.0
C      1  0.5714440000000  0.4615770000000  0.4740360000000 1.0
C      1  0.5714450000000  0.4958760000000  0.5460450000000 1.0
C      1  0.5343880000000  0.4764370000000  0.4446540000000 1.0
C      1  0.5343880000000  0.4630010000000  0.5478680000000 1.0
C      1  0.5343900000000  0.5591050000000  0.5078970000000 1.0
C      1  0.5310360000000  0.4506770000000  0.5215790000000 1.0
C      1  0.5310380000000  0.5425000000000  0.5317140000000 1.0
C      1  0.5310360000000  0.5053660000000  0.4471260000000 1.0
C      1  0.4686920000000  0.4851840000000  0.4379370000000 1.0
C      1  0.4686920000000  0.4528110000000  0.5436530000000 1.0
C      1  0.4686940000000  0.5605510000000  0.5188300000000 1.0
C      1  0.5015950000000  0.4271150000000  0.4896260000000 1.0
C      1  0.5015970000000  0.5266090000000  0.5680970000000 1.0
C      1  0.5015960000000  0.5448200000000  0.4426970000000 1.0
C      1  0.4905800000000  0.4426130000000  0.5569050000000 1.0
C      1  0.4905810000000  0.5771260000000  0.5210360000000 1.0
C      1  0.4905790000000  0.4788060000000  0.4224790000000 1.0
C      1  0.4617760000000  0.4629820000000  0.4592710000000 1.0
C      1  0.4617770000000  0.4823880000000  0.5522140000000 1.0
C      1  0.4617780000000  0.5531760000000  0.4889360000000 1.0
C      1  0.5302820000000  0.5041250000000  0.5203200000000 1.0
C      1  0.5302820000000  0.5146860000000  0.4860560000000 1.0
C      1  0.5302820000000  0.4797320000000  0.4940420000000 1.0
C      1  0.4789660000000  0.5101350000000  0.5814090000000 1.0
C      1  0.4789660000000  0.5645860000000  0.4503080000000 1.0
C      1  0.4789640000000  0.4238240000000  0.4687020000000 1.0
C      1  0.4531520000000  0.4381360000000  0.4808650000000 1.0
C      1  0.4531540000000  0.5135130000000  0.5629340000000 1.0
C      1  0.4531530000000  0.5468980000000  0.4566210000000 1.0
C      1  0.5432960000000  0.4929150000000  0.5458180000000 1.0
C      1  0.5432970000000  0.5423730000000  0.4830150000000 1.0
C      1  0.5432950000000  0.4632540000000  0.4715850000000 1.0
C      1  0.5386370000000  0.5300030000000  0.4403430000000 1.0
C      1  0.5386360000000  0.4324850000000  0.5036340000000 1.0
C      1  0.5386380000000  0.5360550000000  0.5564410000000 1.0
C      1  0.5293400000000  0.5558170000000  0.4574570000000 1.0
C      1  0.5293380000000  0.4343990000000  0.4727220000000 1.0
C      1  0.5293400000000  0.5083270000000  0.5702400000000 1.0
C      1  0.4420960000000  0.4700660000000  0.4851240000000 1.0
C      1  0.4420970000000  0.5012360000000  0.5331520000000 1.0
C      1  0.4420970000000  0.5272450000000  0.4821440000000 1.0
C      1  0.4931180000000  0.4843850000000  0.5425360000000 1.0
C      1  0.4931190000000  0.5437960000000  0.4920440000000 1.0
C      1  0.4931170000000  0.4703630000000  0.4658390000000 1.0
C      1  0.5036440000000  0.4876300000000  0.5748370000000 1.0
C      1  0.5036440000000  0.5701460000000  0.4730840000000 1.0
C      1  0.5036420000000  0.4407680000000  0.4524990000000 1.0
C      1  0.4831980000000  0.4995150000000  0.5001400000000 1.0
END
