TITL C-2782234-8014-487 -0.000254233583877746 125000 -592.585493737457 0 0 105 (C1) n - 1
REM
REM in /home/nfs/bkarasulu/CARBON/AIRSS/Generating-Clusters/REBO/Higher-Symm/SD-CG/HFTN-CG
REM
REM
REM
REM
REM
REM ./C.cell (12c818d87b63d06a65506943cc24bca4)
REM
REM compiler GCC version 9.2.1 20190827 (Red Hat 9.2.1-1)
REM options -cpp -mtune=generic -march=x86-64 -g -O0 -fpre-include=/usr/include/finclude/math-vector-fortran.h
REM seed -1344783696 -420543113 -960592808 -255106368 929770357 85547591 1506347904 1281075017 1764192914 720701494 -1665829950 798183121 956666813 13704025 -1278619291 -1315842328 235932612 1875819552 72906252 1218152107 -599942890 493969468 65799367 388135503 -1785391963 1557597371 -389058608 -1574988395 -1916182329 194973044 -1840578001 1220618988 -816193471
REM
CELL 1.54180   50.00000   50.00000   50.00000   90.00000   90.00000   90.00000
LATT -1
SFAC C  
C      1  0.4414140000000  0.4945660000000  0.4324640000000 1.0
C      1  0.5479340000000  0.5632050000000  0.5561080000000 1.0
C      1  0.5076640000000  0.5433610000000  0.4883670000000 1.0
C      1  0.4406630000000  0.4912210000000  0.5311200000000 1.0
C      1  0.5019280000000  0.4468740000000  0.5060980000000 1.0
C      1  0.5160340000000  0.4499190000000  0.5335520000000 1.0
C      1  0.5271730000000  0.5511040000000  0.4471820000000 1.0
C      1  0.4807950000000  0.4273790000000  0.5082340000000 1.0
C      1  0.4689610000000  0.5406960000000  0.5238900000000 1.0
C      1  0.5332250000000  0.5351010000000  0.5601640000000 1.0
C      1  0.5848200000000  0.4835240000000  0.5226910000000 1.0
C      1  0.5519120000000  0.4657130000000  0.4434510000000 1.0
C      1  0.4702730000000  0.4398460000000  0.5619440000000 1.0
C      1  0.5141720000000  0.4800350000000  0.5459010000000 1.0
C      1  0.4400120000000  0.4643950000000  0.4318310000000 1.0
C      1  0.5820670000000  0.4747880000000  0.4949720000000 1.0
C      1  0.5432540000000  0.5292750000000  0.4648490000000 1.0
C      1  0.4919790000000  0.4141000000000  0.5571830000000 1.0
C      1  0.5208300000000  0.4108450000000  0.5388890000000 1.0
C      1  0.4141780000000  0.4508070000000  0.4431610000000 1.0
C      1  0.4599950000000  0.5715250000000  0.5005470000000 1.0
C      1  0.4764240000000  0.5498520000000  0.4826310000000 1.0
C      1  0.5056430000000  0.4076030000000  0.4276780000000 1.0
C      1  0.5281620000000  0.5043860000000  0.4767720000000 1.0
C      1  0.5759520000000  0.5387220000000  0.4641750000000 1.0
C      1  0.5437090000000  0.4346490000000  0.5305120000000 1.0
C      1  0.4172990000000  0.5302700000000  0.5022630000000 1.0
C      1  0.4893350000000  0.4845680000000  0.5223430000000 1.0
C      1  0.4476570000000  0.4466370000000  0.5426320000000 1.0
C      1  0.4885960000000  0.4849090000000  0.4184900000000 1.0
C      1  0.5405110000000  0.4870610000000  0.5166750000000 1.0
C      1  0.5716930000000  0.5570570000000  0.5400930000000 1.0
C      1  0.4378990000000  0.5519810000000  0.5158420000000 1.0
C      1  0.5233250000000  0.5279420000000  0.5109590000000 1.0
C      1  0.4500020000000  0.4569760000000  0.4812980000000 1.0
C      1  0.4964840000000  0.5016110000000  0.4700440000000 1.0
C      1  0.4763330000000  0.4743530000000  0.4720820000000 1.0
C      1  0.5036620000000  0.4274510000000  0.4731310000000 1.0
C      1  0.4259370000000  0.4948480000000  0.4579330000000 1.0
C      1  0.4604290000000  0.5054300000000  0.5842660000000 1.0
C      1  0.5767420000000  0.4813510000000  0.4609400000000 1.0
C      1  0.4282810000000  0.5189160000000  0.4734430000000 1.0
C      1  0.5097360000000  0.5861680000000  0.5167430000000 1.0
C      1  0.4877180000000  0.5001860000000  0.5677890000000 1.0
C      1  0.5023670000000  0.5937320000000  0.4841070000000 1.0
C      1  0.5822430000000  0.5598330000000  0.4820090000000 1.0
C      1  0.4609560000000  0.5543580000000  0.4438700000000 1.0
C      1  0.5356070000000  0.5056090000000  0.5432730000000 1.0
C      1  0.4763500000000  0.4694180000000  0.5775920000000 1.0
C      1  0.5101990000000  0.5354460000000  0.5376710000000 1.0
C      1  0.4903270000000  0.4064430000000  0.5250750000000 1.0
C      1  0.4632750000000  0.4549790000000  0.4493100000000 1.0
C      1  0.5545890000000  0.5318690000000  0.5148670000000 1.0
C      1  0.4834630000000  0.5224460000000  0.4545030000000 1.0
C      1  0.4229540000000  0.4679090000000  0.4676780000000 1.0
C      1  0.4551320000000  0.4443700000000  0.5102660000000 1.0
C      1  0.5381110000000  0.4772870000000  0.4192340000000 1.0
C      1  0.4437110000000  0.4788250000000  0.5812960000000 1.0
C      1  0.4878580000000  0.5596150000000  0.5594110000000 1.0
C      1  0.5121940000000  0.4616860000000  0.4095210000000 1.0
C      1  0.5711550000000  0.5109110000000  0.4436560000000 1.0
C      1  0.5078550000000  0.4702610000000  0.4744910000000 1.0
C      1  0.5075410000000  0.4308460000000  0.4434350000000 1.0
C      1  0.4358470000000  0.4718350000000  0.5515080000000 1.0
C      1  0.5733420000000  0.5257030000000  0.5426070000000 1.0
C      1  0.5541800000000  0.5067760000000  0.4971590000000 1.0
C      1  0.4996620000000  0.5516380000000  0.4502310000000 1.0
C      1  0.5153030000000  0.4774790000000  0.5048500000000 1.0
C      1  0.4329850000000  0.5649090000000  0.5576270000000 1.0
C      1  0.4874310000000  0.5754250000000  0.4651520000000 1.0
C      1  0.4811860000000  0.5716580000000  0.5277340000000 1.0
C      1  0.4444710000000  0.5692590000000  0.4697270000000 1.0
C      1  0.5393370000000  0.4726280000000  0.4716760000000 1.0
C      1  0.4891220000000  0.5215940000000  0.5073640000000 1.0
C      1  0.4894120000000  0.4538650000000  0.4328380000000 1.0
C      1  0.3954840000000  0.4332640000000  0.4360180000000 1.0
C      1  0.4505560000000  0.5405600000000  0.5518390000000 1.0
C      1  0.4707260000000  0.5351830000000  0.5757460000000 1.0
C      1  0.4261910000000  0.4714820000000  0.6013630000000 1.0
C      1  0.4351650000000  0.5201670000000  0.5293600000000 1.0
C      1  0.5048310000000  0.5346630000000  0.5770910000000 1.0
C      1  0.4554650000000  0.5310060000000  0.4681480000000 1.0
C      1  0.5448110000000  0.4216450000000  0.4759680000000 1.0
C      1  0.5434220000000  0.5261700000000  0.4306360000000 1.0
C      1  0.5107010000000  0.4703540000000  0.5787750000000 1.0
C      1  0.5515770000000  0.4344970000000  0.5006280000000 1.0
C      1  0.5373740000000  0.4368970000000  0.4538350000000 1.0
C      1  0.5171430000000  0.5679740000000  0.5441740000000 1.0
C      1  0.5655270000000  0.5621650000000  0.5084730000000 1.0
C      1  0.5483890000000  0.4879780000000  0.5675330000000 1.0
C      1  0.5167970000000  0.5000430000000  0.4166740000000 1.0
C      1  0.5411540000000  0.5790490000000  0.5051690000000 1.0
C      1  0.4612310000000  0.4771200000000  0.5152920000000 1.0
C      1  0.5743600000000  0.4974780000000  0.5466050000000 1.0
C      1  0.5196150000000  0.5033090000000  0.5795130000000 1.0
C      1  0.5224910000000  0.5693510000000  0.4830720000000 1.0
C      1  0.5114230000000  0.5294040000000  0.4180720000000 1.0
C      1  0.4693430000000  0.5071470000000  0.4274730000000 1.0
C      1  0.5033630000000  0.4448920000000  0.5614840000000 1.0
C      1  0.5756230000000  0.5093670000000  0.4772410000000 1.0
C      1  0.5572330000000  0.4607380000000  0.4917000000000 1.0
C      1  0.5511620000000  0.4661590000000  0.5413260000000 1.0
C      1  0.4897030000000  0.5110610000000  0.5403150000000 1.0
C      1  0.4213660000000  0.5519580000000  0.4761890000000 1.0
C      1  0.4788000000000  0.5391040000000  0.4192190000000 1.0
END
