TITL C-2782240-8521-159 -0.000243263930604402 125000 -580.747052879174 0 0 101 (C1) n - 1
REM
REM in /home/nfs/bkarasulu/CARBON/AIRSS/Generating-Clusters/REBO/Higher-Symm/SD-CG/HFTN-CG
REM
REM
REM
REM
REM
REM ./C.cell (12c818d87b63d06a65506943cc24bca4)
REM
REM compiler GCC version 9.2.1 20190827 (Red Hat 9.2.1-1)
REM options -cpp -mtune=generic -march=x86-64 -g -O0 -fpre-include=/usr/include/finclude/math-vector-fortran.h
REM seed -66347903 1560632250 -880366136 -735468614 -992794504 2030448094 2136446542 1651169011 -231986519 1462434575 -1776280158 -326660265 -1726870797 1401385524 2079452832 963836662 -1139066430 667824712 -30548587 538234470 1620094465 -615055487 546525903 900398833 162799173 -1697559229 954913158 2062524166 -765883298 -618219028 -489919806 -1989585762 -1414675763
REM
CELL 1.54180   50.00000   50.00000   50.00000   90.00000   90.00000   90.00000
LATT -1
SFAC C  
C      1  0.5411370000000  0.4562250000000  0.5016510000000 1.0
C      1  0.5425960000000  0.5437390000000  0.4876250000000 1.0
C      1  0.4150460000000  0.4792480000000  0.5010260000000 1.0
C      1  0.4139610000000  0.5206940000000  0.4969030000000 1.0
C      1  0.5014850000000  0.4730240000000  0.4802350000000 1.0
C      1  0.5012100000000  0.5273180000000  0.5203960000000 1.0
C      1  0.4206830000000  0.4564760000000  0.4780620000000 1.0
C      1  0.4178420000000  0.5379520000000  0.5241320000000 1.0
C      1  0.4440420000000  0.5082260000000  0.4447510000000 1.0
C      1  0.4385490000000  0.4811340000000  0.5550260000000 1.0
C      1  0.4188410000000  0.4787000000000  0.4539520000000 1.0
C      1  0.4175430000000  0.5143730000000  0.5485920000000 1.0
C      1  0.4912880000000  0.4837700000000  0.5805970000000 1.0
C      1  0.4861040000000  0.5191340000000  0.4156120000000 1.0
C      1  0.5418340000000  0.4266160000000  0.5445890000000 1.0
C      1  0.5450780000000  0.5714200000000  0.4597290000000 1.0
C      1  0.4137220000000  0.4854650000000  0.5341970000000 1.0
C      1  0.4168390000000  0.5080290000000  0.4654150000000 1.0
C      1  0.5171760000000  0.5475360000000  0.4681320000000 1.0
C      1  0.5198160000000  0.4441900000000  0.5245430000000 1.0
C      1  0.4734440000000  0.5074900000000  0.5805970000000 1.0
C      1  0.4695690000000  0.4947110000000  0.4173900000000 1.0
C      1  0.5463340000000  0.5766940000000  0.5175110000000 1.0
C      1  0.5446830000000  0.4217550000000  0.4826640000000 1.0
C      1  0.5531240000000  0.4642550000000  0.5388520000000 1.0
C      1  0.5673700000000  0.5287320000000  0.4601900000000 1.0
C      1  0.5495180000000  0.5462360000000  0.4443520000000 1.0
C      1  0.5501570000000  0.4522080000000  0.5652820000000 1.0
C      1  0.5853760000000  0.4885040000000  0.5069670000000 1.0
C      1  0.5870050000000  0.5127340000000  0.5018910000000 1.0
C      1  0.5163750000000  0.4157280000000  0.4967580000000 1.0
C      1  0.5173060000000  0.5819740000000  0.5052320000000 1.0
C      1  0.5190070000000  0.5832140000000  0.4504140000000 1.0
C      1  0.5154930000000  0.4109310000000  0.5556260000000 1.0
C      1  0.4954450000000  0.5787960000000  0.5385440000000 1.0
C      1  0.4942000000000  0.4213650000000  0.4640010000000 1.0
C      1  0.5064640000000  0.4412170000000  0.5557160000000 1.0
C      1  0.5015440000000  0.5593870000000  0.4414510000000 1.0
C      1  0.5088430000000  0.6054630000000  0.4645810000000 1.0
C      1  0.5057710000000  0.3908180000000  0.5385200000000 1.0
C      1  0.4845280000000  0.5169020000000  0.4854130000000 1.0
C      1  0.4823760000000  0.4841900000000  0.5162060000000 1.0
C      1  0.5081480000000  0.3947150000000  0.5114450000000 1.0
C      1  0.5086380000000  0.6040150000000  0.4920680000000 1.0
C      1  0.5724120000000  0.4606200000000  0.5140160000000 1.0
C      1  0.5786370000000  0.5385380000000  0.4876310000000 1.0
C      1  0.5004930000000  0.4434880000000  0.4966800000000 1.0
C      1  0.5055730000000  0.5532500000000  0.4980020000000 1.0
C      1  0.5125850000000  0.4812280000000  0.5113810000000 1.0
C      1  0.5148680000000  0.5154170000000  0.4915150000000 1.0
C      1  0.4451290000000  0.4573110000000  0.5235950000000 1.0
C      1  0.4454260000000  0.5480870000000  0.4815500000000 1.0
C      1  0.4800370000000  0.5450820000000  0.4292790000000 1.0
C      1  0.4869640000000  0.4569910000000  0.5690610000000 1.0
C      1  0.5550760000000  0.4824710000000  0.4755680000000 1.0
C      1  0.5476680000000  0.5247300000000  0.5122330000000 1.0
C      1  0.4639170000000  0.5130850000000  0.5189700000000 1.0
C      1  0.4632760000000  0.4902810000000  0.4822440000000 1.0
C      1  0.4764470000000  0.5142820000000  0.4539010000000 1.0
C      1  0.4715290000000  0.4856200000000  0.5462720000000 1.0
C      1  0.5205780000000  0.4258070000000  0.4583730000000 1.0
C      1  0.5236710000000  0.5751350000000  0.5437570000000 1.0
C      1  0.4547560000000  0.5400200000000  0.4503780000000 1.0
C      1  0.4585710000000  0.4547620000000  0.5542850000000 1.0
C      1  0.4710990000000  0.4374580000000  0.4802100000000 1.0
C      1  0.4831250000000  0.5654830000000  0.5180220000000 1.0
C      1  0.4761460000000  0.5348960000000  0.5423200000000 1.0
C      1  0.4766320000000  0.4704790000000  0.4589720000000 1.0
C      1  0.5152290000000  0.4727980000000  0.4280460000000 1.0
C      1  0.5168910000000  0.5287150000000  0.5715060000000 1.0
C      1  0.4440490000000  0.5139700000000  0.4840270000000 1.0
C      1  0.4429540000000  0.4908420000000  0.5166350000000 1.0
C      1  0.5147460000000  0.5070710000000  0.4257080000000 1.0
C      1  0.5201910000000  0.4957200000000  0.5722690000000 1.0
C      1  0.4243310000000  0.5589350000000  0.4987500000000 1.0
C      1  0.4255520000000  0.4415670000000  0.5076830000000 1.0
C      1  0.5316490000000  0.5481160000000  0.5578480000000 1.0
C      1  0.5276480000000  0.4524410000000  0.4427750000000 1.0
C      1  0.5465520000000  0.4533750000000  0.4692310000000 1.0
C      1  0.5503770000000  0.5483470000000  0.5334140000000 1.0
C      1  0.5629660000000  0.5694290000000  0.4886830000000 1.0
C      1  0.5564930000000  0.4296890000000  0.5140760000000 1.0
C      1  0.5005230000000  0.5036660000000  0.5452890000000 1.0
C      1  0.5054020000000  0.4978490000000  0.4572370000000 1.0
C      1  0.4684120000000  0.5402370000000  0.5015710000000 1.0
C      1  0.4658130000000  0.4629440000000  0.4995400000000 1.0
C      1  0.4857390000000  0.4740940000000  0.4311940000000 1.0
C      1  0.4878930000000  0.5312110000000  0.5710900000000 1.0
C      1  0.4440500000000  0.5351100000000  0.5456790000000 1.0
C      1  0.4485550000000  0.4538200000000  0.4603670000000 1.0
C      1  0.4454140000000  0.5095600000000  0.5683870000000 1.0
C      1  0.4459280000000  0.4764970000000  0.4343910000000 1.0
C      1  0.5342910000000  0.5316930000000  0.4268950000000 1.0
C      1  0.5394090000000  0.4718140000000  0.5815020000000 1.0
C      1  0.5565170000000  0.5172110000000  0.5627390000000 1.0
C      1  0.5741100000000  0.4882890000000  0.4289400000000 1.0
C      1  0.5335770000000  0.4839280000000  0.5350690000000 1.0
C      1  0.5339910000000  0.5139030000000  0.4627530000000 1.0
C      1  0.5628280000000  0.4991280000000  0.4512740000000 1.0
C      1  0.5431730000000  0.5096190000000  0.5397730000000 1.0
C      1  0.5405130000000  0.4958840000000  0.4977570000000 1.0
END
