TITL C-2782238-9940-1059 -0.00436908100636327 125000 -397.319304187594 0 0 69 (C1) n - 1
REM
REM in /home/nfs/bkarasulu/CARBON/AIRSS/Generating-Clusters/REBO/Higher-Symm/SD-CG/HFTN-CG
REM
REM
REM
REM
REM
REM ./C.cell (12c818d87b63d06a65506943cc24bca4)
REM
REM compiler GCC version 9.2.1 20190827 (Red Hat 9.2.1-1)
REM options -cpp -mtune=generic -march=x86-64 -g -O0 -fpre-include=/usr/include/finclude/math-vector-fortran.h
REM seed 864262957 1842432344 715679456 -1534755088 -1829314523 -19321237 -1696993087 1719139824 2083538987 -558599093 -140588500 653933531 -1237380210 -2058493035 1064786326 982683256 70775006 -631660509 1739672940 -378229648 416931640 1326497850 -612814862 1328360212 265169974 930951120 596115256 825965123 -241338548 1723982356 -1277796245 -926450583 515553922
REM
CELL 1.54180   50.00000   50.00000   50.00000   90.00000   90.00000   90.00000
LATT -1
SFAC C  
C      1  0.4749210000000  0.5070410000000  0.4803300000000 1.0
C      1  0.4754000000000  0.5151730000000  0.5135380000000 1.0
C      1  0.4747980000000  0.4823390000000  0.5040440000000 1.0
C      1  0.5014840000000  0.5000490000000  0.5656690000000 1.0
C      1  0.5060620000000  0.4392960000000  0.4694430000000 1.0
C      1  0.5020970000000  0.5580100000000  0.4659560000000 1.0
C      1  0.4480800000000  0.5503340000000  0.5138240000000 1.0
C      1  0.4462860000000  0.4628530000000  0.5360150000000 1.0
C      1  0.4486110000000  0.4760410000000  0.4464240000000 1.0
C      1  0.5513270000000  0.4602290000000  0.5269390000000 1.0
C      1  0.5503320000000  0.4955580000000  0.4523740000000 1.0
C      1  0.5499660000000  0.5435460000000  0.5203660000000 1.0
C      1  0.5571070000000  0.5168330000000  0.5489510000000 1.0
C      1  0.5601040000000  0.4488790000000  0.4898420000000 1.0
C      1  0.5568570000000  0.5339210000000  0.4605930000000 1.0
C      1  0.5465470000000  0.5510850000000  0.4883400000000 1.0
C      1  0.5465900000000  0.4842590000000  0.5493000000000 1.0
C      1  0.5485630000000  0.4639890000000  0.4614070000000 1.0
C      1  0.5239220000000  0.4607490000000  0.5099760000000 1.0
C      1  0.5226870000000  0.5105410000000  0.4613070000000 1.0
C      1  0.5225080000000  0.5284980000000  0.5288700000000 1.0
C      1  0.4252250000000  0.5201690000000  0.4551600000000 1.0
C      1  0.4268230000000  0.5355080000000  0.5442160000000 1.0
C      1  0.4203080000000  0.4527490000000  0.5051070000000 1.0
C      1  0.4158460000000  0.5071520000000  0.5351000000000 1.0
C      1  0.4151370000000  0.4821890000000  0.4912180000000 1.0
C      1  0.4171560000000  0.5149620000000  0.4857050000000 1.0
C      1  0.5051570000000  0.5304510000000  0.5554800000000 1.0
C      1  0.5170790000000  0.4319050000000  0.4964580000000 1.0
C      1  0.5041920000000  0.5322610000000  0.4456790000000 1.0
C      1  0.5194820000000  0.5633750000000  0.4879830000000 1.0
C      1  0.5187320000000  0.4784410000000  0.5586570000000 1.0
C      1  0.5216430000000  0.4557450000000  0.4518180000000 1.0
C      1  0.5740730000000  0.4926550000000  0.5310380000000 1.0
C      1  0.5751590000000  0.4774800000000  0.4777760000000 1.0
C      1  0.5735270000000  0.5308090000000  0.4908770000000 1.0
C      1  0.4982770000000  0.4890070000000  0.4689140000000 1.0
C      1  0.5000680000000  0.5328510000000  0.5049460000000 1.0
C      1  0.4989960000000  0.4782250000000  0.5229620000000 1.0
C      1  0.5248030000000  0.5173740000000  0.4909230000000 1.0
C      1  0.5237500000000  0.4991980000000  0.5200770000000 1.0
C      1  0.5212100000000  0.4834290000000  0.4901440000000 1.0
C      1  0.4664780000000  0.4552170000000  0.4928770000000 1.0
C      1  0.4733740000000  0.5310080000000  0.4602180000000 1.0
C      1  0.4744360000000  0.5204630000000  0.5446870000000 1.0
C      1  0.5034300000000  0.4801880000000  0.4366150000000 1.0
C      1  0.5025570000000  0.5640920000000  0.5175450000000 1.0
C      1  0.5015790000000  0.4525980000000  0.5445500000000 1.0
C      1  0.4470980000000  0.5315250000000  0.4440810000000 1.0
C      1  0.4517730000000  0.5391690000000  0.5537810000000 1.0
C      1  0.4440260000000  0.4405920000000  0.5010310000000 1.0
C      1  0.4740210000000  0.4663750000000  0.4467140000000 1.0
C      1  0.4713520000000  0.5606110000000  0.5043760000000 1.0
C      1  0.4704790000000  0.4662280000000  0.5482010000000 1.0
C      1  0.4742150000000  0.5590500000000  0.4762330000000 1.0
C      1  0.4734990000000  0.4917900000000  0.5602320000000 1.0
C      1  0.4792830000000  0.4481580000000  0.4683790000000 1.0
C      1  0.5767660000000  0.5071360000000  0.4690100000000 1.0
C      1  0.5762600000000  0.5234100000000  0.5210080000000 1.0
C      1  0.5778840000000  0.4706010000000  0.5095940000000 1.0
C      1  0.5465550000000  0.4287150000000  0.5138550000000 1.0
C      1  0.5446760000000  0.5218380000000  0.4310300000000 1.0
C      1  0.5451440000000  0.5484180000000  0.5539940000000 1.0
C      1  0.4269740000000  0.4889690000000  0.4612390000000 1.0
C      1  0.4220180000000  0.5299540000000  0.5109030000000 1.0
C      1  0.4198370000000  0.4796930000000  0.5248430000000 1.0
C      1  0.5146570000000  0.5622720000000  0.5477510000000 1.0
C      1  0.5165110000000  0.4279840000000  0.5305700000000 1.0
C      1  0.5142230000000  0.5087870000000  0.4229370000000 1.0
END
