TITL C-2782237-5345-238 0.000655786510621598 125000 -735.677731331073 0 0 119 (C1) n - 1
REM
REM in /home/nfs/bkarasulu/CARBON/AIRSS/Generating-Clusters/REBO/Higher-Symm/SD-CG/HFTN-CG
REM
REM
REM
REM
REM
REM ./C.cell (12c818d87b63d06a65506943cc24bca4)
REM
REM compiler GCC version 9.2.1 20190827 (Red Hat 9.2.1-1)
REM options -cpp -mtune=generic -march=x86-64 -g -O0 -fpre-include=/usr/include/finclude/math-vector-fortran.h
REM seed -172141809 1410634476 195389101 -1420653827 -981902378 -2041053329 1376076903 -1353705853 851831392 -1800314414 -765744670 -1397910482 631173430 1443307399 -941367219 285185895 1826068543 -510177025 1372852236 -1091042302 -1642098458 -166862132 -1773322657 -950950485 172502181 137444675 1582916317 124389442 -1399564388 1319173054 1992980565 -1856763363 -383821204
REM
CELL 1.54180   50.00000   50.00000   50.00000   90.00000   90.00000   90.00000
LATT -1
SFAC C  
C      1  0.5462890000000  0.5065270000000  0.5382350000000 1.0
C      1  0.5209140000000  0.5253800000000  0.5446910000000 1.0
C      1  0.5231730000000  0.5477120000000  0.5200050000000 1.0
C      1  0.4521870000000  0.5167810000000  0.4620210000000 1.0
C      1  0.4495710000000  0.4861430000000  0.5393060000000 1.0
C      1  0.5353190000000  0.4795920000000  0.4689770000000 1.0
C      1  0.4797850000000  0.5339210000000  0.4543290000000 1.0
C      1  0.4814640000000  0.4750260000000  0.5434490000000 1.0
C      1  0.5095060000000  0.4614380000000  0.4667570000000 1.0
C      1  0.4600530000000  0.5440590000000  0.4802440000000 1.0
C      1  0.4610000000000  0.4609230000000  0.5202210000000 1.0
C      1  0.5333520000000  0.4507960000000  0.4870350000000 1.0
C      1  0.5862840000000  0.4773920000000  0.4559500000000 1.0
C      1  0.4754730000000  0.4538380000000  0.5855410000000 1.0
C      1  0.4573560000000  0.5764820000000  0.4787380000000 1.0
C      1  0.4190550000000  0.4813200000000  0.5475300000000 1.0
C      1  0.4204200000000  0.5192650000000  0.4567450000000 1.0
C      1  0.5745450000000  0.5176050000000  0.5442650000000 1.0
C      1  0.5242990000000  0.4592880000000  0.4199170000000 1.0
C      1  0.5252870000000  0.5455070000000  0.5864890000000 1.0
C      1  0.4801960000000  0.5453340000000  0.4240380000000 1.0
C      1  0.5430790000000  0.5745700000000  0.5201520000000 1.0
C      1  0.5475530000000  0.4234380000000  0.4807580000000 1.0
C      1  0.4608530000000  0.4286150000000  0.5221160000000 1.0
C      1  0.5234540000000  0.5773200000000  0.5468790000000 1.0
C      1  0.5803000000000  0.5399790000000  0.5226870000000 1.0
C      1  0.5491160000000  0.5250630000000  0.5875760000000 1.0
C      1  0.4751960000000  0.5848280000000  0.4538690000000 1.0
C      1  0.4784280000000  0.4202800000000  0.5464020000000 1.0
C      1  0.5235720000000  0.4226360000000  0.4589130000000 1.0
C      1  0.4155880000000  0.5442270000000  0.4758620000000 1.0
C      1  0.4185160000000  0.4593090000000  0.5239660000000 1.0
C      1  0.5891730000000  0.4542660000000  0.4746410000000 1.0
C      1  0.4582500000000  0.5224660000000  0.4195330000000 1.0
C      1  0.4518220000000  0.4740450000000  0.5868990000000 1.0
C      1  0.5470030000000  0.4787040000000  0.4179510000000 1.0
C      1  0.5267360000000  0.4749260000000  0.5737450000000 1.0
C      1  0.4709490000000  0.5762190000000  0.5286860000000 1.0
C      1  0.5838600000000  0.5309960000000  0.4694870000000 1.0
C      1  0.4698290000000  0.4697070000000  0.4164040000000 1.0
C      1  0.4726910000000  0.5242670000000  0.5761310000000 1.0
C      1  0.5327470000000  0.5322890000000  0.4125630000000 1.0
C      1  0.5301910000000  0.5881310000000  0.4674900000000 1.0
C      1  0.5317840000000  0.4122020000000  0.5314130000000 1.0
C      1  0.4705380000000  0.4174990000000  0.4688630000000 1.0
C      1  0.4082200000000  0.5313280000000  0.5299590000000 1.0
C      1  0.4134190000000  0.4673660000000  0.4700300000000 1.0
C      1  0.5899390000000  0.4681360000000  0.5284660000000 1.0
C      1  0.4301800000000  0.5659710000000  0.4651900000000 1.0
C      1  0.5697350000000  0.4684430000000  0.4332000000000 1.0
C      1  0.4650440000000  0.4314710000000  0.5694160000000 1.0
C      1  0.5691980000000  0.5641570000000  0.5332010000000 1.0
C      1  0.5726860000000  0.4324540000000  0.4652920000000 1.0
C      1  0.4323310000000  0.4364560000000  0.5335320000000 1.0
C      1  0.4291850000000  0.4642460000000  0.5725510000000 1.0
C      1  0.4339140000000  0.5329060000000  0.4304150000000 1.0
C      1  0.5708050000000  0.5338100000000  0.5708740000000 1.0
C      1  0.5336060000000  0.4363630000000  0.4356310000000 1.0
C      1  0.5363820000000  0.5673820000000  0.5697420000000 1.0
C      1  0.4645040000000  0.5709050000000  0.4315440000000 1.0
C      1  0.5038290000000  0.5375080000000  0.4080840000000 1.0
C      1  0.5382250000000  0.4045890000000  0.5028450000000 1.0
C      1  0.4010440000000  0.5030400000000  0.5371060000000 1.0
C      1  0.4998400000000  0.5330000000000  0.5879300000000 1.0
C      1  0.5001140000000  0.4717380000000  0.4121970000000 1.0
C      1  0.5004830000000  0.4663910000000  0.5866210000000 1.0
C      1  0.4724660000000  0.4137810000000  0.4988300000000 1.0
C      1  0.4716300000000  0.5895310000000  0.5020060000000 1.0
C      1  0.5357700000000  0.5920780000000  0.4973570000000 1.0
C      1  0.5919430000000  0.5014940000000  0.4699160000000 1.0
C      1  0.5950300000000  0.4967830000000  0.5358480000000 1.0
C      1  0.4056130000000  0.4967090000000  0.4706490000000 1.0
C      1  0.4533440000000  0.4314950000000  0.4532100000000 1.0
C      1  0.4294050000000  0.4527590000000  0.4533790000000 1.0
C      1  0.4526830000000  0.4542760000000  0.4309240000000 1.0
C      1  0.5468130000000  0.4320730000000  0.5434910000000 1.0
C      1  0.5457590000000  0.5704950000000  0.4529480000000 1.0
C      1  0.4536130000000  0.5625470000000  0.5434230000000 1.0
C      1  0.5697780000000  0.4543460000000  0.5413930000000 1.0
C      1  0.5680320000000  0.5471630000000  0.4544690000000 1.0
C      1  0.4273630000000  0.5442980000000  0.5455010000000 1.0
C      1  0.5440680000000  0.4592760000000  0.5601800000000 1.0
C      1  0.5470690000000  0.5478180000000  0.4302990000000 1.0
C      1  0.4530440000000  0.5390870000000  0.5645580000000 1.0
C      1  0.5022410000000  0.4098570000000  0.5368600000000 1.0
C      1  0.4064620000000  0.5354190000000  0.5002890000000 1.0
C      1  0.5373920000000  0.5031800000000  0.4090690000000 1.0
C      1  0.5006220000000  0.4130920000000  0.4711220000000 1.0
C      1  0.5028460000000  0.5750230000000  0.5218820000000 1.0
C      1  0.5003800000000  0.5928180000000  0.4625350000000 1.0
C      1  0.5895700000000  0.5282750000000  0.4991820000000 1.0
C      1  0.5970130000000  0.4634400000000  0.4998080000000 1.0
C      1  0.4097130000000  0.4708080000000  0.5002790000000 1.0
C      1  0.4732890000000  0.4913620000000  0.5713350000000 1.0
C      1  0.4716510000000  0.4994490000000  0.4111700000000 1.0
C      1  0.5270610000000  0.5079570000000  0.5729070000000 1.0
C      1  0.4920970000000  0.5237870000000  0.5314320000000 1.0
C      1  0.5289870000000  0.5323160000000  0.4915470000000 1.0
C      1  0.5382220000000  0.4826890000000  0.5282900000000 1.0
C      1  0.5052500000000  0.5254270000000  0.4674780000000 1.0
C      1  0.5091200000000  0.4706180000000  0.5358230000000 1.0
C      1  0.4832410000000  0.4675880000000  0.4682010000000 1.0
C      1  0.4689170000000  0.5336280000000  0.5074790000000 1.0
C      1  0.4625740000000  0.4690530000000  0.4922340000000 1.0
C      1  0.5288940000000  0.4554790000000  0.5158150000000 1.0
C      1  0.4596740000000  0.4892460000000  0.4683620000000 1.0
C      1  0.4593420000000  0.5147130000000  0.5335350000000 1.0
C      1  0.5339890000000  0.5072330000000  0.4690820000000 1.0
C      1  0.5001560000000  0.4994550000000  0.5901140000000 1.0
C      1  0.5026940000000  0.5961830000000  0.4952020000000 1.0
C      1  0.6005480000000  0.4966710000000  0.5025350000000 1.0
C      1  0.5041330000000  0.5043350000000  0.4032900000000 1.0
C      1  0.5044940000000  0.4034990000000  0.5035710000000 1.0
C      1  0.3989120000000  0.5029150000000  0.5034000000000 1.0
C      1  0.5628490000000  0.4400230000000  0.4388610000000 1.0
C      1  0.4371490000000  0.5614910000000  0.4370170000000 1.0
C      1  0.4364990000000  0.4376820000000  0.5624710000000 1.0
C      1  0.5647170000000  0.5612730000000  0.5622540000000 1.0
C      1  0.4985830000000  0.5235480000000  0.4998280000000 1.0
END
