TITL C-2782234-8014-395 -0.00909609379465944 125000 -1074.28793891003 0 0 185 (C1) n - 1
REM
REM in /home/nfs/bkarasulu/CARBON/AIRSS/Generating-Clusters/REBO/Higher-Symm/SD-CG/HFTN-CG
REM
REM
REM
REM
REM
REM ./C.cell (12c818d87b63d06a65506943cc24bca4)
REM
REM compiler GCC version 9.2.1 20190827 (Red Hat 9.2.1-1)
REM options -cpp -mtune=generic -march=x86-64 -g -O0 -fpre-include=/usr/include/finclude/math-vector-fortran.h
REM seed -1407031658 -816692785 18851689 -1005714202 1547644973 -924742355 -1706288025 -813292719 2041479351 -2078078590 73952906 718231785 -25806918 -608895556 1006284082 -197288891 277259921 761680446 1665946696 -427614135 -359538319 1257718076 -579299253 -840317529 900479649 -626497733 -594066622 1050207734 265646757 1919306502 869758542 632236536 1538210337
REM
CELL 1.54180   50.00000   50.00000   50.00000   90.00000   90.00000   90.00000
LATT -1
SFAC C  
C      1  0.4584150000000  0.4687450000000  0.4582180000000 1.0
C      1  0.4580540000000  0.5254380000000  0.4499550000000 1.0
C      1  0.5140990000000  0.5532190000000  0.4497430000000 1.0
C      1  0.5549100000000  0.5052910000000  0.4516830000000 1.0
C      1  0.5157890000000  0.4568110000000  0.4569650000000 1.0
C      1  0.5115860000000  0.5511500000000  0.4831720000000 1.0
C      1  0.5464380000000  0.5107580000000  0.4800030000000 1.0
C      1  0.5296000000000  0.4503440000000  0.4939270000000 1.0
C      1  0.4618010000000  0.4622570000000  0.5013730000000 1.0
C      1  0.4502820000000  0.5287750000000  0.4888880000000 1.0
C      1  0.4679050000000  0.4940270000000  0.5886130000000 1.0
C      1  0.4864610000000  0.5185060000000  0.5947260000000 1.0
C      1  0.5226610000000  0.4998560000000  0.5845970000000 1.0
C      1  0.5144220000000  0.4730600000000  0.5801920000000 1.0
C      1  0.4872630000000  0.4686490000000  0.5866670000000 1.0
C      1  0.6110870000000  0.5258750000000  0.5274650000000 1.0
C      1  0.5659150000000  0.4016370000000  0.5359460000000 1.0
C      1  0.4162760000000  0.4159080000000  0.5324150000000 1.0
C      1  0.4032060000000  0.5510470000000  0.5281690000000 1.0
C      1  0.5147820000000  0.6154190000000  0.5412520000000 1.0
C      1  0.4379640000000  0.5371420000000  0.5590970000000 1.0
C      1  0.5175070000000  0.5519880000000  0.5603790000000 1.0
C      1  0.5804980000000  0.5183060000000  0.5640720000000 1.0
C      1  0.5553290000000  0.4474510000000  0.5610730000000 1.0
C      1  0.4409960000000  0.4542980000000  0.5543760000000 1.0
C      1  0.4006160000000  0.4994170000000  0.4509540000000 1.0
C      1  0.4794100000000  0.5954500000000  0.4453400000000 1.0
C      1  0.5866320000000  0.5515120000000  0.4423120000000 1.0
C      1  0.5783250000000  0.4390430000000  0.4484030000000 1.0
C      1  0.4582800000000  0.4186930000000  0.4544350000000 1.0
C      1  0.5564690000000  0.4077610000000  0.5885370000000 1.0
C      1  0.4328260000000  0.4309770000000  0.5857770000000 1.0
C      1  0.3978370000000  0.5599920000000  0.5790900000000 1.0
C      1  0.5162900000000  0.5820710000000  0.5866580000000 1.0
C      1  0.5887610000000  0.4914180000000  0.5806640000000 1.0
C      1  0.5463320000000  0.4332520000000  0.6057240000000 1.0
C      1  0.4343740000000  0.4542050000000  0.5992490000000 1.0
C      1  0.4424770000000  0.5317380000000  0.5908540000000 1.0
C      1  0.5009450000000  0.5540260000000  0.5989920000000 1.0
C      1  0.5474320000000  0.5051000000000  0.5963930000000 1.0
C      1  0.5061910000000  0.5286750000000  0.4338680000000 1.0
C      1  0.5289420000000  0.5078060000000  0.4345270000000 1.0
C      1  0.5157270000000  0.4803490000000  0.4362270000000 1.0
C      1  0.4861010000000  0.4832540000000  0.4527340000000 1.0
C      1  0.4801060000000  0.5108630000000  0.4371980000000 1.0
C      1  0.4892310000000  0.5229180000000  0.5248380000000 1.0
C      1  0.5198360000000  0.5102320000000  0.5329340000000 1.0
C      1  0.5131810000000  0.4784010000000  0.5314150000000 1.0
C      1  0.4827990000000  0.4734780000000  0.5373940000000 1.0
C      1  0.4680930000000  0.5007040000000  0.5335790000000 1.0
C      1  0.5651190000000  0.4766950000000  0.4503170000000 1.0
C      1  0.4896110000000  0.4429750000000  0.4591110000000 1.0
C      1  0.4328800000000  0.4856600000000  0.4699600000000 1.0
C      1  0.4676750000000  0.5640870000000  0.4492140000000 1.0
C      1  0.5481140000000  0.5581030000000  0.4503650000000 1.0
C      1  0.4330670000000  0.4705400000000  0.4978010000000 1.0
C      1  0.4456710000000  0.5559680000000  0.4736020000000 1.0
C      1  0.5270740000000  0.5777160000000  0.4957270000000 1.0
C      1  0.5677670000000  0.4926220000000  0.4895540000000 1.0
C      1  0.5227410000000  0.4195760000000  0.4926040000000 1.0
C      1  0.5930980000000  0.4907690000000  0.5123040000000 1.0
C      1  0.5052760000000  0.4027940000000  0.5164960000000 1.0
C      1  0.4098790000000  0.4704220000000  0.5226440000000 1.0
C      1  0.4334850000000  0.5824170000000  0.5192000000000 1.0
C      1  0.5503380000000  0.5850470000000  0.5190000000000 1.0
C      1  0.3866400000000  0.4922960000000  0.4772300000000 1.0
C      1  0.4633240000000  0.5940520000000  0.4753800000000 1.0
C      1  0.5766420000000  0.5701130000000  0.4658190000000 1.0
C      1  0.5917880000000  0.4487670000000  0.4712780000000 1.0
C      1  0.4670250000000  0.4024310000000  0.4765470000000 1.0
C      1  0.4826260000000  0.4492500000000  0.3854730000000 1.0
C      1  0.4674620000000  0.5030490000000  0.4073500000000 1.0
C      1  0.5034980000000  0.5410060000000  0.4037520000000 1.0
C      1  0.5478910000000  0.5116190000000  0.4090850000000 1.0
C      1  0.5292910000000  0.4632740000000  0.4126930000000 1.0
C      1  0.3886180000000  0.5199870000000  0.5486170000000 1.0
C      1  0.4747720000000  0.5961290000000  0.5595890000000 1.0
C      1  0.5923880000000  0.5636860000000  0.5467570000000 1.0
C      1  0.5985790000000  0.4207300000000  0.5486840000000 1.0
C      1  0.4607520000000  0.4018300000000  0.5454650000000 1.0
C      1  0.5832230000000  0.5191320000000  0.4499080000000 1.0
C      1  0.5385580000000  0.4341560000000  0.4569420000000 1.0
C      1  0.4421070000000  0.4439440000000  0.4610090000000 1.0
C      1  0.4113390000000  0.5311520000000  0.4571450000000 1.0
C      1  0.5115540000000  0.5871430000000  0.4489410000000 1.0
C      1  0.5532160000000  0.4592580000000  0.4720390000000 1.0
C      1  0.4781970000000  0.4415150000000  0.4838200000000 1.0
C      1  0.4247030000000  0.5124420000000  0.4801100000000 1.0
C      1  0.4836030000000  0.5664250000000  0.4799580000000 1.0
C      1  0.5445810000000  0.5408370000000  0.4798330000000 1.0
C      1  0.5340450000000  0.5529110000000  0.5885480000000 1.0
C      1  0.5660440000000  0.4828370000000  0.5961780000000 1.0
C      1  0.5247580000000  0.4133450000000  0.5903280000000 1.0
C      1  0.4402530000000  0.4812470000000  0.5981650000000 1.0
C      1  0.4683750000000  0.5431840000000  0.6010390000000 1.0
C      1  0.5260870000000  0.5641590000000  0.4132630000000 1.0
C      1  0.5760030000000  0.4951800000000  0.4144720000000 1.0
C      1  0.5188880000000  0.4327720000000  0.4181080000000 1.0
C      1  0.4439500000000  0.4567650000000  0.4232040000000 1.0
C      1  0.4481040000000  0.5287260000000  0.4114620000000 1.0
C      1  0.4300790000000  0.5444640000000  0.5083880000000 1.0
C      1  0.5046420000000  0.5716860000000  0.5281150000000 1.0
C      1  0.5727070000000  0.5168760000000  0.5209170000000 1.0
C      1  0.5424600000000  0.4395020000000  0.5210360000000 1.0
C      1  0.4447160000000  0.4424770000000  0.5233570000000 1.0
C      1  0.6039820000000  0.4249130000000  0.5246810000000 1.0
C      1  0.4559880000000  0.3856190000000  0.5232260000000 1.0
C      1  0.3901340000000  0.5117410000000  0.5221180000000 1.0
C      1  0.4666410000000  0.5965060000000  0.5324850000000 1.0
C      1  0.5801430000000  0.5731780000000  0.5204310000000 1.0
C      1  0.5290070000000  0.5981880000000  0.4697200000000 1.0
C      1  0.5994950000000  0.5108350000000  0.4739890000000 1.0
C      1  0.5223120000000  0.4052550000000  0.4627280000000 1.0
C      1  0.4171840000000  0.4495070000000  0.4766160000000 1.0
C      1  0.4129560000000  0.5607500000000  0.4739420000000 1.0
C      1  0.5611670000000  0.4648760000000  0.5343910000000 1.0
C      1  0.4758640000000  0.4417140000000  0.5324940000000 1.0
C      1  0.4373790000000  0.4986600000000  0.5275240000000 1.0
C      1  0.4796650000000  0.5510340000000  0.5301240000000 1.0
C      1  0.5436520000000  0.5300230000000  0.5239280000000 1.0
C      1  0.4227190000000  0.4769260000000  0.4404220000000 1.0
C      1  0.4388440000000  0.5480490000000  0.4368390000000 1.0
C      1  0.5459570000000  0.5844530000000  0.4289750000000 1.0
C      1  0.5940840000000  0.4782490000000  0.4359970000000 1.0
C      1  0.5033340000000  0.4215130000000  0.4430600000000 1.0
C      1  0.5869160000000  0.4323070000000  0.4988540000000 1.0
C      1  0.4485490000000  0.3987980000000  0.4985210000000 1.0
C      1  0.3816410000000  0.5151730000000  0.4928180000000 1.0
C      1  0.4782250000000  0.6082210000000  0.5024680000000 1.0
C      1  0.5909870000000  0.5591520000000  0.4926660000000 1.0
C      1  0.4627050000000  0.4354950000000  0.4277230000000 1.0
C      1  0.4217210000000  0.5150150000000  0.4286070000000 1.0
C      1  0.4950020000000  0.5751220000000  0.4222710000000 1.0
C      1  0.5827690000000  0.5284500000000  0.4175430000000 1.0
C      1  0.5519210000000  0.4339590000000  0.4273170000000 1.0
C      1  0.5043730000000  0.5993470000000  0.5199970000000 1.0
C      1  0.5961480000000  0.5282700000000  0.4987840000000 1.0
C      1  0.5615600000000  0.4181370000000  0.5145610000000 1.0
C      1  0.4298730000000  0.4195000000000  0.5066120000000 1.0
C      1  0.3977970000000  0.5424110000000  0.4966160000000 1.0
C      1  0.5605900000000  0.4651250000000  0.4192820000000 1.0
C      1  0.4859030000000  0.4352130000000  0.4100850000000 1.0
C      1  0.4403540000000  0.4896980000000  0.4150720000000 1.0
C      1  0.4742240000000  0.5493450000000  0.4185870000000 1.0
C      1  0.5519900000000  0.5428680000000  0.4198150000000 1.0
C      1  0.5607790000000  0.5503120000000  0.5031800000000 1.0
C      1  0.5690530000000  0.4608990000000  0.5016710000000 1.0
C      1  0.4869550000000  0.4282380000000  0.5075540000000 1.0
C      1  0.4170030000000  0.5071050000000  0.5096060000000 1.0
C      1  0.4704610000000  0.5728810000000  0.5081600000000 1.0
C      1  0.4370400000000  0.4204110000000  0.5557830000000 1.0
C      1  0.4073330000000  0.5438800000000  0.5585270000000 1.0
C      1  0.5046040000000  0.6057110000000  0.5662720000000 1.0
C      1  0.5987590000000  0.5372050000000  0.5494400000000 1.0
C      1  0.5693690000000  0.4186120000000  0.5631400000000 1.0
C      1  0.4342250000000  0.5828400000000  0.4892080000000 1.0
C      1  0.5575490000000  0.5882900000000  0.4853730000000 1.0
C      1  0.5978100000000  0.4784510000000  0.4805150000000 1.0
C      1  0.4967630000000  0.3979300000000  0.4836850000000 1.0
C      1  0.3941630000000  0.4680700000000  0.4923310000000 1.0
C      1  0.4467780000000  0.5552080000000  0.5347710000000 1.0
C      1  0.5333490000000  0.5601990000000  0.5335420000000 1.0
C      1  0.5768320000000  0.4919010000000  0.5425060000000 1.0
C      1  0.4897660000000  0.4136150000000  0.5445320000000 1.0
C      1  0.4240430000000  0.4821670000000  0.5516410000000 1.0
C      1  0.5204610000000  0.5012810000000  0.4890100000000 1.0
C      1  0.5124220000000  0.4737280000000  0.5004830000000 1.0
C      1  0.4834430000000  0.4810320000000  0.4866850000000 1.0
C      1  0.4738580000000  0.5117370000000  0.4897120000000 1.0
C      1  0.5019190000000  0.5236790000000  0.4951250000000 1.0
C      1  0.5054760000000  0.4126880000000  0.5706580000000 1.0
C      1  0.4301720000000  0.5024190000000  0.5785110000000 1.0
C      1  0.4825320000000  0.5771720000000  0.5820760000000 1.0
C      1  0.5574260000000  0.5309470000000  0.5857550000000 1.0
C      1  0.5557120000000  0.4567870000000  0.5917080000000 1.0
C      1  0.5064070000000  0.5192410000000  0.3836160000000 1.0
C      1  0.5307970000000  0.5039650000000  0.3855160000000 1.0
C      1  0.5231800000000  0.4760790000000  0.3858850000000 1.0
C      1  0.4950820000000  0.4736140000000  0.3786480000000 1.0
C      1  0.4847820000000  0.5002850000000  0.3837090000000 1.0
C      1  0.4887110000000  0.5358640000000  0.5658190000000 1.0
C      1  0.5159970000000  0.5187090000000  0.5626670000000 1.0
C      1  0.5265220000000  0.4627960000000  0.5554460000000 1.0
C      1  0.4689090000000  0.4621610000000  0.5647660000000 1.0
C      1  0.4640610000000  0.5152550000000  0.5619150000000 1.0
END
