TITL C-2782231-7322-892 -0.000235828559858209 125000 -251.943798641346 0 0 45 (C1) n - 1
REM
REM in /home/nfs/bkarasulu/CARBON/AIRSS/Generating-Clusters/REBO/Higher-Symm/SD-CG/HFTN-CG
REM
REM
REM
REM
REM
REM ./C.cell (12c818d87b63d06a65506943cc24bca4)
REM
REM compiler GCC version 9.2.1 20190827 (Red Hat 9.2.1-1)
REM options -cpp -mtune=generic -march=x86-64 -g -O0 -fpre-include=/usr/include/finclude/math-vector-fortran.h
REM seed 690042197 56845281 967519086 -1288723724 -1337455705 15757185 1226194629 605530045 201280667 -2142652153 -1004106214 234811606 -1124017116 -1523108146 1954217877 -1371914549 -1165817267 -868240827 1163061638 1924644860 -1896990033 -1605164390 -1713193283 900611368 1572527691 -1845359629 -1211926336 -126128464 -1840230200 -1471931328 358082575 -1450207968 531592794
REM
CELL 1.54180   50.00000   50.00000   50.00000   90.00000   90.00000   90.00000
LATT -1
SFAC C  
C      1  0.5041770000000  0.5164970000000  0.4704460000000 1.0
C      1  0.5044690000000  0.4830840000000  0.5336360000000 1.0
C      1  0.5322730000000  0.4521890000000  0.4743860000000 1.0
C      1  0.5354280000000  0.5432880000000  0.5334880000000 1.0
C      1  0.4852600000000  0.5055300000000  0.4459310000000 1.0
C      1  0.4825380000000  0.4908660000000  0.5581510000000 1.0
C      1  0.4639310000000  0.4242190000000  0.4933290000000 1.0
C      1  0.4635500000000  0.5725640000000  0.5081680000000 1.0
C      1  0.4422950000000  0.4969040000000  0.4658870000000 1.0
C      1  0.4415800000000  0.5001080000000  0.5323620000000 1.0
C      1  0.5375410000000  0.4908940000000  0.4405540000000 1.0
C      1  0.5386520000000  0.5141320000000  0.5510170000000 1.0
C      1  0.4551490000000  0.4564190000000  0.4918650000000 1.0
C      1  0.4575290000000  0.5396910000000  0.5073860000000 1.0
C      1  0.4910120000000  0.5611470000000  0.5085960000000 1.0
C      1  0.4900850000000  0.4379700000000  0.4965460000000 1.0
C      1  0.4736010000000  0.5356220000000  0.4543380000000 1.0
C      1  0.4729140000000  0.4626670000000  0.5459610000000 1.0
C      1  0.4559970000000  0.5238140000000  0.5358540000000 1.0
C      1  0.4568770000000  0.4731680000000  0.4633960000000 1.0
C      1  0.5013330000000  0.5480750000000  0.4655790000000 1.0
C      1  0.5020150000000  0.4510770000000  0.5385880000000 1.0
C      1  0.5155530000000  0.4658290000000  0.4474460000000 1.0
C      1  0.5087620000000  0.5303490000000  0.5511610000000 1.0
C      1  0.5371350000000  0.4467190000000  0.5039420000000 1.0
C      1  0.5383640000000  0.5465910000000  0.4995440000000 1.0
C      1  0.5266110000000  0.4941460000000  0.5185750000000 1.0
C      1  0.5287950000000  0.5034120000000  0.4799620000000 1.0
C      1  0.5513970000000  0.4714370000000  0.5199010000000 1.0
C      1  0.5544440000000  0.5248310000000  0.4789090000000 1.0
C      1  0.4548720000000  0.4724920000000  0.5200760000000 1.0
C      1  0.4544330000000  0.5243880000000  0.4789940000000 1.0
C      1  0.4811480000000  0.5200940000000  0.5524080000000 1.0
C      1  0.4830980000000  0.4766300000000  0.4491800000000 1.0
C      1  0.5128230000000  0.4780760000000  0.4772630000000 1.0
C      1  0.5189750000000  0.5228830000000  0.5133750000000 1.0
C      1  0.4789500000000  0.4960830000000  0.5186920000000 1.0
C      1  0.4791450000000  0.5027350000000  0.4853180000000 1.0
C      1  0.4863930000000  0.4699290000000  0.4896920000000 1.0
C      1  0.4890360000000  0.5283000000000  0.5141800000000 1.0
C      1  0.5516700000000  0.5103550000000  0.4481320000000 1.0
C      1  0.5529090000000  0.4907180000000  0.5481580000000 1.0
C      1  0.5118720000000  0.5613310000000  0.4883060000000 1.0
C      1  0.5119280000000  0.4369400000000  0.5157190000000 1.0
C      1  0.5552640000000  0.4980990000000  0.4999240000000 1.0
END
