TITL C-2782228-2999-932 -0.00244164177245968 125000 -920.109918979687 0 0 160 (Ci) n - 1
REM
REM in /home/nfs/bkarasulu/CARBON/AIRSS/Generating-Clusters/REBO/Higher-Symm/SD-CG/HFTN-CG
REM
REM
REM
REM
REM
REM ./C.cell (12c818d87b63d06a65506943cc24bca4)
REM
REM compiler GCC version 9.2.1 20190827 (Red Hat 9.2.1-1)
REM options -cpp -mtune=generic -march=x86-64 -g -O0 -fpre-include=/usr/include/finclude/math-vector-fortran.h
REM seed 208226071 -1998896811 5683656 -1757897816 -1286942090 -752712637 -2014718057 -1673669378 -737928176 1804806553 -1920487900 747114912 -1937948159 -1750054957 -226480032 -1323737641 -153419729 -1311088613 -490418604 205869042 893153361 889232697 -1650404970 -944929102 -1326822808 671747451 -1101708720 -1740936383 1380785086 2143735212 -836242684 -640799114 -1076951688
REM
CELL 1.54180   50.00000   50.00000   50.00000   90.00000   90.00000   90.00000
LATT -1
SFAC C  
C      1  0.5616040000000  0.4379440000000  0.4604010000000 1.0
C      1  0.4383960000000  0.5620560000000  0.5395990000000 1.0
C      1  0.4652440000000  0.5802570000000  0.5861820000000 1.0
C      1  0.5347560000000  0.4197430000000  0.4138180000000 1.0
C      1  0.4173100000000  0.5075300000000  0.4313570000000 1.0
C      1  0.5826900000000  0.4924700000000  0.5686430000000 1.0
C      1  0.5091120000000  0.4895800000000  0.5621350000000 1.0
C      1  0.4908880000000  0.5104200000000  0.4378650000000 1.0
C      1  0.5207150000000  0.4468810000000  0.4103050000000 1.0
C      1  0.4792850000000  0.5531190000000  0.5896950000000 1.0
C      1  0.4400750000000  0.5571940000000  0.5058510000000 1.0
C      1  0.5599250000000  0.4428060000000  0.4941490000000 1.0
C      1  0.3926030000000  0.4806790000000  0.5284410000000 1.0
C      1  0.6073970000000  0.5193210000000  0.4715590000000 1.0
C      1  0.4779450000000  0.4810240000000  0.4259920000000 1.0
C      1  0.5220550000000  0.5189760000000  0.5740080000000 1.0
C      1  0.5148800000000  0.4021900000000  0.4573930000000 1.0
C      1  0.4851200000000  0.5978100000000  0.5426070000000 1.0
C      1  0.4672020000000  0.4956380000000  0.6008640000000 1.0
C      1  0.5327980000000  0.5043620000000  0.3991360000000 1.0
C      1  0.5476800000000  0.5640310000000  0.4386870000000 1.0
C      1  0.4523200000000  0.4359690000000  0.5613130000000 1.0
C      1  0.5081030000000  0.5031480000000  0.5306450000000 1.0
C      1  0.4918970000000  0.4968520000000  0.4693550000000 1.0
C      1  0.4828740000000  0.6036660000000  0.4523550000000 1.0
C      1  0.5171260000000  0.3963340000000  0.5476450000000 1.0
C      1  0.4611640000000  0.5359570000000  0.5198550000000 1.0
C      1  0.5388360000000  0.4640430000000  0.4801450000000 1.0
C      1  0.5393170000000  0.5495880000000  0.5497240000000 1.0
C      1  0.4606830000000  0.4504120000000  0.4502760000000 1.0
C      1  0.4135740000000  0.4782880000000  0.5563450000000 1.0
C      1  0.5864260000000  0.5217120000000  0.4436550000000 1.0
C      1  0.5081190000000  0.4772580000000  0.4519250000000 1.0
C      1  0.4918810000000  0.5227420000000  0.5480750000000 1.0
C      1  0.4480600000000  0.4140710000000  0.5136370000000 1.0
C      1  0.5519400000000  0.5859290000000  0.4863630000000 1.0
C      1  0.5093030000000  0.5485680000000  0.5858540000000 1.0
C      1  0.4906970000000  0.4514320000000  0.4141460000000 1.0
C      1  0.4333090000000  0.5306350000000  0.4401780000000 1.0
C      1  0.5666910000000  0.4693650000000  0.5598220000000 1.0
C      1  0.4686740000000  0.4598300000000  0.5433230000000 1.0
C      1  0.5313260000000  0.5401700000000  0.4566770000000 1.0
C      1  0.5899270000000  0.4518990000000  0.4839940000000 1.0
C      1  0.4100730000000  0.5481010000000  0.5160060000000 1.0
C      1  0.5088340000000  0.5104230000000  0.4913330000000 1.0
C      1  0.4911660000000  0.4895770000000  0.5086670000000 1.0
C      1  0.5491780000000  0.4779810000000  0.4517210000000 1.0
C      1  0.4508220000000  0.5220190000000  0.5482790000000 1.0
C      1  0.4956750000000  0.4786580000000  0.5993260000000 1.0
C      1  0.5043250000000  0.5213420000000  0.4006740000000 1.0
C      1  0.5729570000000  0.5509600000000  0.5485070000000 1.0
C      1  0.4270430000000  0.4490400000000  0.4514930000000 1.0
C      1  0.4095950000000  0.4649420000000  0.5029800000000 1.0
C      1  0.5904050000000  0.5350580000000  0.4970200000000 1.0
C      1  0.4979830000000  0.5376400000000  0.4975690000000 1.0
C      1  0.5020170000000  0.4623600000000  0.5024310000000 1.0
C      1  0.5364410000000  0.4703210000000  0.5696630000000 1.0
C      1  0.4635590000000  0.5296790000000  0.4303370000000 1.0
C      1  0.5224960000000  0.4900480000000  0.6012930000000 1.0
C      1  0.4775040000000  0.5099520000000  0.3987070000000 1.0
C      1  0.5236990000000  0.4222190000000  0.5183460000000 1.0
C      1  0.4763010000000  0.5777810000000  0.4816540000000 1.0
C      1  0.4502940000000  0.4877170000000  0.5439370000000 1.0
C      1  0.5497060000000  0.5122830000000  0.4560630000000 1.0
C      1  0.4742770000000  0.5440000000000  0.4768330000000 1.0
C      1  0.5257230000000  0.4560000000000  0.5231670000000 1.0
C      1  0.5302750000000  0.5739540000000  0.5298170000000 1.0
C      1  0.4697250000000  0.4260460000000  0.4701830000000 1.0
C      1  0.4354550000000  0.5036560000000  0.5018740000000 1.0
C      1  0.5645450000000  0.4963440000000  0.4981260000000 1.0
C      1  0.4894500000000  0.5482150000000  0.5270310000000 1.0
C      1  0.5105500000000  0.4517850000000  0.4729690000000 1.0
C      1  0.4428550000000  0.4955030000000  0.5770400000000 1.0
C      1  0.5571450000000  0.5044970000000  0.4229600000000 1.0
C      1  0.6078290000000  0.4600650000000  0.5027280000000 1.0
C      1  0.3921710000000  0.5399350000000  0.4972720000000 1.0
C      1  0.6090280000000  0.4855660000000  0.5186990000000 1.0
C      1  0.3909720000000  0.5144340000000  0.4813010000000 1.0
C      1  0.5572590000000  0.5765660000000  0.5122790000000 1.0
C      1  0.4427410000000  0.4234340000000  0.4877210000000 1.0
C      1  0.4226890000000  0.4432530000000  0.4800050000000 1.0
C      1  0.5773110000000  0.5567470000000  0.5199950000000 1.0
C      1  0.4636650000000  0.5509830000000  0.5594100000000 1.0
C      1  0.5363350000000  0.4490170000000  0.4405900000000 1.0
C      1  0.4577410000000  0.4533510000000  0.4054580000000 1.0
C      1  0.5422590000000  0.5466490000000  0.5945420000000 1.0
C      1  0.5258410000000  0.5942420000000  0.4801790000000 1.0
C      1  0.4741590000000  0.4057580000000  0.5198210000000 1.0
C      1  0.4608180000000  0.5777070000000  0.4522640000000 1.0
C      1  0.5391820000000  0.4222930000000  0.5477360000000 1.0
C      1  0.5525000000000  0.4960780000000  0.5854470000000 1.0
C      1  0.4475000000000  0.5039220000000  0.4145530000000 1.0
C      1  0.4610120000000  0.4518270000000  0.5124420000000 1.0
C      1  0.5389880000000  0.5481730000000  0.4875580000000 1.0
C      1  0.4935880000000  0.4328640000000  0.5277820000000 1.0
C      1  0.5064120000000  0.5671360000000  0.4722180000000 1.0
C      1  0.5761600000000  0.4529260000000  0.5394680000000 1.0
C      1  0.4238400000000  0.5470740000000  0.4605320000000 1.0
C      1  0.5611740000000  0.5648080000000  0.4662100000000 1.0
C      1  0.4388260000000  0.4351920000000  0.5337900000000 1.0
C      1  0.5001770000000  0.5383720000000  0.4550810000000 1.0
C      1  0.4998230000000  0.4616280000000  0.5449190000000 1.0
C      1  0.5345110000000  0.5074030000000  0.5218160000000 1.0
C      1  0.4654890000000  0.4925970000000  0.4781840000000 1.0
C      1  0.5657530000000  0.5522600000000  0.5793570000000 1.0
C      1  0.4342470000000  0.4477400000000  0.4206430000000 1.0
C      1  0.4971610000000  0.6049840000000  0.4795690000000 1.0
C      1  0.5028390000000  0.3950160000000  0.5204310000000 1.0
C      1  0.5084800000000  0.5505820000000  0.5537970000000 1.0
C      1  0.4915200000000  0.4494180000000  0.4462030000000 1.0
C      1  0.5604840000000  0.5360630000000  0.4258360000000 1.0
C      1  0.4395160000000  0.4639370000000  0.5741640000000 1.0
C      1  0.4059910000000  0.5087020000000  0.5423800000000 1.0
C      1  0.5940090000000  0.4912980000000  0.4576200000000 1.0
C      1  0.5718480000000  0.5354540000000  0.4696390000000 1.0
C      1  0.4281520000000  0.4645460000000  0.5303610000000 1.0
C      1  0.5851780000000  0.4609830000000  0.4515700000000 1.0
C      1  0.4148220000000  0.5390170000000  0.5484300000000 1.0
C      1  0.6010110000000  0.4993080000000  0.5464400000000 1.0
C      1  0.3989890000000  0.5006920000000  0.4535600000000 1.0
C      1  0.4816240000000  0.4369630000000  0.4961100000000 1.0
C      1  0.5183760000000  0.5630370000000  0.5038900000000 1.0
C      1  0.4649350000000  0.5023220000000  0.5168310000000 1.0
C      1  0.5350650000000  0.4976780000000  0.4831690000000 1.0
C      1  0.5628350000000  0.5055060000000  0.5367070000000 1.0
C      1  0.4371650000000  0.4944940000000  0.4632930000000 1.0
C      1  0.4398170000000  0.5640090000000  0.4752670000000 1.0
C      1  0.5601830000000  0.4359910000000  0.5247330000000 1.0
C      1  0.5280020000000  0.5207700000000  0.6073800000000 1.0
C      1  0.4719980000000  0.4792300000000  0.3926200000000 1.0
C      1  0.5256400000000  0.5755590000000  0.4205190000000 1.0
C      1  0.4743600000000  0.4244410000000  0.5794810000000 1.0
C      1  0.4702200000000  0.4578490000000  0.5889440000000 1.0
C      1  0.5297800000000  0.5421510000000  0.4110560000000 1.0
C      1  0.5272860000000  0.4423670000000  0.5717210000000 1.0
C      1  0.4727140000000  0.5576330000000  0.4282790000000 1.0
C      1  0.5518530000000  0.5274430000000  0.5035120000000 1.0
C      1  0.4481470000000  0.4725570000000  0.4964880000000 1.0
C      1  0.5683370000000  0.4723760000000  0.4243010000000 1.0
C      1  0.4316630000000  0.5276240000000  0.5756990000000 1.0
C      1  0.5382300000000  0.4727290000000  0.4086420000000 1.0
C      1  0.4617700000000  0.5272710000000  0.5913580000000 1.0
C      1  0.5933270000000  0.4955550000000  0.4915630000000 1.0
C      1  0.4066730000000  0.5044450000000  0.5084370000000 1.0
C      1  0.4906660000000  0.4060580000000  0.4600320000000 1.0
C      1  0.5093340000000  0.5939420000000  0.5399680000000 1.0
C      1  0.4996080000000  0.5583830000000  0.4087480000000 1.0
C      1  0.5003920000000  0.4416170000000  0.5912520000000 1.0
C      1  0.4484900000000  0.4801760000000  0.4390130000000 1.0
C      1  0.5515100000000  0.5198240000000  0.5609870000000 1.0
C      1  0.5491140000000  0.4773140000000  0.5220890000000 1.0
C      1  0.4508860000000  0.5226860000000  0.4779110000000 1.0
C      1  0.5057840000000  0.4159120000000  0.5693660000000 1.0
C      1  0.4942160000000  0.5840880000000  0.4306340000000 1.0
C      1  0.4598270000000  0.5844280000000  0.5537510000000 1.0
C      1  0.5401730000000  0.4155720000000  0.4462490000000 1.0
C      1  0.5190850000000  0.4934110000000  0.4277690000000 1.0
C      1  0.4809150000000  0.5065890000000  0.5722310000000 1.0
C      1  0.5886460000000  0.5186940000000  0.5238950000000 1.0
C      1  0.4113540000000  0.4813060000000  0.4761050000000 1.0
END
