TITL C-2782227-3064-965 0.00379795788474656 125000 -830.134231484426 0 0 142 (C1) n - 1
REM
REM in /home/nfs/bkarasulu/CARBON/AIRSS/Generating-Clusters/REBO/Higher-Symm/SD-CG/HFTN-CG
REM
REM
REM
REM
REM
REM ./C.cell (12c818d87b63d06a65506943cc24bca4)
REM
REM compiler GCC version 9.2.1 20190827 (Red Hat 9.2.1-1)
REM options -cpp -mtune=generic -march=x86-64 -g -O0 -fpre-include=/usr/include/finclude/math-vector-fortran.h
REM seed -1831915011 -1266906902 1847529742 738185429 2052568642 -1370776793 -1382929862 187164440 -2018616875 2058625727 -1399918355 -1697379376 1305332047 977879520 2109277074 -158318227 548999962 -1304482110 -1565367263 116808168 -1712444853 -494951524 -1512383769 1582755888 -609456487 1531326035 -502756333 845809148 -533463598 1526531050 1507501928 1049917931 -1577270261
REM
CELL 1.54180   50.00000   50.00000   50.00000   90.00000   90.00000   90.00000
LATT -1
SFAC C  
C      1  0.4639980000000  0.4661560000000  0.5874090000000 1.0
C      1  0.5558360000000  0.5747320000000  0.5443240000000 1.0
C      1  0.4150700000000  0.4756720000000  0.5363890000000 1.0
C      1  0.4312210000000  0.5016630000000  0.4383270000000 1.0
C      1  0.5165750000000  0.4864430000000  0.4447200000000 1.0
C      1  0.3766420000000  0.4848040000000  0.5104570000000 1.0
C      1  0.4860320000000  0.4208650000000  0.4446780000000 1.0
C      1  0.5311020000000  0.4515460000000  0.4574890000000 1.0
C      1  0.5255700000000  0.4172900000000  0.5803550000000 1.0
C      1  0.4468040000000  0.4287560000000  0.4795740000000 1.0
C      1  0.5192430000000  0.4345280000000  0.5426110000000 1.0
C      1  0.5064870000000  0.5203840000000  0.5519180000000 1.0
C      1  0.4642780000000  0.5096030000000  0.4177720000000 1.0
C      1  0.4468050000000  0.4868350000000  0.5342200000000 1.0
C      1  0.5110600000000  0.4638980000000  0.5586910000000 1.0
C      1  0.4693370000000  0.5557390000000  0.5659980000000 1.0
C      1  0.5214730000000  0.5862120000000  0.4642330000000 1.0
C      1  0.5429750000000  0.4104220000000  0.5639040000000 1.0
C      1  0.5017990000000  0.5982430000000  0.5462280000000 1.0
C      1  0.5205260000000  0.4401100000000  0.4126570000000 1.0
C      1  0.4924560000000  0.4565490000000  0.5941960000000 1.0
C      1  0.4523700000000  0.5503830000000  0.4553280000000 1.0
C      1  0.5043300000000  0.5665440000000  0.5338330000000 1.0
C      1  0.5246510000000  0.4690860000000  0.4033810000000 1.0
C      1  0.4998060000000  0.6001990000000  0.5128600000000 1.0
C      1  0.4838740000000  0.4498560000000  0.4519700000000 1.0
C      1  0.5722800000000  0.4694880000000  0.4325410000000 1.0
C      1  0.4319090000000  0.5769140000000  0.4936700000000 1.0
C      1  0.5287420000000  0.5075400000000  0.4895460000000 1.0
C      1  0.5112670000000  0.4862510000000  0.4767840000000 1.0
C      1  0.4947610000000  0.4706500000000  0.4296680000000 1.0
C      1  0.4231640000000  0.5556140000000  0.4501420000000 1.0
C      1  0.4465940000000  0.4253930000000  0.4491100000000 1.0
C      1  0.5527640000000  0.5576350000000  0.5214950000000 1.0
C      1  0.4376140000000  0.4744900000000  0.4787020000000 1.0
C      1  0.4260270000000  0.4659100000000  0.4551290000000 1.0
C      1  0.4512040000000  0.4543510000000  0.4912760000000 1.0
C      1  0.4892840000000  0.5023940000000  0.5058590000000 1.0
C      1  0.5405980000000  0.5721260000000  0.5007190000000 1.0
C      1  0.4577380000000  0.5082940000000  0.5126860000000 1.0
C      1  0.5593480000000  0.5148320000000  0.4763730000000 1.0
C      1  0.4924630000000  0.4182240000000  0.5449570000000 1.0
C      1  0.5119590000000  0.4043420000000  0.4763290000000 1.0
C      1  0.5547030000000  0.5161420000000  0.5848740000000 1.0
C      1  0.5396980000000  0.5279910000000  0.5498830000000 1.0
C      1  0.4994740000000  0.4699840000000  0.5042180000000 1.0
C      1  0.4748850000000  0.4212180000000  0.5170270000000 1.0
C      1  0.5810160000000  0.4959700000000  0.4354280000000 1.0
C      1  0.5662900000000  0.4811000000000  0.4971940000000 1.0
C      1  0.4586160000000  0.4192080000000  0.5468480000000 1.0
C      1  0.5764640000000  0.4945090000000  0.5782330000000 1.0
C      1  0.5702330000000  0.5033840000000  0.5130390000000 1.0
C      1  0.4722960000000  0.4550830000000  0.4140760000000 1.0
C      1  0.4462670000000  0.4518290000000  0.4322910000000 1.0
C      1  0.5574050000000  0.4107800000000  0.4801960000000 1.0
C      1  0.5407590000000  0.4288120000000  0.4341150000000 1.0
C      1  0.5415610000000  0.4623980000000  0.4870190000000 1.0
C      1  0.5336560000000  0.5337280000000  0.4689750000000 1.0
C      1  0.4118470000000  0.5609210000000  0.4755530000000 1.0
C      1  0.4742650000000  0.5932950000000  0.4722360000000 1.0
C      1  0.5366320000000  0.4080420000000  0.4581180000000 1.0
C      1  0.4203850000000  0.5082880000000  0.5387610000000 1.0
C      1  0.4139050000000  0.5522370000000  0.5087070000000 1.0
C      1  0.5720310000000  0.5289140000000  0.5583260000000 1.0
C      1  0.5791960000000  0.4524680000000  0.4957060000000 1.0
C      1  0.5593270000000  0.5117890000000  0.4455300000000 1.0
C      1  0.5212190000000  0.5629960000000  0.4390710000000 1.0
C      1  0.4748340000000  0.5560240000000  0.5340480000000 1.0
C      1  0.5160670000000  0.5324850000000  0.4256770000000 1.0
C      1  0.5013920000000  0.6009460000000  0.4789980000000 1.0
C      1  0.4323860000000  0.5222510000000  0.4169240000000 1.0
C      1  0.5083420000000  0.5574490000000  0.5954090000000 1.0
C      1  0.5514640000000  0.5949210000000  0.4891640000000 1.0
C      1  0.5674300000000  0.4689160000000  0.5725920000000 1.0
C      1  0.5027510000000  0.5322510000000  0.4719990000000 1.0
C      1  0.5724730000000  0.5627730000000  0.4784360000000 1.0
C      1  0.5203430000000  0.3862880000000  0.4978860000000 1.0
C      1  0.3930270000000  0.5111990000000  0.4725090000000 1.0
C      1  0.5094880000000  0.4910460000000  0.3972800000000 1.0
C      1  0.5458030000000  0.5624810000000  0.4624940000000 1.0
C      1  0.4841930000000  0.5129610000000  0.4641410000000 1.0
C      1  0.4739960000000  0.5881240000000  0.5596060000000 1.0
C      1  0.4924700000000  0.5174910000000  0.4062190000000 1.0
C      1  0.4798740000000  0.4811160000000  0.4647440000000 1.0
C      1  0.3914330000000  0.4678200000000  0.5264090000000 1.0
C      1  0.4406550000000  0.5053260000000  0.4864720000000 1.0
C      1  0.5468280000000  0.3972300000000  0.5052980000000 1.0
C      1  0.5716180000000  0.4526020000000  0.5460810000000 1.0
C      1  0.4432210000000  0.5141490000000  0.5631680000000 1.0
C      1  0.5491400000000  0.5253140000000  0.5188110000000 1.0
C      1  0.5110640000000  0.4757550000000  0.6001600000000 1.0
C      1  0.4580310000000  0.4831280000000  0.4386930000000 1.0
C      1  0.4704000000000  0.4464940000000  0.5624950000000 1.0
C      1  0.4711040000000  0.5869840000000  0.5199170000000 1.0
C      1  0.4748900000000  0.5697840000000  0.4526970000000 1.0
C      1  0.5166030000000  0.5164960000000  0.5195190000000 1.0
C      1  0.4176520000000  0.5455580000000  0.4239940000000 1.0
C      1  0.4742450000000  0.4523650000000  0.5109380000000 1.0
C      1  0.5309670000000  0.5867890000000  0.5556020000000 1.0
C      1  0.5902650000000  0.5422980000000  0.5325560000000 1.0
C      1  0.4868670000000  0.5500930000000  0.4050540000000 1.0
C      1  0.5683910000000  0.4431120000000  0.4459020000000 1.0
C      1  0.4699890000000  0.4669150000000  0.5383160000000 1.0
C      1  0.5932040000000  0.5112200000000  0.5296430000000 1.0
C      1  0.4538060000000  0.5349690000000  0.4834840000000 1.0
C      1  0.5969490000000  0.5043640000000  0.5592330000000 1.0
C      1  0.5443980000000  0.4368600000000  0.5075930000000 1.0
C      1  0.4638340000000  0.5230600000000  0.4467390000000 1.0
C      1  0.5108640000000  0.5701980000000  0.5023780000000 1.0
C      1  0.5811830000000  0.5329220000000  0.4846740000000 1.0
C      1  0.5744600000000  0.4392050000000  0.5226970000000 1.0
C      1  0.4921200000000  0.4849680000000  0.5661830000000 1.0
C      1  0.4349560000000  0.5578110000000  0.5321720000000 1.0
C      1  0.5895500000000  0.5542490000000  0.5066520000000 1.0
C      1  0.4868220000000  0.4967150000000  0.5373860000000 1.0
C      1  0.5306250000000  0.5377260000000  0.5874780000000 1.0
C      1  0.5210960000000  0.4345610000000  0.4835960000000 1.0
C      1  0.5731760000000  0.4348580000000  0.4733200000000 1.0
C      1  0.4943550000000  0.5593010000000  0.4785330000000 1.0
C      1  0.4044500000000  0.5242750000000  0.5176080000000 1.0
C      1  0.4621640000000  0.4965080000000  0.5788140000000 1.0
C      1  0.4686200000000  0.4018520000000  0.4603260000000 1.0
C      1  0.4190490000000  0.5061530000000  0.4630490000000 1.0
C      1  0.4532100000000  0.5307320000000  0.5351150000000 1.0
C      1  0.4648010000000  0.4070330000000  0.4921440000000 1.0
C      1  0.4562100000000  0.5890770000000  0.4936170000000 1.0
C      1  0.6064620000000  0.5047570000000  0.4325660000000 1.0
C      1  0.4921910000000  0.5098380000000  0.5875990000000 1.0
C      1  0.5411960000000  0.4686060000000  0.4315610000000 1.0
C      1  0.5444670000000  0.4147210000000  0.5324490000000 1.0
C      1  0.4931750000000  0.4327310000000  0.4171050000000 1.0
C      1  0.5242970000000  0.5052990000000  0.5956900000000 1.0
C      1  0.4919470000000  0.5653140000000  0.4277300000000 1.0
C      1  0.3871400000000  0.5093910000000  0.5003590000000 1.0
C      1  0.4922250000000  0.5394380000000  0.5764130000000 1.0
C      1  0.4429870000000  0.5425250000000  0.5727430000000 1.0
C      1  0.5198340000000  0.4637210000000  0.5254000000000 1.0
C      1  0.5327530000000  0.5115640000000  0.4357300000000 1.0
C      1  0.5425330000000  0.4659230000000  0.5508780000000 1.0
C      1  0.5243630000000  0.5550920000000  0.5588710000000 1.0
C      1  0.4978850000000  0.4306170000000  0.5761640000000 1.0
C      1  0.4467800000000  0.5828630000000  0.5421680000000 1.0
END
