TITL C-2782230-7391-738 -0.0044195089698259 125000 -1193.44079096745 0 0 200 (C1) n - 1
REM
REM in /home/nfs/bkarasulu/CARBON/AIRSS/Generating-Clusters/REBO/Higher-Symm/SD-CG/HFTN-CG
REM
REM
REM
REM
REM
REM ./C.cell (12c818d87b63d06a65506943cc24bca4)
REM
REM compiler GCC version 9.2.1 20190827 (Red Hat 9.2.1-1)
REM options -cpp -mtune=generic -march=x86-64 -g -O0 -fpre-include=/usr/include/finclude/math-vector-fortran.h
REM seed 922785911 -1612737974 1871315351 1652759352 -935018532 830110405 -235083318 1269216053 1643936364 -1707207422 850794713 -151141372 -976262856 1841497339 -916251521 -1162385627 -1797680748 2047098850 -530746063 685796467 -1314413738 -245828971 -781675791 119742252 1281065446 1308578827 -2130830458 -231396332 1924546232 541531384 1775393055 -1541354935 -149825540
REM
CELL 1.54180   50.00000   50.00000   50.00000   90.00000   90.00000   90.00000
LATT -1
SFAC C  
C      1  0.6060580000000  0.5312050000000  0.5175320000000 1.0
C      1  0.5132530000000  0.5305340000000  0.6103390000000 1.0
C      1  0.4008980000000  0.5309090000000  0.5459240000000 1.0
C      1  0.4260800000000  0.5284670000000  0.4193980000000 1.0
C      1  0.5534690000000  0.5331040000000  0.4028440000000 1.0
C      1  0.5943060000000  0.4930440000000  0.4410930000000 1.0
C      1  0.5870330000000  0.4905120000000  0.5701420000000 1.0
C      1  0.4595200000000  0.4928460000000  0.6065530000000 1.0
C      1  0.3953230000000  0.4925940000000  0.4960810000000 1.0
C      1  0.4737870000000  0.4918130000000  0.3899580000000 1.0
C      1  0.4644510000000  0.5416860000000  0.5235260000000 1.0
C      1  0.4664670000000  0.5416810000000  0.4744030000000 1.0
C      1  0.5151090000000  0.5409830000000  0.4590610000000 1.0
C      1  0.5439040000000  0.5389410000000  0.4987650000000 1.0
C      1  0.5126890000000  0.5413510000000  0.5400670000000 1.0
C      1  0.4799050000000  0.4123930000000  0.5456880000000 1.0
C      1  0.4482980000000  0.4115460000000  0.4942250000000 1.0
C      1  0.4918720000000  0.4117740000000  0.4479890000000 1.0
C      1  0.5426580000000  0.4151910000000  0.4744080000000 1.0
C      1  0.5384960000000  0.4131960000000  0.5319250000000 1.0
C      1  0.4636850000000  0.5254270000000  0.6072990000000 1.0
C      1  0.3894170000000  0.5253190000000  0.4977570000000 1.0
C      1  0.4684070000000  0.5244640000000  0.3912560000000 1.0
C      1  0.5900080000000  0.5260750000000  0.4381670000000 1.0
C      1  0.5900810000000  0.5238590000000  0.5666490000000 1.0
C      1  0.5234060000000  0.6031750000000  0.4874710000000 1.0
C      1  0.5218940000000  0.6044350000000  0.5197260000000 1.0
C      1  0.4899810000000  0.6036170000000  0.5261990000000 1.0
C      1  0.4736320000000  0.6039660000000  0.4977410000000 1.0
C      1  0.4950110000000  0.6039270000000  0.4739700000000 1.0
C      1  0.5829940000000  0.4378890000000  0.4617520000000 1.0
C      1  0.5648990000000  0.4395370000000  0.5597470000000 1.0
C      1  0.4649110000000  0.4393020000000  0.5821350000000 1.0
C      1  0.4072990000000  0.4344260000000  0.4863920000000 1.0
C      1  0.4825540000000  0.4390910000000  0.4138930000000 1.0
C      1  0.5337320000000  0.5133590000000  0.5677810000000 1.0
C      1  0.4470870000000  0.5132510000000  0.5547020000000 1.0
C      1  0.4315350000000  0.5103360000000  0.4658720000000 1.0
C      1  0.5112470000000  0.5149780000000  0.4253530000000 1.0
C      1  0.5685140000000  0.5165730000000  0.4865710000000 1.0
C      1  0.3992870000000  0.4613250000000  0.5058670000000 1.0
C      1  0.4640220000000  0.4633670000000  0.4001890000000 1.0
C      1  0.5824290000000  0.4611540000000  0.4373170000000 1.0
C      1  0.5914260000000  0.4608360000000  0.5607840000000 1.0
C      1  0.4706710000000  0.4629410000000  0.6048160000000 1.0
C      1  0.4842560000000  0.4653610000000  0.5194820000000 1.0
C      1  0.4816700000000  0.4703400000000  0.4903810000000 1.0
C      1  0.5055750000000  0.4659600000000  0.4741080000000 1.0
C      1  0.5281230000000  0.4642450000000  0.4945770000000 1.0
C      1  0.5126940000000  0.4635390000000  0.5227010000000 1.0
C      1  0.5722370000000  0.5422020000000  0.4228150000000 1.0
C      1  0.5962650000000  0.5399340000000  0.5437240000000 1.0
C      1  0.4869180000000  0.5412210000000  0.6069160000000 1.0
C      1  0.3964200000000  0.5414270000000  0.5197540000000 1.0
C      1  0.4493110000000  0.5397160000000  0.4059900000000 1.0
C      1  0.5112140000000  0.5674130000000  0.4744070000000 1.0
C      1  0.5283250000000  0.5657930000000  0.5007730000000 1.0
C      1  0.5073410000000  0.5676020000000  0.5251820000000 1.0
C      1  0.4782450000000  0.5675850000000  0.5135750000000 1.0
C      1  0.4807450000000  0.5676230000000  0.4825170000000 1.0
C      1  0.5257450000000  0.5426950000000  0.3947880000000 1.0
C      1  0.6036620000000  0.5424430000000  0.4885610000000 1.0
C      1  0.5390630000000  0.5393220000000  0.5977160000000 1.0
C      1  0.4198740000000  0.5408310000000  0.5671660000000 1.0
C      1  0.4120460000000  0.5400130000000  0.4442660000000 1.0
C      1  0.5047020000000  0.4879660000000  0.3799780000000 1.0
C      1  0.6067530000000  0.4887170000000  0.4723530000000 1.0
C      1  0.5622690000000  0.4850730000000  0.5920910000000 1.0
C      1  0.4278310000000  0.4891790000000  0.5999930000000 1.0
C      1  0.3937780000000  0.4845800000000  0.4629340000000 1.0
C      1  0.6029080000000  0.5221530000000  0.4669690000000 1.0
C      1  0.5627100000000  0.5178950000000  0.5861130000000 1.0
C      1  0.4370720000000  0.5192290000000  0.5868780000000 1.0
C      1  0.3980820000000  0.5182080000000  0.4656590000000 1.0
C      1  0.5021730000000  0.5195130000000  0.3926290000000 1.0
C      1  0.5777090000000  0.5744760000000  0.5143210000000 1.0
C      1  0.5105960000000  0.5738900000000  0.5793940000000 1.0
C      1  0.4291030000000  0.5747650000000  0.5339360000000 1.0
C      1  0.4460020000000  0.5746300000000  0.4415250000000 1.0
C      1  0.5378940000000  0.5763050000000  0.4265710000000 1.0
C      1  0.5636080000000  0.5667700000000  0.4342610000000 1.0
C      1  0.5809170000000  0.5636020000000  0.5406220000000 1.0
C      1  0.4862380000000  0.5641130000000  0.5903120000000 1.0
C      1  0.4110640000000  0.5650510000000  0.5142220000000 1.0
C      1  0.4586290000000  0.5639470000000  0.4181530000000 1.0
C      1  0.5777250000000  0.4710630000000  0.4694750000000 1.0
C      1  0.5532730000000  0.4716880000000  0.5609630000000 1.0
C      1  0.4598710000000  0.4720270000000  0.5726440000000 1.0
C      1  0.4169880000000  0.4651140000000  0.4775250000000 1.0
C      1  0.4926510000000  0.4719010000000  0.4188130000000 1.0
C      1  0.4893540000000  0.3882190000000  0.5233010000000 1.0
C      1  0.4757270000000  0.3915140000000  0.4962280000000 1.0
C      1  0.4959220000000  0.3936510000000  0.4737700000000 1.0
C      1  0.5235990000000  0.3897810000000  0.4867790000000 1.0
C      1  0.5207420000000  0.3871400000000  0.5180100000000 1.0
C      1  0.5913030000000  0.5084710000000  0.5053030000000 1.0
C      1  0.5198670000000  0.5042740000000  0.5961630000000 1.0
C      1  0.4155270000000  0.5044200000000  0.5514260000000 1.0
C      1  0.4253930000000  0.5034590000000  0.4355350000000 1.0
C      1  0.5376230000000  0.5073740000000  0.4088160000000 1.0
C      1  0.4485770000000  0.4840950000000  0.5094670000000 1.0
C      1  0.4767870000000  0.4852270000000  0.4531720000000 1.0
C      1  0.5372480000000  0.4855840000000  0.4576710000000 1.0
C      1  0.5462300000000  0.4852430000000  0.5240430000000 1.0
C      1  0.4930550000000  0.4854410000000  0.5528730000000 1.0
C      1  0.5335000000000  0.4252380000000  0.4206790000000 1.0
C      1  0.5870120000000  0.4176300000000  0.5114870000000 1.0
C      1  0.5137260000000  0.4207550000000  0.5802020000000 1.0
C      1  0.4282200000000  0.4274340000000  0.5469400000000 1.0
C      1  0.4359750000000  0.4220710000000  0.4393030000000 1.0
C      1  0.4867580000000  0.4198570000000  0.5740930000000 1.0
C      1  0.4269950000000  0.4272540000000  0.5128790000000 1.0
C      1  0.4647950000000  0.4195430000000  0.4332710000000 1.0
C      1  0.5537770000000  0.4279890000000  0.4479690000000 1.0
C      1  0.5697020000000  0.4193500000000  0.5328010000000 1.0
C      1  0.5429140000000  0.5912280000000  0.5431970000000 1.0
C      1  0.4737450000000  0.5903510000000  0.5531560000000 1.0
C      1  0.4421970000000  0.5927710000000  0.4904540000000 1.0
C      1  0.4929690000000  0.5881800000000  0.4433570000000 1.0
C      1  0.5447190000000  0.5892080000000  0.4730260000000 1.0
C      1  0.4239440000000  0.5065260000000  0.5047920000000 1.0
C      1  0.4743710000000  0.5007580000000  0.4230020000000 1.0
C      1  0.5610130000000  0.4946780000000  0.4383020000000 1.0
C      1  0.5646260000000  0.5007490000000  0.5464700000000 1.0
C      1  0.4766850000000  0.5012940000000  0.5781740000000 1.0
C      1  0.4760210000000  0.5160860000000  0.4874490000000 1.0
C      1  0.5031770000000  0.5172370000000  0.4744310000000 1.0
C      1  0.5230900000000  0.5161050000000  0.4965820000000 1.0
C      1  0.5094060000000  0.5169220000000  0.5226620000000 1.0
C      1  0.4802590000000  0.5163730000000  0.5172840000000 1.0
C      1  0.5791430000000  0.4549100000000  0.4977360000000 1.0
C      1  0.5257600000000  0.4758980000000  0.5789810000000 1.0
C      1  0.4334990000000  0.4757260000000  0.5550540000000 1.0
C      1  0.4402950000000  0.4609470000000  0.4613340000000 1.0
C      1  0.5233420000000  0.4781660000000  0.4154430000000 1.0
C      1  0.5955020000000  0.4852660000000  0.5172010000000 1.0
C      1  0.5054820000000  0.4795100000000  0.6126710000000 1.0
C      1  0.3942470000000  0.4787510000000  0.5512820000000 1.0
C      1  0.4236720000000  0.4763820000000  0.4285510000000 1.0
C      1  0.5597240000000  0.4845050000000  0.4058300000000 1.0
C      1  0.5135800000000  0.4371850000000  0.4055620000000 1.0
C      1  0.6010890000000  0.4243440000000  0.4862590000000 1.0
C      1  0.5408120000000  0.4297920000000  0.5812220000000 1.0
C      1  0.4346550000000  0.4392310000000  0.5711040000000 1.0
C      1  0.4119320000000  0.4343950000000  0.4525390000000 1.0
C      1  0.4365990000000  0.5345780000000  0.5177050000000 1.0
C      1  0.4597760000000  0.5376670000000  0.4481250000000 1.0
C      1  0.5398800000000  0.5362590000000  0.4486900000000 1.0
C      1  0.5618490000000  0.5340410000000  0.5216950000000 1.0
C      1  0.5020400000000  0.5375390000000  0.5650890000000 1.0
C      1  0.5210910000000  0.4972650000000  0.5436970000000 1.0
C      1  0.4656640000000  0.4964270000000  0.5358960000000 1.0
C      1  0.4552950000000  0.4946740000000  0.4775940000000 1.0
C      1  0.5083590000000  0.4979950000000  0.4507350000000 1.0
C      1  0.5442540000000  0.4931140000000  0.4904820000000 1.0
C      1  0.4614810000000  0.5664090000000  0.5695570000000 1.0
C      1  0.4217050000000  0.5698250000000  0.4840280000000 1.0
C      1  0.4904330000000  0.5662620000000  0.4203350000000 1.0
C      1  0.5702260000000  0.5723530000000  0.4658730000000 1.0
C      1  0.5543570000000  0.5662090000000  0.5593870000000 1.0
C      1  0.4659870000000  0.5885340000000  0.4611640000000 1.0
C      1  0.5235250000000  0.5880570000000  0.4501920000000 1.0
C      1  0.5502530000000  0.5867210000000  0.5120500000000 1.0
C      1  0.5061300000000  0.5872570000000  0.5521520000000 1.0
C      1  0.4534400000000  0.5882590000000  0.5209900000000 1.0
C      1  0.4717770000000  0.4296740000000  0.5071280000000 1.0
C      1  0.4871570000000  0.4317810000000  0.4817070000000 1.0
C      1  0.5144500000000  0.4282790000000  0.4838620000000 1.0
C      1  0.5187240000000  0.4259550000000  0.5107700000000 1.0
C      1  0.4955970000000  0.4274030000000  0.5235860000000 1.0
C      1  0.6107960000000  0.4569980000000  0.4845910000000 1.0
C      1  0.5461400000000  0.4556300000000  0.5965900000000 1.0
C      1  0.4222730000000  0.4651090000000  0.5841370000000 1.0
C      1  0.4026900000000  0.4603120000000  0.4407940000000 1.0
C      1  0.5181030000000  0.4618290000000  0.3881010000000 1.0
C      1  0.5053300000000  0.4432970000000  0.4482110000000 1.0
C      1  0.5510020000000  0.4412380000000  0.4935530000000 1.0
C      1  0.5260940000000  0.4424550000000  0.5459420000000 1.0
C      1  0.4675390000000  0.4467930000000  0.5429490000000 1.0
C      1  0.4568720000000  0.4346400000000  0.4706870000000 1.0
C      1  0.4970300000000  0.4549860000000  0.5583110000000 1.0
C      1  0.4440280000000  0.4549870000000  0.5228360000000 1.0
C      1  0.4761960000000  0.4538170000000  0.4503030000000 1.0
C      1  0.5338580000000  0.4555170000000  0.4465630000000 1.0
C      1  0.5508390000000  0.4536880000000  0.5254720000000 1.0
C      1  0.4831210000000  0.5336220000000  0.4269100000000 1.0
C      1  0.5626510000000  0.5397980000000  0.4636990000000 1.0
C      1  0.5550740000000  0.5334500000000  0.5502940000000 1.0
C      1  0.4705050000000  0.5335790000000  0.5690210000000 1.0
C      1  0.4262150000000  0.5365500000000  0.4870410000000 1.0
C      1  0.4123170000000  0.4610640000000  0.5325710000000 1.0
C      1  0.4513010000000  0.4625640000000  0.4290380000000 1.0
C      1  0.5553430000000  0.4585610000000  0.4223390000000 1.0
C      1  0.5834700000000  0.4590490000000  0.5303020000000 1.0
C      1  0.4998130000000  0.4568620000000  0.5903180000000 1.0
C      1  0.5187250000000  0.5657490000000  0.4085670000000 1.0
C      1  0.5887040000000  0.5667440000000  0.4895370000000 1.0
C      1  0.5360980000000  0.5629700000000  0.5832120000000 1.0
C      1  0.4332300000000  0.5640020000000  0.5594910000000 1.0
C      1  0.4233320000000  0.5636030000000  0.4537940000000 1.0
END
