TITL C-2782231-7322-295 -0.00336526133578908 125000 -863.546621806677 0 0 150 (C1) n - 1
REM
REM in /home/nfs/bkarasulu/CARBON/AIRSS/Generating-Clusters/REBO/Higher-Symm/SD-CG/HFTN-CG
REM
REM
REM
REM
REM
REM ./C.cell (12c818d87b63d06a65506943cc24bca4)
REM
REM compiler GCC version 9.2.1 20190827 (Red Hat 9.2.1-1)
REM options -cpp -mtune=generic -march=x86-64 -g -O0 -fpre-include=/usr/include/finclude/math-vector-fortran.h
REM seed 857558999 -1380991262 -204099123 -1816235684 -1329173298 -393658058 1416455775 -1880438117 1236067859 -578517540 -611745516 -515495313 1790534267 1374783567 -317327812 -1161177010 -262177849 32442968 1009317540 837675107 -234571774 -1401073705 -679271922 602505976 -24517461 -1012694055 1792487551 627640011 1987151848 -1405971523 -1185493567 2101314612 1738202109
REM
CELL 1.54180   50.00000   50.00000   50.00000   90.00000   90.00000   90.00000
LATT -1
SFAC C  
C      1  0.4275540000000  0.5137280000000  0.5250210000000 1.0
C      1  0.5750120000000  0.5146810000000  0.5446030000000 1.0
C      1  0.5074300000000  0.5080270000000  0.4248870000000 1.0
C      1  0.6055380000000  0.4762720000000  0.5146800000000 1.0
C      1  0.4552110000000  0.4769510000000  0.4107230000000 1.0
C      1  0.4476840000000  0.4830700000000  0.5779900000000 1.0
C      1  0.4337820000000  0.4576670000000  0.4821350000000 1.0
C      1  0.5228780000000  0.4666160000000  0.5654730000000 1.0
C      1  0.5467170000000  0.4781940000000  0.4417420000000 1.0
C      1  0.5036410000000  0.6024550000000  0.4836820000000 1.0
C      1  0.4851310000000  0.6097130000000  0.5114000000000 1.0
C      1  0.5177800000000  0.6003720000000  0.5134070000000 1.0
C      1  0.5155190000000  0.5781530000000  0.5371210000000 1.0
C      1  0.5217740000000  0.5810840000000  0.4684940000000 1.0
C      1  0.4636700000000  0.5841860000000  0.5120200000000 1.0
C      1  0.5200300000000  0.4092140000000  0.5311770000000 1.0
C      1  0.5147270000000  0.4036700000000  0.4688550000000 1.0
C      1  0.4652020000000  0.4057640000000  0.5051780000000 1.0
C      1  0.4824010000000  0.5617070000000  0.5658740000000 1.0
C      1  0.5689470000000  0.5643340000000  0.4670880000000 1.0
C      1  0.4377910000000  0.5642650000000  0.4719710000000 1.0
C      1  0.5454520000000  0.4972880000000  0.4667300000000 1.0
C      1  0.4412110000000  0.4900460000000  0.4738630000000 1.0
C      1  0.5106560000000  0.4953660000000  0.5516970000000 1.0
C      1  0.4990090000000  0.5326300000000  0.5595410000000 1.0
C      1  0.5606020000000  0.5335390000000  0.4723500000000 1.0
C      1  0.4542450000000  0.5360370000000  0.4720800000000 1.0
C      1  0.5272240000000  0.4711970000000  0.3983800000000 1.0
C      1  0.4028680000000  0.4707090000000  0.5033790000000 1.0
C      1  0.5613120000000  0.4740890000000  0.5732310000000 1.0
C      1  0.6050980000000  0.5399380000000  0.5743500000000 1.0
C      1  0.4875570000000  0.5892520000000  0.3899930000000 1.0
C      1  0.3853610000000  0.5401060000000  0.5367380000000 1.0
C      1  0.4320600000000  0.4284920000000  0.5001150000000 1.0
C      1  0.5340080000000  0.4345490000000  0.5587870000000 1.0
C      1  0.5351050000000  0.4460290000000  0.4425990000000 1.0
C      1  0.5623380000000  0.4459170000000  0.5691270000000 1.0
C      1  0.5105720000000  0.4368580000000  0.4258040000000 1.0
C      1  0.4122460000000  0.4474290000000  0.5186930000000 1.0
C      1  0.4948520000000  0.4501500000000  0.4082820000000 1.0
C      1  0.4291030000000  0.4567780000000  0.5426500000000 1.0
C      1  0.5868090000000  0.4382400000000  0.5567310000000 1.0
C      1  0.6011950000000  0.4574720000000  0.5422840000000 1.0
C      1  0.4811470000000  0.4739120000000  0.4010990000000 1.0
C      1  0.4251520000000  0.4771510000000  0.5624720000000 1.0
C      1  0.5281210000000  0.4713150000000  0.5948310000000 1.0
C      1  0.5734600000000  0.4788750000000  0.4302610000000 1.0
C      1  0.4024590000000  0.4647710000000  0.4731350000000 1.0
C      1  0.4535100000000  0.5850090000000  0.4796690000000 1.0
C      1  0.4905980000000  0.5839150000000  0.5530160000000 1.0
C      1  0.5523760000000  0.5833500000000  0.4770630000000 1.0
C      1  0.4835410000000  0.5782360000000  0.4785140000000 1.0
C      1  0.4775370000000  0.6056780000000  0.5426630000000 1.0
C      1  0.5416790000000  0.5799880000000  0.5069990000000 1.0
C      1  0.5941260000000  0.4763820000000  0.4507730000000 1.0
C      1  0.4036240000000  0.4589150000000  0.4420190000000 1.0
C      1  0.5015950000000  0.4720830000000  0.6094920000000 1.0
C      1  0.5206390000000  0.4788360000000  0.4248700000000 1.0
C      1  0.4295330000000  0.4905450000000  0.5042570000000 1.0
C      1  0.5543760000000  0.4902100000000  0.5510070000000 1.0
C      1  0.5859560000000  0.5320710000000  0.4512990000000 1.0
C      1  0.4248260000000  0.5282900000000  0.4609610000000 1.0
C      1  0.5004150000000  0.5374190000000  0.5916790000000 1.0
C      1  0.4997970000000  0.5208900000000  0.4506800000000 1.0
C      1  0.4587610000000  0.5172010000000  0.5244910000000 1.0
C      1  0.5482400000000  0.5199110000000  0.5241950000000 1.0
C      1  0.5382940000000  0.5680960000000  0.5814500000000 1.0
C      1  0.5592970000000  0.5571370000000  0.4165560000000 1.0
C      1  0.4012770000000  0.5648730000000  0.4882750000000 1.0
C      1  0.4989380000000  0.4400050000000  0.4638230000000 1.0
C      1  0.4661410000000  0.4474240000000  0.5074340000000 1.0
C      1  0.5258860000000  0.4548170000000  0.5256860000000 1.0
C      1  0.4636290000000  0.4292960000000  0.5803830000000 1.0
C      1  0.5820140000000  0.4299300000000  0.4905630000000 1.0
C      1  0.4452290000000  0.4118620000000  0.4301900000000 1.0
C      1  0.6001050000000  0.5359860000000  0.4975810000000 1.0
C      1  0.4531770000000  0.5334780000000  0.4229310000000 1.0
C      1  0.4536820000000  0.5335050000000  0.5763560000000 1.0
C      1  0.4213690000000  0.4876540000000  0.4465870000000 1.0
C      1  0.4971460000000  0.4933440000000  0.5829870000000 1.0
C      1  0.5761970000000  0.4931080000000  0.4743100000000 1.0
C      1  0.4730910000000  0.4880540000000  0.5626710000000 1.0
C      1  0.5778770000000  0.4916090000000  0.5068520000000 1.0
C      1  0.4512630000000  0.4927240000000  0.4355070000000 1.0
C      1  0.5923000000000  0.5384690000000  0.5498480000000 1.0
C      1  0.4788820000000  0.5699100000000  0.4068200000000 1.0
C      1  0.4127490000000  0.5380670000000  0.5401460000000 1.0
C      1  0.4971980000000  0.4469490000000  0.5677530000000 1.0
C      1  0.5526360000000  0.4522730000000  0.4714070000000 1.0
C      1  0.4437020000000  0.4353880000000  0.4624760000000 1.0
C      1  0.4700860000000  0.5302140000000  0.4977340000000 1.0
C      1  0.5204440000000  0.5247450000000  0.5369740000000 1.0
C      1  0.5275250000000  0.5263060000000  0.4686420000000 1.0
C      1  0.5229170000000  0.5530240000000  0.5984160000000 1.0
C      1  0.5796710000000  0.5416490000000  0.4257580000000 1.0
C      1  0.4039230000000  0.5421940000000  0.4735810000000 1.0
C      1  0.4506690000000  0.4256270000000  0.5288500000000 1.0
C      1  0.5462360000000  0.4292390000000  0.5271150000000 1.0
C      1  0.4961250000000  0.4138540000000  0.4422430000000 1.0
C      1  0.4744200000000  0.5394660000000  0.4471650000000 1.0
C      1  0.4689040000000  0.5265200000000  0.5531030000000 1.0
C      1  0.5714820000000  0.5236940000000  0.4996190000000 1.0
C      1  0.4713110000000  0.4358570000000  0.4797080000000 1.0
C      1  0.5000240000000  0.4454300000000  0.5349730000000 1.0
C      1  0.5220780000000  0.4493810000000  0.4861100000000 1.0
C      1  0.4353050000000  0.5814580000000  0.5234520000000 1.0
C      1  0.5579860000000  0.5757720000000  0.5319100000000 1.0
C      1  0.5146080000000  0.5738500000000  0.4403810000000 1.0
C      1  0.4142020000000  0.5821490000000  0.5047390000000 1.0
C      1  0.5407410000000  0.5757290000000  0.5548480000000 1.0
C      1  0.5360410000000  0.5693610000000  0.4227980000000 1.0
C      1  0.5138370000000  0.4797810000000  0.4960250000000 1.0
C      1  0.4940610000000  0.4875930000000  0.4715030000000 1.0
C      1  0.4878010000000  0.5013170000000  0.5020660000000 1.0
C      1  0.4693190000000  0.4797190000000  0.6013140000000 1.0
C      1  0.6056280000000  0.4763530000000  0.4830230000000 1.0
C      1  0.4281220000000  0.4647030000000  0.4191310000000 1.0
C      1  0.5832870000000  0.4537870000000  0.4735100000000 1.0
C      1  0.4279370000000  0.4358500000000  0.4352860000000 1.0
C      1  0.4808090000000  0.4493600000000  0.5946470000000 1.0
C      1  0.5935020000000  0.4890890000000  0.5433310000000 1.0
C      1  0.4959310000000  0.4983200000000  0.4002000000000 1.0
C      1  0.4124780000000  0.4999370000000  0.5512230000000 1.0
C      1  0.4646800000000  0.4036920000000  0.4504830000000 1.0
C      1  0.4720780000000  0.4189830000000  0.5545660000000 1.0
C      1  0.5552920000000  0.4213210000000  0.4964270000000 1.0
C      1  0.4834770000000  0.5569380000000  0.5047070000000 1.0
C      1  0.5119250000000  0.5522040000000  0.5186780000000 1.0
C      1  0.5277080000000  0.5540380000000  0.4884950000000 1.0
C      1  0.4719110000000  0.5360420000000  0.5989410000000 1.0
C      1  0.6082300000000  0.5344610000000  0.4700750000000 1.0
C      1  0.4278900000000  0.5249430000000  0.4327770000000 1.0
C      1  0.4889370000000  0.5650470000000  0.4331840000000 1.0
C      1  0.4317360000000  0.5647700000000  0.5444460000000 1.0
C      1  0.5827000000000  0.5654720000000  0.5341470000000 1.0
C      1  0.4820440000000  0.4945590000000  0.5332340000000 1.0
C      1  0.5440340000000  0.4946710000000  0.5008300000000 1.0
C      1  0.4697300000000  0.5017320000000  0.4592980000000 1.0
C      1  0.4885390000000  0.4155240000000  0.5246220000000 1.0
C      1  0.5208310000000  0.4178280000000  0.4989910000000 1.0
C      1  0.4844070000000  0.4041490000000  0.4786880000000 1.0
C      1  0.4590400000000  0.5502470000000  0.4007580000000 1.0
C      1  0.4292010000000  0.5452800000000  0.5690220000000 1.0
C      1  0.6063960000000  0.5494450000000  0.5209730000000 1.0
C      1  0.4468220000000  0.4672370000000  0.5188570000000 1.0
C      1  0.5398040000000  0.4789840000000  0.5298420000000 1.0
C      1  0.5024450000000  0.4678110000000  0.4496870000000 1.0
C      1  0.4449400000000  0.4058180000000  0.4784480000000 1.0
C      1  0.5058480000000  0.4152380000000  0.5602950000000 1.0
C      1  0.5410930000000  0.4210910000000  0.4651930000000 1.0
END
