TITL C-2782225-7408-460 0.00255653149859825 125000 -336.768150539681 0 0 58 (C1) n - 1
REM
REM in /home/nfs/bkarasulu/CARBON/AIRSS/Generating-Clusters/REBO/Higher-Symm/SD-CG/HFTN-CG
REM
REM
REM
REM
REM
REM ./C.cell (12c818d87b63d06a65506943cc24bca4)
REM
REM compiler GCC version 9.2.1 20190827 (Red Hat 9.2.1-1)
REM options -cpp -mtune=generic -march=x86-64 -g -O0 -fpre-include=/usr/include/finclude/math-vector-fortran.h
REM seed 1147915943 1237819151 423834220 624020773 1559438935 -1394526442 1771025207 1380594613 -1149161790 -1174961681 1843933329 -1124250161 -10910453 1986309223 1232400949 -1646958111 -2049758390 -322378962 749999641 -1390892088 1056950199 92044566 -2089561462 -1130776628 -1471289298 -143213067 2108253107 1943833790 -711241350 470524908 1048704890 -2102084454 1903781923
REM
CELL 1.54180   50.00000   50.00000   50.00000   90.00000   90.00000   90.00000
LATT -1
SFAC C  
C      1  0.4875000000000  0.5592930000000  0.5402580000000 1.0
C      1  0.5118060000000  0.5581190000000  0.4624680000000 1.0
C      1  0.5152960000000  0.5583340000000  0.5412270000000 1.0
C      1  0.4839790000000  0.5575780000000  0.4612340000000 1.0
C      1  0.4499350000000  0.5259160000000  0.5391860000000 1.0
C      1  0.5524100000000  0.5286370000000  0.4606690000000 1.0
C      1  0.5542660000000  0.5294680000000  0.5473070000000 1.0
C      1  0.4467740000000  0.5261040000000  0.4538510000000 1.0
C      1  0.4493790000000  0.4390440000000  0.4752120000000 1.0
C      1  0.5490090000000  0.4420070000000  0.5208170000000 1.0
C      1  0.5402250000000  0.4407370000000  0.4702290000000 1.0
C      1  0.4519800000000  0.4433450000000  0.5310750000000 1.0
C      1  0.5552110000000  0.4637640000000  0.4780560000000 1.0
C      1  0.4426380000000  0.4667630000000  0.5158810000000 1.0
C      1  0.4346370000000  0.4604910000000  0.4871930000000 1.0
C      1  0.5583720000000  0.4659410000000  0.5080730000000 1.0
C      1  0.4771980000000  0.4935030000000  0.4319820000000 1.0
C      1  0.5287290000000  0.4963260000000  0.5733200000000 1.0
C      1  0.5309840000000  0.4967370000000  0.4297710000000 1.0
C      1  0.4748860000000  0.4935800000000  0.5679200000000 1.0
C      1  0.5618990000000  0.5405080000000  0.5197200000000 1.0
C      1  0.4367240000000  0.5363440000000  0.4813260000000 1.0
C      1  0.4422980000000  0.5374580000000  0.5118110000000 1.0
C      1  0.5564050000000  0.5381340000000  0.4894510000000 1.0
C      1  0.5101930000000  0.5089330000000  0.4811820000000 1.0
C      1  0.4856510000000  0.5157240000000  0.5117320000000 1.0
C      1  0.4778730000000  0.5075850000000  0.4797610000000 1.0
C      1  0.5184560000000  0.5127270000000  0.5138940000000 1.0
C      1  0.4703940000000  0.5390580000000  0.4422840000000 1.0
C      1  0.5304400000000  0.5414050000000  0.5600610000000 1.0
C      1  0.5302010000000  0.5410590000000  0.4456960000000 1.0
C      1  0.4713300000000  0.5386630000000  0.5546790000000 1.0
C      1  0.5206820000000  0.4383780000000  0.5157370000000 1.0
C      1  0.4785670000000  0.4511240000000  0.4846230000000 1.0
C      1  0.4801300000000  0.4529320000000  0.5142920000000 1.0
C      1  0.5155400000000  0.4364220000000  0.4878050000000 1.0
C      1  0.5515430000000  0.4980430000000  0.5487830000000 1.0
C      1  0.4514400000000  0.4954080000000  0.4523920000000 1.0
C      1  0.4506080000000  0.4936880000000  0.5448140000000 1.0
C      1  0.5516430000000  0.4968540000000  0.4563680000000 1.0
C      1  0.4756250000000  0.4713750000000  0.4571790000000 1.0
C      1  0.5270930000000  0.4740040000000  0.5504940000000 1.0
C      1  0.5269860000000  0.4735340000000  0.4515640000000 1.0
C      1  0.4769320000000  0.4720550000000  0.5423690000000 1.0
C      1  0.4700720000000  0.5395650000000  0.4834000000000 1.0
C      1  0.5288880000000  0.5436920000000  0.5176200000000 1.0
C      1  0.5226930000000  0.5396720000000  0.4849200000000 1.0
C      1  0.4749800000000  0.5462410000000  0.5155900000000 1.0
C      1  0.4612910000000  0.4952170000000  0.5138360000000 1.0
C      1  0.5371360000000  0.4912950000000  0.4858510000000 1.0
C      1  0.5435380000000  0.4922620000000  0.5190300000000 1.0
C      1  0.4502870000000  0.4879090000000  0.4831740000000 1.0
C      1  0.4860860000000  0.5196890000000  0.5712010000000 1.0
C      1  0.5168100000000  0.5217060000000  0.4282450000000 1.0
C      1  0.5146850000000  0.5213810000000  0.5747320000000 1.0
C      1  0.4880180000000  0.5198640000000  0.4284950000000 1.0
C      1  0.5064180000000  0.4592500000000  0.5350120000000 1.0
C      1  0.5052310000000  0.4592880000000  0.4651480000000 1.0
END
