TITL C-2782227-3064-545 -0.00102325985166678 125000 -479.382641649458 0 0 85 (C1) n - 1
REM
REM in /home/nfs/bkarasulu/CARBON/AIRSS/Generating-Clusters/REBO/Higher-Symm/SD-CG/HFTN-CG
REM
REM
REM
REM
REM
REM ./C.cell (12c818d87b63d06a65506943cc24bca4)
REM
REM compiler GCC version 9.2.1 20190827 (Red Hat 9.2.1-1)
REM options -cpp -mtune=generic -march=x86-64 -g -O0 -fpre-include=/usr/include/finclude/math-vector-fortran.h
REM seed -684675406 808761148 1797011646 -1765021 1932770540 1579455307 -194370674 -1718817586 -1453265009 -687645250 616045807 -1277782330 -161632100 -2108237055 1992682094 -2025365191 -1054742559 262185594 1091147031 -1659622239 1314348444 1864266524 -528330407 1827789780 1942188670 -287996435 -250635734 1323471864 -424525826 -450064550 -15606921 771881933 486918336
REM
CELL 1.54180   50.00000   50.00000   50.00000   90.00000   90.00000   90.00000
LATT -1
SFAC C  
C      1  0.4476960000000  0.5242730000000  0.5043900000000 1.0
C      1  0.4817810000000  0.4434100000000  0.5176140000000 1.0
C      1  0.5544020000000  0.4779520000000  0.5125980000000 1.0
C      1  0.5221800000000  0.5557700000000  0.5187850000000 1.0
C      1  0.5546560000000  0.5221830000000  0.4826770000000 1.0
C      1  0.5207520000000  0.4427380000000  0.4858480000000 1.0
C      1  0.4419360000000  0.4810010000000  0.4810410000000 1.0
C      1  0.4775880000000  0.5530200000000  0.4920480000000 1.0
C      1  0.4347000000000  0.4948180000000  0.5472570000000 1.0
C      1  0.5070080000000  0.4320850000000  0.5597550000000 1.0
C      1  0.5717300000000  0.5032990000000  0.5538230000000 1.0
C      1  0.5043940000000  0.5698170000000  0.5637070000000 1.0
C      1  0.5690990000000  0.4993980000000  0.4395760000000 1.0
C      1  0.4933930000000  0.4272770000000  0.4459770000000 1.0
C      1  0.4282390000000  0.4991600000000  0.4346060000000 1.0
C      1  0.5042840000000  0.5701700000000  0.4502600000000 1.0
C      1  0.4788250000000  0.4956540000000  0.4184700000000 1.0
C      1  0.5033520000000  0.4723480000000  0.4200370000000 1.0
C      1  0.5204920000000  0.5018090000000  0.4208380000000 1.0
C      1  0.4958460000000  0.5252510000000  0.4194700000000 1.0
C      1  0.5278290000000  0.4972750000000  0.5801760000000 1.0
C      1  0.4982910000000  0.4803930000000  0.5788570000000 1.0
C      1  0.4739890000000  0.5035150000000  0.5804460000000 1.0
C      1  0.5030930000000  0.5206090000000  0.5823990000000 1.0
C      1  0.5289840000000  0.5653690000000  0.5458590000000 1.0
C      1  0.4406190000000  0.5246210000000  0.5340680000000 1.0
C      1  0.4785350000000  0.4333070000000  0.5449590000000 1.0
C      1  0.5667120000000  0.4745510000000  0.5397050000000 1.0
C      1  0.4748830000000  0.5629390000000  0.4630960000000 1.0
C      1  0.5648980000000  0.5263490000000  0.4545840000000 1.0
C      1  0.5236570000000  0.4276190000000  0.4589110000000 1.0
C      1  0.4334170000000  0.4737370000000  0.4535830000000 1.0
C      1  0.4790410000000  0.5070680000000  0.4505850000000 1.0
C      1  0.4872560000000  0.4739320000000  0.4506460000000 1.0
C      1  0.5155990000000  0.4911340000000  0.4527560000000 1.0
C      1  0.5080810000000  0.5239150000000  0.4515170000000 1.0
C      1  0.5252210000000  0.5139770000000  0.5503060000000 1.0
C      1  0.5092540000000  0.4855610000000  0.5470390000000 1.0
C      1  0.4757310000000  0.4914770000000  0.5480350000000 1.0
C      1  0.4918970000000  0.5213630000000  0.5497890000000 1.0
C      1  0.5208210000000  0.5199380000000  0.4799720000000 1.0
C      1  0.4801920000000  0.5212580000000  0.4799520000000 1.0
C      1  0.4760090000000  0.4814570000000  0.4809830000000 1.0
C      1  0.5179280000000  0.4763650000000  0.4802340000000 1.0
C      1  0.4780040000000  0.5190600000000  0.5193220000000 1.0
C      1  0.5177570000000  0.5222910000000  0.5193600000000 1.0
C      1  0.5212080000000  0.4805410000000  0.5195640000000 1.0
C      1  0.4809160000000  0.4775430000000  0.5198370000000 1.0
C      1  0.5484230000000  0.5137530000000  0.4206960000000 1.0
C      1  0.4837420000000  0.5512370000000  0.4312330000000 1.0
C      1  0.4518850000000  0.4806480000000  0.4222880000000 1.0
C      1  0.5167380000000  0.4477560000000  0.4321160000000 1.0
C      1  0.4500890000000  0.5169760000000  0.5666070000000 1.0
C      1  0.5198180000000  0.5470550000000  0.5796180000000 1.0
C      1  0.5535840000000  0.4833380000000  0.5728140000000 1.0
C      1  0.4864120000000  0.4528720000000  0.5752480000000 1.0
C      1  0.4317620000000  0.5247250000000  0.4445020000000 1.0
C      1  0.4694480000000  0.4376850000000  0.4570780000000 1.0
C      1  0.5667850000000  0.4755320000000  0.4529210000000 1.0
C      1  0.5251220000000  0.5681990000000  0.4672410000000 1.0
C      1  0.5619580000000  0.5278400000000  0.5429520000000 1.0
C      1  0.5304970000000  0.4392070000000  0.5449420000000 1.0
C      1  0.4431800000000  0.4691950000000  0.5395130000000 1.0
C      1  0.4791870000000  0.5672030000000  0.5527870000000 1.0
C      1  0.4523950000000  0.5482630000000  0.5544060000000 1.0
C      1  0.4572050000000  0.4529040000000  0.5581120000000 1.0
C      1  0.5510940000000  0.4534740000000  0.5585700000000 1.0
C      1  0.5474020000000  0.5457850000000  0.5608890000000 1.0
C      1  0.5520570000000  0.5434600000000  0.4315420000000 1.0
C      1  0.5439740000000  0.4523570000000  0.4520710000000 1.0
C      1  0.4525910000000  0.4522370000000  0.4399410000000 1.0
C      1  0.4522120000000  0.5502550000000  0.4424490000000 1.0
C      1  0.5269600000000  0.4493430000000  0.5176430000000 1.0
C      1  0.5500140000000  0.5272570000000  0.5160400000000 1.0
C      1  0.4688830000000  0.5512780000000  0.5246730000000 1.0
C      1  0.4509250000000  0.4663570000000  0.5082160000000 1.0
C      1  0.4699480000000  0.4487040000000  0.4859430000000 1.0
C      1  0.4494690000000  0.5334030000000  0.4718690000000 1.0
C      1  0.5273830000000  0.5504110000000  0.4877980000000 1.0
C      1  0.5505560000000  0.4685910000000  0.4814150000000 1.0
C      1  0.4291810000000  0.5049390000000  0.4907780000000 1.0
C      1  0.4991430000000  0.4261410000000  0.5012080000000 1.0
C      1  0.5705410000000  0.4989060000000  0.4976290000000 1.0
C      1  0.4978790000000  0.5706990000000  0.5054850000000 1.0
C      1  0.4995110000000  0.4994810000000  0.4995950000000 1.0
END
