TITL C-2782229-3092-974 4.53527608579486e-05 125000 -459.18066165741 0 0 79 (C1) n - 1
REM
REM in /home/nfs/bkarasulu/CARBON/AIRSS/Generating-Clusters/REBO/Higher-Symm/SD-CG/HFTN-CG
REM
REM
REM
REM
REM
REM ./C.cell (12c818d87b63d06a65506943cc24bca4)
REM
REM compiler GCC version 9.2.1 20190827 (Red Hat 9.2.1-1)
REM options -cpp -mtune=generic -march=x86-64 -g -O0 -fpre-include=/usr/include/finclude/math-vector-fortran.h
REM seed -2098919155 1856418662 1847253861 -743986474 718695053 1760312805 -646168083 -629666193 -407413131 369093300 2124232201 -1327508443 664910335 -1506483418 -1488497600 1895888872 1852917622 1155211843 1670428373 2093543490 -109861314 150810687 -1424059964 -425084734 -643334999 -1871206146 -855901626 7577542 1910660419 -979887017 1228763119 -71672640 538816474
REM
CELL 1.54180   50.00000   50.00000   50.00000   90.00000   90.00000   90.00000
LATT -1
SFAC C  
C      1  0.4443310000000  0.5238240000000  0.5418120000000 1.0
C      1  0.5558570000000  0.4764120000000  0.5423890000000 1.0
C      1  0.4434430000000  0.4791610000000  0.4566660000000 1.0
C      1  0.5559430000000  0.5228250000000  0.4566350000000 1.0
C      1  0.5238960000000  0.4371200000000  0.4759970000000 1.0
C      1  0.4769930000000  0.5594100000000  0.4759320000000 1.0
C      1  0.5236800000000  0.5622030000000  0.5239360000000 1.0
C      1  0.4783990000000  0.4382460000000  0.5246060000000 1.0
C      1  0.5633220000000  0.5444020000000  0.5256930000000 1.0
C      1  0.4377810000000  0.4539530000000  0.5258450000000 1.0
C      1  0.5634270000000  0.4551850000000  0.4733460000000 1.0
C      1  0.4367400000000  0.5458580000000  0.4715280000000 1.0
C      1  0.5487330000000  0.5549970000000  0.4790860000000 1.0
C      1  0.4556340000000  0.4491130000000  0.4797980000000 1.0
C      1  0.5499470000000  0.4438120000000  0.5201110000000 1.0
C      1  0.4554810000000  0.5529890000000  0.5169600000000 1.0
C      1  0.4597180000000  0.4947400000000  0.5478440000000 1.0
C      1  0.5381670000000  0.5037990000000  0.5470480000000 1.0
C      1  0.4610500000000  0.5067590000000  0.4512700000000 1.0
C      1  0.5378970000000  0.4957690000000  0.4523950000000 1.0
C      1  0.5220740000000  0.4647600000000  0.4878090000000 1.0
C      1  0.4782380000000  0.5283570000000  0.4827160000000 1.0
C      1  0.5217600000000  0.5348160000000  0.5120360000000 1.0
C      1  0.4807370000000  0.4671450000000  0.5154650000000 1.0
C      1  0.4860420000000  0.4248260000000  0.4722220000000 1.0
C      1  0.5149790000000  0.5747270000000  0.4716000000000 1.0
C      1  0.4861660000000  0.5753530000000  0.5283690000000 1.0
C      1  0.5160690000000  0.4244220000000  0.5281860000000 1.0
C      1  0.4780030000000  0.4423900000000  0.5575140000000 1.0
C      1  0.5230160000000  0.5559230000000  0.5565200000000 1.0
C      1  0.4776690000000  0.5575790000000  0.4421940000000 1.0
C      1  0.5222800000000  0.4437330000000  0.4432540000000 1.0
C      1  0.4314540000000  0.5487840000000  0.4995770000000 1.0
C      1  0.5719500000000  0.4512060000000  0.5007420000000 1.0
C      1  0.4319460000000  0.4522010000000  0.4979050000000 1.0
C      1  0.5711700000000  0.5483200000000  0.4981650000000 1.0
C      1  0.5165100000000  0.4190810000000  0.4973970000000 1.0
C      1  0.4844000000000  0.5766480000000  0.4972760000000 1.0
C      1  0.5158550000000  0.5797400000000  0.5020980000000 1.0
C      1  0.4851700000000  0.4205410000000  0.5031440000000 1.0
C      1  0.4777470000000  0.4647410000000  0.4849770000000 1.0
C      1  0.5270960000000  0.5381580000000  0.4821320000000 1.0
C      1  0.4773260000000  0.5366090000000  0.5132600000000 1.0
C      1  0.5285620000000  0.4608180000000  0.5176550000000 1.0
C      1  0.5726050000000  0.4765740000000  0.5185920000000 1.0
C      1  0.4269790000000  0.5251620000000  0.5187380000000 1.0
C      1  0.5724590000000  0.5229810000000  0.4805080000000 1.0
C      1  0.4271350000000  0.4770060000000  0.4799910000000 1.0
C      1  0.4542190000000  0.5371890000000  0.4520260000000 1.0
C      1  0.5449050000000  0.4641520000000  0.4550610000000 1.0
C      1  0.4548130000000  0.4627170000000  0.5455370000000 1.0
C      1  0.5452370000000  0.5353920000000  0.5443370000000 1.0
C      1  0.4995630000000  0.5154820000000  0.5265960000000 1.0
C      1  0.5066420000000  0.4819240000000  0.5256470000000 1.0
C      1  0.5007090000000  0.4832250000000  0.4706580000000 1.0
C      1  0.5060780000000  0.5169150000000  0.4731450000000 1.0
C      1  0.4869150000000  0.4955860000000  0.4354290000000 1.0
C      1  0.5122290000000  0.5057780000000  0.4353360000000 1.0
C      1  0.4868390000000  0.5048090000000  0.5627930000000 1.0
C      1  0.5118670000000  0.4939790000000  0.5633210000000 1.0
C      1  0.4918920000000  0.5540000000000  0.5467860000000 1.0
C      1  0.5097870000000  0.4439830000000  0.5486370000000 1.0
C      1  0.4908660000000  0.4457590000000  0.4524220000000 1.0
C      1  0.5090640000000  0.5553960000000  0.4509670000000 1.0
C      1  0.5370430000000  0.5079950000000  0.5149420000000 1.0
C      1  0.4583570000000  0.4884580000000  0.5151780000000 1.0
C      1  0.5370350000000  0.4918860000000  0.4847190000000 1.0
C      1  0.4585550000000  0.5034590000000  0.4845320000000 1.0
C      1  0.4724310000000  0.5720620000000  0.4193260000000 1.0
C      1  0.5275030000000  0.4318050000000  0.4189810000000 1.0
C      1  0.4724070000000  0.4298980000000  0.5813980000000 1.0
C      1  0.5281630000000  0.5674380000000  0.5809420000000 1.0
C      1  0.4740610000000  0.5316540000000  0.5527570000000 1.0
C      1  0.5265830000000  0.4669330000000  0.5568330000000 1.0
C      1  0.4730960000000  0.4690630000000  0.4455810000000 1.0
C      1  0.5265410000000  0.5327760000000  0.4427550000000 1.0
C      1  0.5652480000000  0.4998610000000  0.4997420000000 1.0
C      1  0.4301780000000  0.5003570000000  0.5016510000000 1.0
C      1  0.4990940000000  0.4985860000000  0.4991070000000 1.0
END
