TITL C-2782233-7966-734 9.22285088999013e-06 125000 -261.141650953233 0 0 45 (C1) n - 1
REM
REM in /home/nfs/bkarasulu/CARBON/AIRSS/Generating-Clusters/REBO/Higher-Symm/SD-CG/HFTN-CG
REM
REM
REM
REM
REM
REM ./C.cell (12c818d87b63d06a65506943cc24bca4)
REM
REM compiler GCC version 9.2.1 20190827 (Red Hat 9.2.1-1)
REM options -cpp -mtune=generic -march=x86-64 -g -O0 -fpre-include=/usr/include/finclude/math-vector-fortran.h
REM seed -1795290976 460159444 -412455779 -63682391 2011156611 -1919107991 787856730 -1238178278 1990906666 -209563896 -550062997 -821036159 1636322533 -1135013617 1624511993 -852559189 -1779768573 -85009556 -201258469 89154772 1949793177 -89880968 1183315065 1028194101 -75208023 1438854988 538694852 198582073 -1657638302 -1696364086 752621428 1602222428 -1812538147
REM
CELL 1.54180   50.00000   50.00000   50.00000   90.00000   90.00000   90.00000
LATT -1
SFAC C  
C      1  0.4579720000000  0.5046790000000  0.4918530000000 1.0
C      1  0.4709400000000  0.4409930000000  0.5461650000000 1.0
C      1  0.4618860000000  0.4974510000000  0.3785900000000 1.0
C      1  0.5967840000000  0.5318590000000  0.5560120000000 1.0
C      1  0.5719050000000  0.5122560000000  0.5084060000000 1.0
C      1  0.4127400000000  0.4870920000000  0.4610310000000 1.0
C      1  0.4846080000000  0.5459290000000  0.5022260000000 1.0
C      1  0.4317520000000  0.4538540000000  0.5094150000000 1.0
C      1  0.5068420000000  0.5981810000000  0.4960600000000 1.0
C      1  0.5099890000000  0.4940580000000  0.4056250000000 1.0
C      1  0.5067630000000  0.4749560000000  0.5784590000000 1.0
C      1  0.5600460000000  0.4604180000000  0.5774130000000 1.0
C      1  0.4619270000000  0.4971710000000  0.4641420000000 1.0
C      1  0.4267930000000  0.4339890000000  0.5281860000000 1.0
C      1  0.5473610000000  0.4638200000000  0.6018890000000 1.0
C      1  0.6117560000000  0.5194560000000  0.5362490000000 1.0
C      1  0.5548860000000  0.5260930000000  0.5307230000000 1.0
C      1  0.4094870000000  0.4926260000000  0.4879690000000 1.0
C      1  0.4806780000000  0.5933600000000  0.4882340000000 1.0
C      1  0.4771460000000  0.4614840000000  0.5274350000000 1.0
C      1  0.5121260000000  0.5509910000000  0.5098040000000 1.0
C      1  0.5186890000000  0.4717630000000  0.5528300000000 1.0
C      1  0.4863840000000  0.4959280000000  0.4217750000000 1.0
C      1  0.4855140000000  0.4955910000000  0.3641250000000 1.0
C      1  0.4466130000000  0.4276550000000  0.5465870000000 1.0
C      1  0.4623020000000  0.4976130000000  0.4063230000000 1.0
C      1  0.5694250000000  0.5349380000000  0.5530780000000 1.0
C      1  0.5994820000000  0.5100200000000  0.5132820000000 1.0
C      1  0.4703090000000  0.5678720000000  0.4913180000000 1.0
C      1  0.5461180000000  0.4642760000000  0.5537290000000 1.0
C      1  0.4380160000000  0.4897030000000  0.4501700000000 1.0
C      1  0.4316620000000  0.5007930000000  0.5023050000000 1.0
C      1  0.4561260000000  0.4671090000000  0.5091110000000 1.0
C      1  0.5216610000000  0.5772820000000  0.5065470000000 1.0
C      1  0.5095680000000  0.4938960000000  0.3778920000000 1.0
C      1  0.5205660000000  0.4711320000000  0.6022220000000 1.0
C      1  0.5036160000000  0.4759390000000  0.5270400000000 1.0
C      1  0.5293320000000  0.4874280000000  0.4842050000000 1.0
C      1  0.4868110000000  0.4960930000000  0.4500920000000 1.0
C      1  0.5438780000000  0.5084490000000  0.4970080000000 1.0
C      1  0.5209640000000  0.4669170000000  0.5023130000000 1.0
C      1  0.4784130000000  0.5182060000000  0.5068990000000 1.0
C      1  0.5249700000000  0.5246670000000  0.5186930000000 1.0
C      1  0.5113560000000  0.4935080000000  0.4634440000000 1.0
C      1  0.4999360000000  0.5059170000000  0.5209260000000 1.0
END
