TITL C-2782232-2968-451 0.00245715470912343 125000 -932.437257356739 0 0 148 (C1) n - 1
REM
REM in /home/nfs/bkarasulu/CARBON/AIRSS/Generating-Clusters/REBO/Higher-Symm/SD-CG/HFTN-CG
REM
REM
REM
REM
REM
REM ./C.cell (12c818d87b63d06a65506943cc24bca4)
REM
REM compiler GCC version 9.2.1 20190827 (Red Hat 9.2.1-1)
REM options -cpp -mtune=generic -march=x86-64 -g -O0 -fpre-include=/usr/include/finclude/math-vector-fortran.h
REM seed -2022450700 538177064 1202019995 1334492509 1666465754 1321922486 943499776 716107971 -2036778599 367768910 1966623050 411504387 -24926640 -1684028689 1216189100 2063281609 1124032504 2107804309 -301091352 -1395914517 -934007762 -1737050077 -1531433079 -25840037 289926919 -1781006782 506693140 761247179 1775323825 -963651265 -188196173 716577035 1299092713
REM
CELL 1.54180   50.00000   50.00000   50.00000   90.00000   90.00000   90.00000
LATT -1
SFAC C  
C      1  0.4913130000000  0.5520510000000  0.4687450000000 1.0
C      1  0.4751050000000  0.4908190000000  0.5500300000000 1.0
C      1  0.5524990000000  0.4731950000000  0.4894890000000 1.0
C      1  0.5129180000000  0.4496430000000  0.4744530000000 1.0
C      1  0.5101920000000  0.5575310000000  0.5192890000000 1.0
C      1  0.4876610000000  0.4494480000000  0.5279750000000 1.0
C      1  0.5262810000000  0.5095010000000  0.5580750000000 1.0
C      1  0.5295140000000  0.4874150000000  0.4486900000000 1.0
C      1  0.4766000000000  0.5077500000000  0.4537930000000 1.0
C      1  0.4340640000000  0.5225560000000  0.4909300000000 1.0
C      1  0.4478190000000  0.4740670000000  0.5125550000000 1.0
C      1  0.5522080000000  0.5285430000000  0.5116780000000 1.0
C      1  0.5507060000000  0.4919020000000  0.4695120000000 1.0
C      1  0.4927280000000  0.4701490000000  0.5490990000000 1.0
C      1  0.4741400000000  0.5565760000000  0.4876590000000 1.0
C      1  0.4485190000000  0.5057150000000  0.4734370000000 1.0
C      1  0.5466030000000  0.5042770000000  0.5240780000000 1.0
C      1  0.4508080000000  0.4929780000000  0.5322810000000 1.0
C      1  0.5093710000000  0.5264880000000  0.5582240000000 1.0
C      1  0.4950530000000  0.5301970000000  0.4488760000000 1.0
C      1  0.5107590000000  0.4677970000000  0.4507420000000 1.0
C      1  0.5316320000000  0.4520220000000  0.4935280000000 1.0
C      1  0.4681300000000  0.4523940000000  0.5091490000000 1.0
C      1  0.5319110000000  0.5503820000000  0.5054510000000 1.0
C      1  0.5019390000000  0.5990220000000  0.5187260000000 1.0
C      1  0.5193850000000  0.5016150000000  0.5998120000000 1.0
C      1  0.6010510000000  0.5187920000000  0.5023990000000 1.0
C      1  0.4992460000000  0.3992530000000  0.5217590000000 1.0
C      1  0.4988960000000  0.5981880000000  0.4790530000000 1.0
C      1  0.5005970000000  0.3994640000000  0.4739870000000 1.0
C      1  0.4795950000000  0.5000510000000  0.5972790000000 1.0
C      1  0.4756450000000  0.5001930000000  0.4009680000000 1.0
C      1  0.5237490000000  0.5007800000000  0.3975050000000 1.0
C      1  0.3965410000000  0.4758930000000  0.5010540000000 1.0
C      1  0.3952440000000  0.5239640000000  0.5004630000000 1.0
C      1  0.5998840000000  0.4791200000000  0.4990380000000 1.0
C      1  0.5999560000000  0.4984720000000  0.5248690000000 1.0
C      1  0.4994790000000  0.5245740000000  0.5989540000000 1.0
C      1  0.5245840000000  0.5979220000000  0.4984650000000 1.0
C      1  0.3971900000000  0.4989200000000  0.5209830000000 1.0
C      1  0.6012830000000  0.4996380000000  0.4766300000000 1.0
C      1  0.3971950000000  0.5006320000000  0.4812180000000 1.0
C      1  0.4991700000000  0.4768820000000  0.5992650000000 1.0
C      1  0.5009250000000  0.4810080000000  0.3984230000000 1.0
C      1  0.4984080000000  0.5206400000000  0.4010910000000 1.0
C      1  0.4796550000000  0.3999510000000  0.4987020000000 1.0
C      1  0.5195450000000  0.4015790000000  0.4976670000000 1.0
C      1  0.4762820000000  0.5995990000000  0.4996320000000 1.0
C      1  0.4679270000000  0.4469390000000  0.5721330000000 1.0
C      1  0.5742780000000  0.4686610000000  0.4454000000000 1.0
C      1  0.4444310000000  0.5745760000000  0.4679170000000 1.0
C      1  0.5325560000000  0.5545650000000  0.5746460000000 1.0
C      1  0.5324560000000  0.4481980000000  0.4234900000000 1.0
C      1  0.4670650000000  0.5519340000000  0.4280320000000 1.0
C      1  0.4247090000000  0.5311790000000  0.4497180000000 1.0
C      1  0.4259410000000  0.4682150000000  0.5514150000000 1.0
C      1  0.5742850000000  0.5317450000000  0.5549860000000 1.0
C      1  0.5520050000000  0.4280810000000  0.4668040000000 1.0
C      1  0.5543820000000  0.5725030000000  0.5315330000000 1.0
C      1  0.4470390000000  0.4257110000000  0.5308530000000 1.0
C      1  0.4479420000000  0.4684960000000  0.5713510000000 1.0
C      1  0.4658140000000  0.5742400000000  0.4474800000000 1.0
C      1  0.5737680000000  0.4482890000000  0.4665700000000 1.0
C      1  0.5530220000000  0.5331160000000  0.5760640000000 1.0
C      1  0.4461800000000  0.5312880000000  0.4290110000000 1.0
C      1  0.5538900000000  0.4682170000000  0.4234960000000 1.0
C      1  0.5324750000000  0.4274120000000  0.4448940000000 1.0
C      1  0.4671640000000  0.4250680000000  0.5521020000000 1.0
C      1  0.5328570000000  0.5735280000000  0.5516500000000 1.0
C      1  0.4228630000000  0.5537520000000  0.4686560000000 1.0
C      1  0.5758500000000  0.5519570000000  0.5337120000000 1.0
C      1  0.4255790000000  0.4466650000000  0.5313650000000 1.0
C      1  0.5463730000000  0.5088210000000  0.5925840000000 1.0
C      1  0.5928670000000  0.5452410000000  0.5101910000000 1.0
C      1  0.5084300000000  0.5887510000000  0.5446300000000 1.0
C      1  0.4538890000000  0.4931560000000  0.5864040000000 1.0
C      1  0.4508080000000  0.5071340000000  0.4129270000000 1.0
C      1  0.5494660000000  0.4918130000000  0.4061520000000 1.0
C      1  0.4072860000000  0.4506550000000  0.5085300000000 1.0
C      1  0.4047730000000  0.5496800000000  0.4923990000000 1.0
C      1  0.5908250000000  0.4531750000000  0.4904170000000 1.0
C      1  0.4906440000000  0.4077340000000  0.5474050000000 1.0
C      1  0.4907490000000  0.5895600000000  0.4529920000000 1.0
C      1  0.5086050000000  0.4105070000000  0.4488930000000 1.0
C      1  0.5073590000000  0.5503080000000  0.5902400000000 1.0
C      1  0.5499470000000  0.5876630000000  0.5065060000000 1.0
C      1  0.5894750000000  0.5068160000000  0.5501220000000 1.0
C      1  0.4919940000000  0.4515710000000  0.5885970000000 1.0
C      1  0.5084150000000  0.4546810000000  0.4069290000000 1.0
C      1  0.4914590000000  0.5461460000000  0.4121410000000 1.0
C      1  0.4532660000000  0.4097560000000  0.5063800000000 1.0
C      1  0.5455450000000  0.4125220000000  0.4911800000000 1.0
C      1  0.4505490000000  0.5893500000000  0.4928790000000 1.0
C      1  0.4084810000000  0.4919510000000  0.5464030000000 1.0
C      1  0.5910260000000  0.4925200000000  0.4508850000000 1.0
C      1  0.4082740000000  0.5071180000000  0.4557550000000 1.0
C      1  0.5141890000000  0.4123400000000  0.5647390000000 1.0
C      1  0.5669810000000  0.5149540000000  0.4120300000000 1.0
C      1  0.4109050000000  0.5658120000000  0.5161490000000 1.0
C      1  0.4835180000000  0.5810320000000  0.5592680000000 1.0
C      1  0.4845000000000  0.4207210000000  0.4346140000000 1.0
C      1  0.5139510000000  0.5867750000000  0.4340630000000 1.0
C      1  0.4357620000000  0.4831030000000  0.4220250000000 1.0
C      1  0.4373520000000  0.5171220000000  0.5790720000000 1.0
C      1  0.5641260000000  0.4854240000000  0.5894880000000 1.0
C      1  0.5869170000000  0.4347190000000  0.5137440000000 1.0
C      1  0.5899540000000  0.5628270000000  0.4862570000000 1.0
C      1  0.4132160000000  0.4343330000000  0.4843820000000 1.0
C      1  0.4122910000000  0.5161970000000  0.5637040000000 1.0
C      1  0.5158520000000  0.5632890000000  0.4162950000000 1.0
C      1  0.5626170000000  0.4181290000000  0.5154290000000 1.0
C      1  0.5804250000000  0.4831420000000  0.5657610000000 1.0
C      1  0.4117120000000  0.4828630000000  0.4386600000000 1.0
C      1  0.5834350000000  0.5172680000000  0.4358360000000 1.0
C      1  0.4839450000000  0.4380520000000  0.4111040000000 1.0
C      1  0.5164910000000  0.4358880000000  0.5815120000000 1.0
C      1  0.4839800000000  0.5671920000000  0.5844540000000 1.0
C      1  0.4362430000000  0.5789380000000  0.5170260000000 1.0
C      1  0.5670410000000  0.5807720000000  0.4827600000000 1.0
C      1  0.4378230000000  0.4187110000000  0.4821700000000 1.0
C      1  0.4628790000000  0.4816140000000  0.4411510000000 1.0
C      1  0.4376660000000  0.4586700000000  0.4839110000000 1.0
C      1  0.4851080000000  0.4396550000000  0.4625980000000 1.0
C      1  0.5435600000000  0.5152930000000  0.4378790000000 1.0
C      1  0.5407370000000  0.4840170000000  0.5617270000000 1.0
C      1  0.4630640000000  0.5203220000000  0.5586400000000 1.0
C      1  0.5636490000000  0.5409710000000  0.4833130000000 1.0
C      1  0.5624460000000  0.4580290000000  0.5180450000000 1.0
C      1  0.4352820000000  0.5384850000000  0.5155980000000 1.0
C      1  0.5189890000000  0.5614200000000  0.4560210000000 1.0
C      1  0.5156230000000  0.4383410000000  0.5416010000000 1.0
C      1  0.4829470000000  0.5599390000000  0.5339480000000 1.0
C      1  0.4824300000000  0.4605240000000  0.4366830000000 1.0
C      1  0.4640160000000  0.4386680000000  0.4811650000000 1.0
C      1  0.4358030000000  0.4787310000000  0.4617230000000 1.0
C      1  0.5230770000000  0.5356880000000  0.4341730000000 1.0
C      1  0.4836280000000  0.5410990000000  0.5591660000000 1.0
C      1  0.5208280000000  0.4630620000000  0.5634990000000 1.0
C      1  0.5393300000000  0.5634090000000  0.4766350000000 1.0
C      1  0.4610370000000  0.5578240000000  0.5150260000000 1.0
C      1  0.5362920000000  0.4369010000000  0.5213960000000 1.0
C      1  0.5650820000000  0.5201230000000  0.4633570000000 1.0
C      1  0.4353750000000  0.5206430000000  0.5393270000000 1.0
C      1  0.5625980000000  0.4801100000000  0.5376330000000 1.0
C      1  0.5205840000000  0.4962480000000  0.5188950000000 1.0
C      1  0.4907800000000  0.4860660000000  0.5124810000000 1.0
C      1  0.5013650000000  0.5159550000000  0.5022640000000 1.0
C      1  0.4779240000000  0.5000760000000  0.4853830000000 1.0
END
