TITL C-2782230-7391-1456 -0.000197333307565928 125000 -954.249845879878 0 0 168 (C1) n - 1
REM
REM in /home/nfs/bkarasulu/CARBON/AIRSS/Generating-Clusters/REBO/Higher-Symm/SD-CG/HFTN-CG
REM
REM
REM
REM
REM
REM ./C.cell (12c818d87b63d06a65506943cc24bca4)
REM
REM compiler GCC version 9.2.1 20190827 (Red Hat 9.2.1-1)
REM options -cpp -mtune=generic -march=x86-64 -g -O0 -fpre-include=/usr/include/finclude/math-vector-fortran.h
REM seed 632079087 1421326647 -1623239439 1298829458 1495087824 1409248159 1110623420 589555372 1775515722 -1438071271 1210403015 -1620844565 -787761626 -809356453 192988405 704808078 -1201779598 -2078562410 -1279480224 -2024213046 809939283 -1965327318 517256842 -1806920569 -629757514 1454042710 35378195 946296262 915154352 1610833815 1693717449 1945306322 -420129007
REM
CELL 1.54180   50.00000   50.00000   50.00000   90.00000   90.00000   90.00000
LATT -1
SFAC C  
C      1  0.4977040000000  0.5807650000000  0.4306180000000 1.0
C      1  0.5001360000000  0.5825340000000  0.5752260000000 1.0
C      1  0.4940300000000  0.4151540000000  0.4287910000000 1.0
C      1  0.5071440000000  0.4156680000000  0.5691880000000 1.0
C      1  0.4270770000000  0.5823840000000  0.4968540000000 1.0
C      1  0.5612470000000  0.5784130000000  0.4986510000000 1.0
C      1  0.4349410000000  0.4169990000000  0.5014570000000 1.0
C      1  0.5654590000000  0.4159890000000  0.4978470000000 1.0
C      1  0.5598720000000  0.4084390000000  0.5305730000000 1.0
C      1  0.4426030000000  0.4040080000000  0.4709010000000 1.0
C      1  0.4341770000000  0.5821720000000  0.5253160000000 1.0
C      1  0.5551160000000  0.5846180000000  0.4659430000000 1.0
C      1  0.5389430000000  0.4142450000000  0.5576560000000 1.0
C      1  0.4644500000000  0.4095580000000  0.4446990000000 1.0
C      1  0.5287700000000  0.5857250000000  0.4432550000000 1.0
C      1  0.4696020000000  0.5853010000000  0.5709950000000 1.0
C      1  0.5757280000000  0.5316040000000  0.5578080000000 1.0
C      1  0.4192410000000  0.5354270000000  0.4409810000000 1.0
C      1  0.4272720000000  0.4699850000000  0.5570060000000 1.0
C      1  0.5757310000000  0.4685420000000  0.4431870000000 1.0
C      1  0.5557860000000  0.5355360000000  0.5801870000000 1.0
C      1  0.4413680000000  0.5402620000000  0.4180740000000 1.0
C      1  0.5515640000000  0.4666970000000  0.4239220000000 1.0
C      1  0.4496080000000  0.4653460000000  0.5770240000000 1.0
C      1  0.5184680000000  0.5048720000000  0.5770740000000 1.0
C      1  0.4890700000000  0.4987890000000  0.4244680000000 1.0
C      1  0.4835390000000  0.5019970000000  0.5781150000000 1.0
C      1  0.5234950000000  0.4950390000000  0.4215540000000 1.0
C      1  0.5753660000000  0.4978760000000  0.5175300000000 1.0
C      1  0.4225670000000  0.5113260000000  0.4844710000000 1.0
C      1  0.5774060000000  0.4989280000000  0.4830880000000 1.0
C      1  0.4233690000000  0.5049870000000  0.5183120000000 1.0
C      1  0.4802950000000  0.5023080000000  0.4633670000000 1.0
C      1  0.5133580000000  0.5095870000000  0.5393110000000 1.0
C      1  0.5187500000000  0.4943230000000  0.4611200000000 1.0
C      1  0.4763750000000  0.4966980000000  0.5398860000000 1.0
C      1  0.4522920000000  0.5094360000000  0.4755120000000 1.0
C      1  0.5355090000000  0.5001330000000  0.5199400000000 1.0
C      1  0.4619910000000  0.4974480000000  0.5121550000000 1.0
C      1  0.5401590000000  0.4870640000000  0.4829760000000 1.0
C      1  0.4709530000000  0.4773800000000  0.4930260000000 1.0
C      1  0.5249650000000  0.4699480000000  0.5057570000000 1.0
C      1  0.5228380000000  0.5148780000000  0.4951060000000 1.0
C      1  0.4704180000000  0.5254330000000  0.4971700000000 1.0
C      1  0.4981480000000  0.4754420000000  0.4774090000000 1.0
C      1  0.5006650000000  0.4810190000000  0.5238510000000 1.0
C      1  0.4899850000000  0.5240990000000  0.5219170000000 1.0
C      1  0.5016590000000  0.5225250000000  0.4733840000000 1.0
C      1  0.5626900000000  0.5375490000000  0.4915450000000 1.0
C      1  0.4372200000000  0.5449470000000  0.5062730000000 1.0
C      1  0.4383480000000  0.4551830000000  0.4907020000000 1.0
C      1  0.5624960000000  0.4566010000000  0.5065020000000 1.0
C      1  0.4975490000000  0.5450270000000  0.5617820000000 1.0
C      1  0.4991490000000  0.5380560000000  0.4367760000000 1.0
C      1  0.4996600000000  0.4534020000000  0.4380220000000 1.0
C      1  0.5017060000000  0.4594520000000  0.5624670000000 1.0
C      1  0.5570790000000  0.5003860000000  0.4258840000000 1.0
C      1  0.4492240000000  0.4990760000000  0.5760920000000 1.0
C      1  0.4497100000000  0.5111680000000  0.4334180000000 1.0
C      1  0.5527190000000  0.5032290000000  0.5740660000000 1.0
C      1  0.4246560000000  0.5018700000000  0.5523250000000 1.0
C      1  0.5820400000000  0.4997360000000  0.4492060000000 1.0
C      1  0.4214530000000  0.5038870000000  0.4512750000000 1.0
C      1  0.5782390000000  0.4999430000000  0.5514720000000 1.0
C      1  0.4938470000000  0.5514780000000  0.4737830000000 1.0
C      1  0.5031370000000  0.5524280000000  0.5231670000000 1.0
C      1  0.5062580000000  0.4452460000000  0.4761310000000 1.0
C      1  0.4981200000000  0.4472030000000  0.5247570000000 1.0
C      1  0.4732410000000  0.5598110000000  0.4978980000000 1.0
C      1  0.5247350000000  0.5473290000000  0.4983070000000 1.0
C      1  0.4757550000000  0.4471710000000  0.5012840000000 1.0
C      1  0.5277720000000  0.4381460000000  0.4997860000000 1.0
C      1  0.4524280000000  0.4378530000000  0.4301060000000 1.0
C      1  0.5602760000000  0.4233320000000  0.5804730000000 1.0
C      1  0.5554840000000  0.5817330000000  0.4262230000000 1.0
C      1  0.4417670000000  0.5803330000000  0.5775710000000 1.0
C      1  0.4274810000000  0.4242870000000  0.4486750000000 1.0
C      1  0.5786670000000  0.4176280000000  0.5548150000000 1.0
C      1  0.4219660000000  0.5817030000000  0.5515820000000 1.0
C      1  0.5809750000000  0.5803360000000  0.4465900000000 1.0
C      1  0.4978130000000  0.4869690000000  0.6055160000000 1.0
C      1  0.5083340000000  0.4878480000000  0.3917350000000 1.0
C      1  0.5061760000000  0.5179710000000  0.6061640000000 1.0
C      1  0.5008610000000  0.5180240000000  0.3986200000000 1.0
C      1  0.6056130000000  0.4840320000000  0.4960200000000 1.0
C      1  0.3958750000000  0.4899080000000  0.5045610000000 1.0
C      1  0.6051150000000  0.5126870000000  0.5077840000000 1.0
C      1  0.3934240000000  0.5205660000000  0.4974420000000 1.0
C      1  0.4142560000000  0.4535970000000  0.5387870000000 1.0
C      1  0.5884680000000  0.4510150000000  0.4607170000000 1.0
C      1  0.5856110000000  0.5488050000000  0.5386300000000 1.0
C      1  0.4077750000000  0.5510110000000  0.4604440000000 1.0
C      1  0.5308830000000  0.4531920000000  0.4130520000000 1.0
C      1  0.4689130000000  0.4498750000000  0.5874000000000 1.0
C      1  0.5372740000000  0.5489130000000  0.5942310000000 1.0
C      1  0.4621750000000  0.5521030000000  0.4046760000000 1.0
C      1  0.5943820000000  0.5285730000000  0.4617090000000 1.0
C      1  0.4106830000000  0.5319850000000  0.5447830000000 1.0
C      1  0.4107930000000  0.4742650000000  0.4601400000000 1.0
C      1  0.5911490000000  0.4697830000000  0.5419750000000 1.0
C      1  0.4552730000000  0.5282200000000  0.5927540000000 1.0
C      1  0.5498010000000  0.5310300000000  0.4128030000000 1.0
C      1  0.4594470000000  0.4869160000000  0.4114170000000 1.0
C      1  0.5437180000000  0.4744610000000  0.5891790000000 1.0
C      1  0.5135800000000  0.5799990000000  0.4936090000000 1.0
C      1  0.4763590000000  0.5941080000000  0.4956900000000 1.0
C      1  0.4767450000000  0.4147730000000  0.4923650000000 1.0
C      1  0.5270460000000  0.4037430000000  0.5010800000000 1.0
C      1  0.4952540000000  0.5849690000000  0.5216430000000 1.0
C      1  0.4935000000000  0.5853960000000  0.4682650000000 1.0
C      1  0.5037300000000  0.4048960000000  0.4778890000000 1.0
C      1  0.5005290000000  0.4136240000000  0.5166470000000 1.0
C      1  0.4854550000000  0.4698910000000  0.3971550000000 1.0
C      1  0.5173130000000  0.4671540000000  0.5984680000000 1.0
C      1  0.5228560000000  0.5373030000000  0.4046750000000 1.0
C      1  0.4815750000000  0.5352280000000  0.6013150000000 1.0
C      1  0.4009970000000  0.4677700000000  0.4875750000000 1.0
C      1  0.6007970000000  0.4625740000000  0.5150300000000 1.0
C      1  0.3998860000000  0.5397210000000  0.5194560000000 1.0
C      1  0.6021800000000  0.5343610000000  0.4893080000000 1.0
C      1  0.5295680000000  0.4451320000000  0.4521340000000 1.0
C      1  0.4729410000000  0.4477980000000  0.5477000000000 1.0
C      1  0.4669140000000  0.5367110000000  0.4483420000000 1.0
C      1  0.5274130000000  0.5495090000000  0.5460280000000 1.0
C      1  0.4500870000000  0.4493580000000  0.5223120000000 1.0
C      1  0.5521430000000  0.4460980000000  0.4757810000000 1.0
C      1  0.4487270000000  0.5497880000000  0.4742180000000 1.0
C      1  0.5496700000000  0.5479250000000  0.5214340000000 1.0
C      1  0.4407070000000  0.4634850000000  0.4188560000000 1.0
C      1  0.5621060000000  0.4539240000000  0.5837790000000 1.0
C      1  0.5658660000000  0.5522200000000  0.4228720000000 1.0
C      1  0.4372300000000  0.5494030000000  0.5864850000000 1.0
C      1  0.4188150000000  0.4555370000000  0.4407730000000 1.0
C      1  0.5822900000000  0.4488700000000  0.5593810000000 1.0
C      1  0.4174310000000  0.5526270000000  0.5628020000000 1.0
C      1  0.5889180000000  0.5501780000000  0.4444410000000 1.0
C      1  0.5856430000000  0.5568280000000  0.5070750000000 1.0
C      1  0.4092460000000  0.5566700000000  0.4911260000000 1.0
C      1  0.4135360000000  0.4429430000000  0.5074870000000 1.0
C      1  0.5880010000000  0.4408200000000  0.4921220000000 1.0
C      1  0.5069850000000  0.5552280000000  0.5916640000000 1.0
C      1  0.4943090000000  0.5557520000000  0.4095110000000 1.0
C      1  0.4989800000000  0.4420380000000  0.4084520000000 1.0
C      1  0.5010500000000  0.4404780000000  0.5896950000000 1.0
C      1  0.4586560000000  0.5624630000000  0.5266650000000 1.0
C      1  0.5442580000000  0.5548440000000  0.4713070000000 1.0
C      1  0.5475180000000  0.4372950000000  0.5264000000000 1.0
C      1  0.4508150000000  0.4365530000000  0.4704080000000 1.0
C      1  0.5185790000000  0.5573410000000  0.4548080000000 1.0
C      1  0.4758040000000  0.5643650000000  0.5498040000000 1.0
C      1  0.5242470000000  0.4424770000000  0.5453990000000 1.0
C      1  0.4798740000000  0.4367580000000  0.4591710000000 1.0
C      1  0.4521330000000  0.5838130000000  0.4740790000000 1.0
C      1  0.5349310000000  0.5790230000000  0.5202410000000 1.0
C      1  0.5427380000000  0.4133450000000  0.4724150000000 1.0
C      1  0.4613240000000  0.4170630000000  0.5229610000000 1.0
C      1  0.4702160000000  0.5707400000000  0.4481330000000 1.0
C      1  0.5152240000000  0.5812940000000  0.5480430000000 1.0
C      1  0.4858340000000  0.4161260000000  0.5466240000000 1.0
C      1  0.5165950000000  0.4139090000000  0.4502420000000 1.0
C      1  0.4507280000000  0.4762740000000  0.4670000000000 1.0
C      1  0.5530540000000  0.4763170000000  0.5326210000000 1.0
C      1  0.5514490000000  0.5158210000000  0.4679090000000 1.0
C      1  0.4490930000000  0.5239570000000  0.5304530000000 1.0
C      1  0.4763500000000  0.4743910000000  0.4445590000000 1.0
C      1  0.5265520000000  0.4812270000000  0.5538160000000 1.0
C      1  0.4712570000000  0.5253730000000  0.5564100000000 1.0
C      1  0.5275230000000  0.5202220000000  0.4437440000000 1.0
END
