TITL C-2782228-2999-738 0.00177395377625611 125000 -1050.68373710956 0 0 185 (C1) n - 1
REM
REM in /home/nfs/bkarasulu/CARBON/AIRSS/Generating-Clusters/REBO/Higher-Symm/SD-CG/HFTN-CG
REM
REM
REM
REM
REM
REM ./C.cell (12c818d87b63d06a65506943cc24bca4)
REM
REM compiler GCC version 9.2.1 20190827 (Red Hat 9.2.1-1)
REM options -cpp -mtune=generic -march=x86-64 -g -O0 -fpre-include=/usr/include/finclude/math-vector-fortran.h
REM seed -772590269 502559837 528219737 -359496106 2092185952 1953063085 -18367377 634845687 1795017137 1142817887 -1132246889 -1769339491 -299043283 503266685 1314607629 -1416617312 1250988100 292270312 -376871628 192788530 -1831103408 -2055629519 -981728969 -44117388 -2003872235 -306247630 1522379705 -217093868 555593735 376680072 -705609057 -2138451958 230652251
REM
CELL 1.54180   50.00000   50.00000   50.00000   90.00000   90.00000   90.00000
LATT -1
SFAC C  
C      1  0.4267580000000  0.5362880000000  0.4813690000000 1.0
C      1  0.4227890000000  0.4628080000000  0.4757580000000 1.0
C      1  0.5953260000000  0.5161540000000  0.4230200000000 1.0
C      1  0.5954950000000  0.4853760000000  0.4229520000000 1.0
C      1  0.5822670000000  0.5788330000000  0.4666160000000 1.0
C      1  0.5792580000000  0.4290390000000  0.4744450000000 1.0
C      1  0.5878560000000  0.5326160000000  0.5857450000000 1.0
C      1  0.5808070000000  0.4585620000000  0.5802820000000 1.0
C      1  0.4260410000000  0.5530540000000  0.5176700000000 1.0
C      1  0.4300450000000  0.4486960000000  0.5261420000000 1.0
C      1  0.5127610000000  0.4369530000000  0.5430430000000 1.0
C      1  0.5076230000000  0.5618270000000  0.5418050000000 1.0
C      1  0.4202380000000  0.4221920000000  0.5067340000000 1.0
C      1  0.4240020000000  0.5870860000000  0.5109340000000 1.0
C      1  0.5900140000000  0.4477100000000  0.5257030000000 1.0
C      1  0.6107230000000  0.5352630000000  0.5353330000000 1.0
C      1  0.5686620000000  0.5171530000000  0.4680800000000 1.0
C      1  0.5724320000000  0.4836380000000  0.4719870000000 1.0
C      1  0.4842800000000  0.5470630000000  0.5565130000000 1.0
C      1  0.4841990000000  0.4483680000000  0.5519930000000 1.0
C      1  0.5342570000000  0.4469070000000  0.4709610000000 1.0
C      1  0.5371870000000  0.5567510000000  0.4655600000000 1.0
C      1  0.5580780000000  0.5956300000000  0.4769620000000 1.0
C      1  0.5512650000000  0.4135130000000  0.4861180000000 1.0
C      1  0.4479700000000  0.4407700000000  0.4848890000000 1.0
C      1  0.4510500000000  0.5598190000000  0.4872970000000 1.0
C      1  0.4535690000000  0.5346050000000  0.5177660000000 1.0
C      1  0.4559240000000  0.4645210000000  0.5158060000000 1.0
C      1  0.5230030000000  0.4148750000000  0.4385490000000 1.0
C      1  0.5194710000000  0.5896930000000  0.4320790000000 1.0
C      1  0.5209000000000  0.5873770000000  0.5724350000000 1.0
C      1  0.5215620000000  0.4107350000000  0.5718860000000 1.0
C      1  0.5297130000000  0.6052310000000  0.4608140000000 1.0
C      1  0.5313050000000  0.3968370000000  0.4642530000000 1.0
C      1  0.4801480000000  0.6160680000000  0.4794950000000 1.0
C      1  0.4800140000000  0.3864850000000  0.4751270000000 1.0
C      1  0.4587800000000  0.5246540000000  0.5486670000000 1.0
C      1  0.4603950000000  0.4725140000000  0.5477050000000 1.0
C      1  0.4234450000000  0.4502670000000  0.4314110000000 1.0
C      1  0.4289070000000  0.5562430000000  0.4340330000000 1.0
C      1  0.4034810000000  0.4733070000000  0.5089710000000 1.0
C      1  0.4046840000000  0.5201210000000  0.5103110000000 1.0
C      1  0.5160760000000  0.5432200000000  0.3896610000000 1.0
C      1  0.5178970000000  0.4456980000000  0.3912310000000 1.0
C      1  0.6187420000000  0.5234670000000  0.5114240000000 1.0
C      1  0.6107230000000  0.4944800000000  0.5080450000000 1.0
C      1  0.4724270000000  0.5127090000000  0.5758290000000 1.0
C      1  0.4733830000000  0.4824360000000  0.5767260000000 1.0
C      1  0.4100520000000  0.4314000000000  0.4799410000000 1.0
C      1  0.4120850000000  0.5661200000000  0.4888630000000 1.0
C      1  0.5967190000000  0.4744870000000  0.4499530000000 1.0
C      1  0.5944560000000  0.5279100000000  0.4495650000000 1.0
C      1  0.5313360000000  0.5192000000000  0.4822970000000 1.0
C      1  0.5351110000000  0.4865900000000  0.4889660000000 1.0
C      1  0.4762020000000  0.4807010000000  0.4712320000000 1.0
C      1  0.4731960000000  0.5145290000000  0.4658550000000 1.0
C      1  0.5454480000000  0.4503190000000  0.5016190000000 1.0
C      1  0.5402290000000  0.5545810000000  0.4985140000000 1.0
C      1  0.5077150000000  0.6055440000000  0.5184590000000 1.0
C      1  0.5091420000000  0.3932970000000  0.5167950000000 1.0
C      1  0.4711500000000  0.4468550000000  0.5945480000000 1.0
C      1  0.4801020000000  0.5431330000000  0.5972540000000 1.0
C      1  0.5098580000000  0.3856160000000  0.4838950000000 1.0
C      1  0.5096710000000  0.6142700000000  0.4868470000000 1.0
C      1  0.4887910000000  0.4731520000000  0.5171770000000 1.0
C      1  0.4872520000000  0.5290980000000  0.5209890000000 1.0
C      1  0.5450450000000  0.4855090000000  0.4032280000000 1.0
C      1  0.5455350000000  0.5190270000000  0.4010860000000 1.0
C      1  0.5028700000000  0.4724730000000  0.5673590000000 1.0
C      1  0.5035590000000  0.5245530000000  0.5736910000000 1.0
C      1  0.5211090000000  0.4585320000000  0.6121710000000 1.0
C      1  0.5221820000000  0.5380770000000  0.6063320000000 1.0
C      1  0.4281870000000  0.5139190000000  0.5549810000000 1.0
C      1  0.4286500000000  0.4829180000000  0.5510420000000 1.0
C      1  0.5112660000000  0.5507030000000  0.5125900000000 1.0
C      1  0.5160240000000  0.4530250000000  0.5163780000000 1.0
C      1  0.4595880000000  0.5776690000000  0.5493330000000 1.0
C      1  0.4549600000000  0.4248470000000  0.5464010000000 1.0
C      1  0.5391330000000  0.4723040000000  0.4305620000000 1.0
C      1  0.5396460000000  0.5359600000000  0.4242370000000 1.0
C      1  0.5822480000000  0.4905070000000  0.5170660000000 1.0
C      1  0.5705830000000  0.5194500000000  0.5197810000000 1.0
C      1  0.4571860000000  0.5547930000000  0.5748240000000 1.0
C      1  0.4504030000000  0.4436100000000  0.5751190000000 1.0
C      1  0.4760880000000  0.5472420000000  0.4749880000000 1.0
C      1  0.4754600000000  0.4525100000000  0.4804700000000 1.0
C      1  0.5995310000000  0.4541380000000  0.4766770000000 1.0
C      1  0.5912260000000  0.5490560000000  0.4760270000000 1.0
C      1  0.5033360000000  0.4835290000000  0.6203030000000 1.0
C      1  0.5066050000000  0.5155730000000  0.6221190000000 1.0
C      1  0.5300610000000  0.5508950000000  0.5594270000000 1.0
C      1  0.5337140000000  0.4475090000000  0.5630190000000 1.0
C      1  0.5410920000000  0.5649700000000  0.4267780000000 1.0
C      1  0.5400570000000  0.4437130000000  0.4316660000000 1.0
C      1  0.4327260000000  0.5733380000000  0.4625940000000 1.0
C      1  0.4336980000000  0.4300880000000  0.4557640000000 1.0
C      1  0.3901470000000  0.5122280000000  0.4866570000000 1.0
C      1  0.3867850000000  0.4822850000000  0.4878780000000 1.0
C      1  0.5152370000000  0.5784640000000  0.4701820000000 1.0
C      1  0.5185820000000  0.4239240000000  0.4893280000000 1.0
C      1  0.5617030000000  0.5680960000000  0.4482350000000 1.0
C      1  0.5585770000000  0.4349040000000  0.4535450000000 1.0
C      1  0.5264350000000  0.5601720000000  0.5881090000000 1.0
C      1  0.5275410000000  0.4366850000000  0.5905730000000 1.0
C      1  0.4977560000000  0.4325210000000  0.4640290000000 1.0
C      1  0.4885560000000  0.5704890000000  0.4534170000000 1.0
C      1  0.5771960000000  0.4783450000000  0.3986710000000 1.0
C      1  0.5758150000000  0.5106160000000  0.3995510000000 1.0
C      1  0.5101920000000  0.4851910000000  0.5393640000000 1.0
C      1  0.5093010000000  0.5152480000000  0.5419490000000 1.0
C      1  0.4249460000000  0.4558300000000  0.5797540000000 1.0
C      1  0.4284540000000  0.5464440000000  0.5777700000000 1.0
C      1  0.4541000000000  0.4206030000000  0.5120900000000 1.0
C      1  0.4564680000000  0.5787420000000  0.5153970000000 1.0
C      1  0.5098660000000  0.5453110000000  0.4488080000000 1.0
C      1  0.5096880000000  0.4629380000000  0.4559570000000 1.0
C      1  0.5410800000000  0.5262920000000  0.5457090000000 1.0
C      1  0.5385370000000  0.4716450000000  0.5438060000000 1.0
C      1  0.5371710000000  0.5178180000000  0.5136130000000 1.0
C      1  0.5484570000000  0.4865700000000  0.5176620000000 1.0
C      1  0.4768520000000  0.4557440000000  0.4004880000000 1.0
C      1  0.4765820000000  0.5413340000000  0.3932380000000 1.0
C      1  0.5184830000000  0.5095390000000  0.3848250000000 1.0
C      1  0.5221390000000  0.4752010000000  0.3844250000000 1.0
C      1  0.4009460000000  0.4732970000000  0.5369420000000 1.0
C      1  0.4040480000000  0.5265150000000  0.5376490000000 1.0
C      1  0.4352320000000  0.5120080000000  0.5022900000000 1.0
C      1  0.4344650000000  0.4809940000000  0.5006980000000 1.0
C      1  0.4219540000000  0.4189630000000  0.5405550000000 1.0
C      1  0.4281990000000  0.5830460000000  0.5430980000000 1.0
C      1  0.4895190000000  0.4552080000000  0.4321950000000 1.0
C      1  0.4924040000000  0.5473400000000  0.4214040000000 1.0
C      1  0.5499940000000  0.5846500000000  0.5015690000000 1.0
C      1  0.5459530000000  0.4226170000000  0.5182680000000 1.0
C      1  0.5436820000000  0.4885000000000  0.4558970000000 1.0
C      1  0.5416390000000  0.5206350000000  0.4496350000000 1.0
C      1  0.5663510000000  0.5366840000000  0.4941280000000 1.0
C      1  0.5744880000000  0.4625890000000  0.4992240000000 1.0
C      1  0.4151070000000  0.5541420000000  0.5504320000000 1.0
C      1  0.4102370000000  0.4476090000000  0.5544850000000 1.0
C      1  0.4809550000000  0.5867220000000  0.5719410000000 1.0
C      1  0.4794810000000  0.4110280000000  0.5649570000000 1.0
C      1  0.4890960000000  0.4159080000000  0.4384540000000 1.0
C      1  0.4856930000000  0.5863880000000  0.4263430000000 1.0
C      1  0.4768810000000  0.5111740000000  0.6089000000000 1.0
C      1  0.4738950000000  0.4768450000000  0.6085050000000 1.0
C      1  0.4961880000000  0.5669960000000  0.4921120000000 1.0
C      1  0.4910770000000  0.4359310000000  0.5029490000000 1.0
C      1  0.5155300000000  0.4053330000000  0.5413310000000 1.0
C      1  0.5122300000000  0.5931100000000  0.5432660000000 1.0
C      1  0.4877140000000  0.4243640000000  0.5881640000000 1.0
C      1  0.4886230000000  0.5725270000000  0.5918490000000 1.0
C      1  0.4812840000000  0.5914910000000  0.5029720000000 1.0
C      1  0.4805570000000  0.4044640000000  0.5034380000000 1.0
C      1  0.4577580000000  0.5151760000000  0.4364610000000 1.0
C      1  0.4633250000000  0.4834550000000  0.4428660000000 1.0
C      1  0.4608220000000  0.5465350000000  0.4291940000000 1.0
C      1  0.4552490000000  0.4537420000000  0.4318880000000 1.0
C      1  0.5616750000000  0.5148620000000  0.5928150000000 1.0
C      1  0.5573730000000  0.4826970000000  0.5852510000000 1.0
C      1  0.4237490000000  0.4870120000000  0.5841440000000 1.0
C      1  0.4229990000000  0.5173750000000  0.5879930000000 1.0
C      1  0.5063680000000  0.4324330000000  0.4138350000000 1.0
C      1  0.5081180000000  0.5710520000000  0.4052960000000 1.0
C      1  0.5066930000000  0.4901330000000  0.4709100000000 1.0
C      1  0.5046670000000  0.5213870000000  0.4646560000000 1.0
C      1  0.4040520000000  0.4862850000000  0.4597270000000 1.0
C      1  0.4076340000000  0.5197450000000  0.4597530000000 1.0
C      1  0.5650280000000  0.5141920000000  0.5588770000000 1.0
C      1  0.5666950000000  0.4834510000000  0.5529800000000 1.0
C      1  0.4092720000000  0.5363150000000  0.4341960000000 1.0
C      1  0.4046850000000  0.4701090000000  0.4331510000000 1.0
C      1  0.4538610000000  0.5792660000000  0.4362230000000 1.0
C      1  0.4597780000000  0.4208640000000  0.4372050000000 1.0
C      1  0.4847630000000  0.5116200000000  0.3829330000000 1.0
C      1  0.4912660000000  0.4803890000000  0.3850290000000 1.0
C      1  0.4687220000000  0.4871720000000  0.4102040000000 1.0
C      1  0.4573500000000  0.5166230000000  0.4029320000000 1.0
C      1  0.6106720000000  0.5206670000000  0.4784330000000 1.0
C      1  0.6119220000000  0.4863320000000  0.4776170000000 1.0
C      1  0.5874580000000  0.4582430000000  0.5506370000000 1.0
C      1  0.5937210000000  0.5318460000000  0.5567590000000 1.0
C      1  0.5286480000000  0.5099010000000  0.5896900000000 1.0
C      1  0.5250010000000  0.4781600000000  0.5871540000000 1.0
C      1  0.4739640000000  0.4996580000000  0.5316420000000 1.0
END
