TITL C-2782237-5345-973 -0.00239538241278212 125000 -964.682218023126 0 0 170 (C1) n - 1
REM
REM in /home/nfs/bkarasulu/CARBON/AIRSS/Generating-Clusters/REBO/Higher-Symm/SD-CG/HFTN-CG
REM
REM
REM
REM
REM
REM ./C.cell (12c818d87b63d06a65506943cc24bca4)
REM
REM compiler GCC version 9.2.1 20190827 (Red Hat 9.2.1-1)
REM options -cpp -mtune=generic -march=x86-64 -g -O0 -fpre-include=/usr/include/finclude/math-vector-fortran.h
REM seed 257293877 928618750 -1334043566 -1731402524 1436556780 -1923357963 -883097438 1807388696 -1474029255 24448578 -1192378337 153494874 1874752323 -292871197 435864080 1381058502 1235201838 1391687845 -1155714119 1033980414 -114866575 1169303556 1928076050 -1597405085 -2065409201 -964622573 1162540104 -1177954069 -2085101440 -2112437080 -2117101253 481617200 584171011
REM
CELL 1.54180   50.00000   50.00000   50.00000   90.00000   90.00000   90.00000
LATT -1
SFAC C  
C      1  0.5339530000000  0.4374320000000  0.4323310000000 1.0
C      1  0.4627120000000  0.4389990000000  0.5653750000000 1.0
C      1  0.4716950000000  0.5590150000000  0.4376070000000 1.0
C      1  0.5332610000000  0.5602280000000  0.5637680000000 1.0
C      1  0.5481710000000  0.5624970000000  0.4253390000000 1.0
C      1  0.4495580000000  0.5644700000000  0.5776510000000 1.0
C      1  0.4537480000000  0.4327610000000  0.4240800000000 1.0
C      1  0.5455750000000  0.4385310000000  0.5718270000000 1.0
C      1  0.5244110000000  0.4978520000000  0.4785850000000 1.0
C      1  0.4771720000000  0.4993830000000  0.5261130000000 1.0
C      1  0.4933370000000  0.4923820000000  0.4772980000000 1.0
C      1  0.5087330000000  0.4977940000000  0.5288450000000 1.0
C      1  0.6045190000000  0.5294140000000  0.5098310000000 1.0
C      1  0.3984470000000  0.5274490000000  0.4858930000000 1.0
C      1  0.3921070000000  0.4679310000000  0.5013220000000 1.0
C      1  0.6063690000000  0.4701690000000  0.4909180000000 1.0
C      1  0.4050840000000  0.4521620000000  0.5384570000000 1.0
C      1  0.5927970000000  0.4510300000000  0.4514620000000 1.0
C      1  0.5898380000000  0.5469200000000  0.5515880000000 1.0
C      1  0.4149990000000  0.5477580000000  0.4463990000000 1.0
C      1  0.5740280000000  0.5749170000000  0.4993140000000 1.0
C      1  0.4284800000000  0.5741550000000  0.5010370000000 1.0
C      1  0.4228210000000  0.4159210000000  0.4935730000000 1.0
C      1  0.5719460000000  0.4221850000000  0.5016010000000 1.0
C      1  0.4386490000000  0.5287430000000  0.4777920000000 1.0
C      1  0.5629170000000  0.5312310000000  0.5187070000000 1.0
C      1  0.5601180000000  0.4646120000000  0.4830350000000 1.0
C      1  0.4392960000000  0.4581850000000  0.5187000000000 1.0
C      1  0.4551750000000  0.4577210000000  0.4895660000000 1.0
C      1  0.5464010000000  0.4619940000000  0.5117600000000 1.0
C      1  0.5532970000000  0.5409080000000  0.4884780000000 1.0
C      1  0.4431480000000  0.5370740000000  0.5090070000000 1.0
C      1  0.4829520000000  0.4758530000000  0.4217930000000 1.0
C      1  0.5190970000000  0.4813270000000  0.5830100000000 1.0
C      1  0.5128190000000  0.5178730000000  0.4244840000000 1.0
C      1  0.4847610000000  0.5220480000000  0.5797330000000 1.0
C      1  0.4282410000000  0.5023530000000  0.4774600000000 1.0
C      1  0.5732730000000  0.5054140000000  0.5165860000000 1.0
C      1  0.5731860000000  0.4916940000000  0.4861050000000 1.0
C      1  0.4339310000000  0.4870440000000  0.5062900000000 1.0
C      1  0.5010380000000  0.4647230000000  0.4482460000000 1.0
C      1  0.5027760000000  0.4698450000000  0.5567300000000 1.0
C      1  0.5007600000000  0.5250770000000  0.4555560000000 1.0
C      1  0.4945790000000  0.5296040000000  0.5480500000000 1.0
C      1  0.5679200000000  0.4349100000000  0.4357590000000 1.0
C      1  0.4293030000000  0.4381920000000  0.5577580000000 1.0
C      1  0.4405390000000  0.5668980000000  0.4523250000000 1.0
C      1  0.5639670000000  0.5685860000000  0.5513180000000 1.0
C      1  0.4091840000000  0.4976950000000  0.4406320000000 1.0
C      1  0.5953730000000  0.4972730000000  0.5534460000000 1.0
C      1  0.5885650000000  0.5001110000000  0.4468410000000 1.0
C      1  0.4112670000000  0.5035780000000  0.5505330000000 1.0
C      1  0.5994590000000  0.5590630000000  0.5017850000000 1.0
C      1  0.4083480000000  0.5541070000000  0.4992550000000 1.0
C      1  0.3980980000000  0.4379490000000  0.4988670000000 1.0
C      1  0.5984570000000  0.4403550000000  0.4963070000000 1.0
C      1  0.5137560000000  0.5839060000000  0.4604670000000 1.0
C      1  0.4874340000000  0.5812540000000  0.5422620000000 1.0
C      1  0.4861640000000  0.4141500000000  0.4566460000000 1.0
C      1  0.5094090000000  0.4144590000000  0.5443540000000 1.0
C      1  0.4808380000000  0.4989690000000  0.4467310000000 1.0
C      1  0.5171570000000  0.5069200000000  0.5605250000000 1.0
C      1  0.5198830000000  0.4916590000000  0.4452270000000 1.0
C      1  0.4795810000000  0.4945990000000  0.5600720000000 1.0
C      1  0.5256220000000  0.4071210000000  0.4914360000000 1.0
C      1  0.4727560000000  0.3998020000000  0.5122310000000 1.0
C      1  0.4719830000000  0.6039040000000  0.4910440000000 1.0
C      1  0.5254380000000  0.6039070000000  0.5119270000000 1.0
C      1  0.4849010000000  0.4803830000000  0.6085860000000 1.0
C      1  0.5092620000000  0.4775080000000  0.3917450000000 1.0
C      1  0.5179570000000  0.5237670000000  0.6085090000000 1.0
C      1  0.4830700000000  0.5249410000000  0.3922100000000 1.0
C      1  0.5428700000000  0.5329840000000  0.4192310000000 1.0
C      1  0.4536520000000  0.5347550000000  0.5832640000000 1.0
C      1  0.4530850000000  0.4632890000000  0.4175170000000 1.0
C      1  0.5485460000000  0.4682110000000  0.5809650000000 1.0
C      1  0.5064520000000  0.3982870000000  0.5168260000000 1.0
C      1  0.4928320000000  0.4000100000000  0.4849650000000 1.0
C      1  0.4930480000000  0.5995120000000  0.5173820000000 1.0
C      1  0.5051970000000  0.6016770000000  0.4850350000000 1.0
C      1  0.5791190000000  0.4580430000000  0.5174750000000 1.0
C      1  0.4239830000000  0.4539460000000  0.4821380000000 1.0
C      1  0.4140210000000  0.5319050000000  0.5222440000000 1.0
C      1  0.5828660000000  0.5418050000000  0.4787510000000 1.0
C      1  0.4617820000000  0.5336130000000  0.4554580000000 1.0
C      1  0.5434730000000  0.5356960000000  0.5434490000000 1.0
C      1  0.5447920000000  0.4615620000000  0.4537120000000 1.0
C      1  0.4558510000000  0.4638990000000  0.5431850000000 1.0
C      1  0.6009960000000  0.5248600000000  0.5378120000000 1.0
C      1  0.4022970000000  0.5253580000000  0.4577470000000 1.0
C      1  0.3962980000000  0.4815920000000  0.5317620000000 1.0
C      1  0.6015580000000  0.4763440000000  0.4625240000000 1.0
C      1  0.4477190000000  0.5738770000000  0.4801810000000 1.0
C      1  0.5546560000000  0.5792090000000  0.5230650000000 1.0
C      1  0.5694310000000  0.4346240000000  0.4699470000000 1.0
C      1  0.4261910000000  0.4291440000000  0.5247520000000 1.0
C      1  0.5728270000000  0.5186290000000  0.4225430000000 1.0
C      1  0.4242030000000  0.5199500000000  0.5777030000000 1.0
C      1  0.4241080000000  0.4777800000000  0.4168740000000 1.0
C      1  0.5774830000000  0.4818690000000  0.5784570000000 1.0
C      1  0.4517450000000  0.4838930000000  0.4446320000000 1.0
C      1  0.5459370000000  0.4917770000000  0.5561200000000 1.0
C      1  0.5435570000000  0.5159240000000  0.4487100000000 1.0
C      1  0.4558020000000  0.5182640000000  0.5537540000000 1.0
C      1  0.4894470000000  0.4388760000000  0.4764290000000 1.0
C      1  0.5134620000000  0.4409490000000  0.5257630000000 1.0
C      1  0.5110560000000  0.5621970000000  0.4843210000000 1.0
C      1  0.4905310000000  0.5596840000000  0.5182400000000 1.0
C      1  0.4128930000000  0.5380730000000  0.5519860000000 1.0
C      1  0.5876390000000  0.5341950000000  0.4480960000000 1.0
C      1  0.5963060000000  0.4638200000000  0.5606630000000 1.0
C      1  0.4051940000000  0.4639130000000  0.4379240000000 1.0
C      1  0.4852380000000  0.4311800000000  0.5088100000000 1.0
C      1  0.5198070000000  0.4392350000000  0.4925710000000 1.0
C      1  0.5230140000000  0.5699320000000  0.5138100000000 1.0
C      1  0.4786800000000  0.5706910000000  0.4894890000000 1.0
C      1  0.5969080000000  0.4853420000000  0.5172190000000 1.0
C      1  0.4068210000000  0.4815900000000  0.4776510000000 1.0
C      1  0.4053460000000  0.5045120000000  0.5101480000000 1.0
C      1  0.5958700000000  0.5119220000000  0.4845330000000 1.0
C      1  0.4639050000000  0.3968280000000  0.5417170000000 1.0
C      1  0.5324180000000  0.3990280000000  0.4617950000000 1.0
C      1  0.5506380000000  0.6129490000000  0.5248210000000 1.0
C      1  0.4486160000000  0.6200760000000  0.4838920000000 1.0
C      1  0.5634340000000  0.4235600000000  0.5298640000000 1.0
C      1  0.4333550000000  0.4192840000000  0.4649420000000 1.0
C      1  0.4359260000000  0.5801460000000  0.5275440000000 1.0
C      1  0.5648010000000  0.5777750000000  0.4736950000000 1.0
C      1  0.5204270000000  0.5270390000000  0.5262790000000 1.0
C      1  0.4774170000000  0.5200680000000  0.4802850000000 1.0
C      1  0.4837020000000  0.4669430000000  0.5318370000000 1.0
C      1  0.5212700000000  0.4640980000000  0.4739310000000 1.0
C      1  0.4596330000000  0.5082180000000  0.5048270000000 1.0
C      1  0.5313850000000  0.5178790000000  0.4986860000000 1.0
C      1  0.5157200000000  0.4755870000000  0.5099170000000 1.0
C      1  0.4839040000000  0.4711630000000  0.4986260000000 1.0
C      1  0.4678610000000  0.5380830000000  0.5300040000000 1.0
C      1  0.5276680000000  0.5403380000000  0.4664200000000 1.0
C      1  0.5329380000000  0.4631810000000  0.5430010000000 1.0
C      1  0.4708460000000  0.4632960000000  0.4617480000000 1.0
C      1  0.5309590000000  0.4551700000000  0.4049850000000 1.0
C      1  0.4643760000000  0.4582120000000  0.5927230000000 1.0
C      1  0.4643200000000  0.5480940000000  0.4083380000000 1.0
C      1  0.5395610000000  0.5441910000000  0.5917580000000 1.0
C      1  0.5602960000000  0.4625410000000  0.4172730000000 1.0
C      1  0.4362000000000  0.4650430000000  0.5776150000000 1.0
C      1  0.4380750000000  0.5426100000000  0.4246480000000 1.0
C      1  0.5668210000000  0.5424590000000  0.5749690000000 1.0
C      1  0.4400990000000  0.4898650000000  0.5569680000000 1.0
C      1  0.5589880000000  0.4871200000000  0.4391780000000 1.0
C      1  0.5670300000000  0.5141540000000  0.5560100000000 1.0
C      1  0.4389610000000  0.5131810000000  0.4405690000000 1.0
C      1  0.4260220000000  0.5654850000000  0.5549950000000 1.0
C      1  0.5732010000000  0.5629720000000  0.4462800000000 1.0
C      1  0.5817090000000  0.4449170000000  0.5458320000000 1.0
C      1  0.4152000000000  0.4429930000000  0.4532150000000 1.0
C      1  0.5407020000000  0.4230410000000  0.5494620000000 1.0
C      1  0.4567180000000  0.4175550000000  0.4470730000000 1.0
C      1  0.4590150000000  0.5812020000000  0.5512110000000 1.0
C      1  0.5418220000000  0.5819910000000  0.4509010000000 1.0
C      1  0.4761630000000  0.4541060000000  0.6240390000000 1.0
C      1  0.5147320000000  0.4506890000000  0.3757620000000 1.0
C      1  0.5320310000000  0.5472310000000  0.6245020000000 1.0
C      1  0.4748980000000  0.5512410000000  0.3764850000000 1.0
C      1  0.5168710000000  0.4147010000000  0.4434730000000 1.0
C      1  0.4796300000000  0.4151070000000  0.5572890000000 1.0
C      1  0.4930210000000  0.5770430000000  0.4413510000000 1.0
C      1  0.5097400000000  0.5755730000000  0.5601300000000 1.0
C      1  0.5004750000000  0.5028180000000  0.6109320000000 1.0
C      1  0.4960500000000  0.5011560000000  0.3922730000000 1.0
END
