TITL C-2782237-5345-1 -0.000970695683730839 125000 -674.963358184751 0 0 117 (C1) n - 1
REM
REM in /home/nfs/bkarasulu/CARBON/AIRSS/Generating-Clusters/REBO/Higher-Symm/SD-CG/HFTN-CG
REM
REM
REM
REM
REM
REM ./C.cell (12c818d87b63d06a65506943cc24bca4)
REM
REM compiler GCC version 9.2.1 20190827 (Red Hat 9.2.1-1)
REM options -cpp -mtune=generic -march=x86-64 -g -O0 -fpre-include=/usr/include/finclude/math-vector-fortran.h
REM seed 241737514 1629917154 -1917790965 16631134 -1948466539 -1225428183 -1747312307 -1865192749 1888545819 -2051730890 2072344819 -283392192 1433403501 -267427216 -1924369518 -1985689376 -62966104 -2080757255 -1690818243 -1567961797 -1985692215 1781222450 -923211301 228898939 -2072915 -785800324 -1093843058 188506617 -392816230 -725274854 932100300 -1160785751 -2077794593
REM
CELL 1.54180   50.00000   50.00000   50.00000   90.00000   90.00000   90.00000
LATT -1
SFAC C  
C      1  0.4685670000000  0.5821610000000  0.5291520000000 1.0
C      1  0.4715770000000  0.4150290000000  0.4733850000000 1.0
C      1  0.5338580000000  0.4174030000000  0.5330700000000 1.0
C      1  0.5322160000000  0.5882470000000  0.4655670000000 1.0
C      1  0.4705090000000  0.5195050000000  0.5310840000000 1.0
C      1  0.4717590000000  0.4625610000000  0.4913360000000 1.0
C      1  0.5305520000000  0.4597390000000  0.5248920000000 1.0
C      1  0.5094680000000  0.5290530000000  0.4742630000000 1.0
C      1  0.5232160000000  0.5747870000000  0.5399690000000 1.0
C      1  0.5253880000000  0.4156740000000  0.4714920000000 1.0
C      1  0.4792300000000  0.4211250000000  0.5376740000000 1.0
C      1  0.4846600000000  0.5853630000000  0.4697940000000 1.0
C      1  0.5733270000000  0.5332490000000  0.5377790000000 1.0
C      1  0.5678000000000  0.4660450000000  0.4628740000000 1.0
C      1  0.4246150000000  0.4645390000000  0.5309650000000 1.0
C      1  0.4342080000000  0.5370070000000  0.4550670000000 1.0
C      1  0.4091190000000  0.5439000000000  0.5677800000000 1.0
C      1  0.4201030000000  0.4582970000000  0.4335650000000 1.0
C      1  0.5871320000000  0.4430490000000  0.5517090000000 1.0
C      1  0.5686100000000  0.5523240000000  0.4453260000000 1.0
C      1  0.5007160000000  0.4879030000000  0.5874890000000 1.0
C      1  0.5069460000000  0.5112840000000  0.4134670000000 1.0
C      1  0.4984930000000  0.5154040000000  0.5895820000000 1.0
C      1  0.4990710000000  0.4849840000000  0.4162100000000 1.0
C      1  0.4991580000000  0.5735340000000  0.5169920000000 1.0
C      1  0.4998610000000  0.4126400000000  0.4869130000000 1.0
C      1  0.5046160000000  0.4132070000000  0.5205450000000 1.0
C      1  0.5085300000000  0.5782840000000  0.4886440000000 1.0
C      1  0.4623330000000  0.4926960000000  0.5773790000000 1.0
C      1  0.4626690000000  0.5002240000000  0.4215930000000 1.0
C      1  0.5504620000000  0.4810790000000  0.5734060000000 1.0
C      1  0.5438980000000  0.5002750000000  0.4240820000000 1.0
C      1  0.4935970000000  0.4515870000000  0.4600370000000 1.0
C      1  0.5016730000000  0.5521070000000  0.5505660000000 1.0
C      1  0.4896920000000  0.5717150000000  0.4453050000000 1.0
C      1  0.5000380000000  0.4467490000000  0.5469290000000 1.0
C      1  0.5003200000000  0.5222710000000  0.5436030000000 1.0
C      1  0.4862330000000  0.4817210000000  0.4703280000000 1.0
C      1  0.5095660000000  0.4790030000000  0.5410260000000 1.0
C      1  0.5076400000000  0.5105650000000  0.4533190000000 1.0
C      1  0.4754730000000  0.5517540000000  0.4302790000000 1.0
C      1  0.4686700000000  0.4466760000000  0.5572390000000 1.0
C      1  0.5226170000000  0.4398770000000  0.4526040000000 1.0
C      1  0.5325020000000  0.5502790000000  0.5618360000000 1.0
C      1  0.4363090000000  0.5320600000000  0.5019810000000 1.0
C      1  0.4340880000000  0.4686520000000  0.4924660000000 1.0
C      1  0.5676740000000  0.4752930000000  0.5023970000000 1.0
C      1  0.5615280000000  0.5335750000000  0.4899330000000 1.0
C      1  0.4937960000000  0.5396560000000  0.4121200000000 1.0
C      1  0.4846720000000  0.4599020000000  0.5813060000000 1.0
C      1  0.5085520000000  0.4547090000000  0.4253600000000 1.0
C      1  0.5145300000000  0.5433990000000  0.5873100000000 1.0
C      1  0.5910780000000  0.5202100000000  0.4855450000000 1.0
C      1  0.5973070000000  0.4898310000000  0.4977860000000 1.0
C      1  0.4082970000000  0.4866850000000  0.4845100000000 1.0
C      1  0.4066680000000  0.5169640000000  0.4979270000000 1.0
C      1  0.5777550000000  0.4454500000000  0.4777650000000 1.0
C      1  0.5728910000000  0.5593560000000  0.5281340000000 1.0
C      1  0.4287210000000  0.5617610000000  0.4680530000000 1.0
C      1  0.4173090000000  0.4418320000000  0.5168410000000 1.0
C      1  0.5531960000000  0.4205200000000  0.5118010000000 1.0
C      1  0.5472830000000  0.5843720000000  0.4958760000000 1.0
C      1  0.4512440000000  0.5831890000000  0.5057930000000 1.0
C      1  0.4509720000000  0.4155940000000  0.4931100000000 1.0
C      1  0.4763050000000  0.5033480000000  0.5586380000000 1.0
C      1  0.4763280000000  0.5039740000000  0.4479100000000 1.0
C      1  0.5305470000000  0.4963570000000  0.5606660000000 1.0
C      1  0.5270940000000  0.4919010000000  0.4437880000000 1.0
C      1  0.5167560000000  0.4425310000000  0.5073620000000 1.0
C      1  0.5254380000000  0.5512830000000  0.4776440000000 1.0
C      1  0.4815570000000  0.5470090000000  0.5163770000000 1.0
C      1  0.4866340000000  0.4415920000000  0.4990880000000 1.0
C      1  0.4726950000000  0.5630140000000  0.5570810000000 1.0
C      1  0.4674260000000  0.4363860000000  0.4485420000000 1.0
C      1  0.5293160000000  0.4384110000000  0.5589840000000 1.0
C      1  0.5186690000000  0.5676140000000  0.4417290000000 1.0
C      1  0.5548830000000  0.4497150000000  0.5431150000000 1.0
C      1  0.5514860000000  0.5616430000000  0.4634140000000 1.0
C      1  0.4534570000000  0.5460600000000  0.5367230000000 1.0
C      1  0.4355550000000  0.4412370000000  0.4563490000000 1.0
C      1  0.5554610000000  0.5291540000000  0.4293390000000 1.0
C      1  0.5741270000000  0.4744310000000  0.5535880000000 1.0
C      1  0.4483020000000  0.4710740000000  0.4446340000000 1.0
C      1  0.4261830000000  0.5367160000000  0.5498200000000 1.0
C      1  0.5520080000000  0.5104750000000  0.5128510000000 1.0
C      1  0.5474650000000  0.4961120000000  0.4846520000000 1.0
C      1  0.4507940000000  0.4922800000000  0.5100760000000 1.0
C      1  0.4590980000000  0.5147370000000  0.4869140000000 1.0
C      1  0.4753480000000  0.4628800000000  0.4275650000000 1.0
C      1  0.4821900000000  0.5448700000000  0.5842960000000 1.0
C      1  0.5252050000000  0.5389980000000  0.4241800000000 1.0
C      1  0.5165780000000  0.4585590000000  0.5811580000000 1.0
C      1  0.5371000000000  0.4668010000000  0.4598870000000 1.0
C      1  0.5450360000000  0.5250780000000  0.5493350000000 1.0
C      1  0.4595790000000  0.5326890000000  0.4444680000000 1.0
C      1  0.4523640000000  0.4664100000000  0.5401770000000 1.0
C      1  0.5742090000000  0.4924240000000  0.5302020000000 1.0
C      1  0.5602830000000  0.5163700000000  0.4605160000000 1.0
C      1  0.4314040000000  0.5136960000000  0.5287200000000 1.0
C      1  0.4450530000000  0.4894350000000  0.4689990000000 1.0
C      1  0.4867210000000  0.5242420000000  0.4948400000000 1.0
C      1  0.4791970000000  0.4815640000000  0.5254860000000 1.0
C      1  0.5177690000000  0.4845980000000  0.4819100000000 1.0
C      1  0.5238370000000  0.5129490000000  0.5254440000000 1.0
C      1  0.4565170000000  0.4105430000000  0.5193340000000 1.0
C      1  0.4629810000000  0.5971440000000  0.4834810000000 1.0
C      1  0.5351380000000  0.5947880000000  0.5182160000000 1.0
C      1  0.5466680000000  0.4074180000000  0.4867480000000 1.0
C      1  0.5938560000000  0.5161180000000  0.5194480000000 1.0
C      1  0.5828990000000  0.4923890000000  0.4668430000000 1.0
C      1  0.4119130000000  0.4895980000000  0.5185780000000 1.0
C      1  0.4219500000000  0.5131550000000  0.4675900000000 1.0
C      1  0.4355510000000  0.5615740000000  0.4961720000000 1.0
C      1  0.4301910000000  0.4368670000000  0.4869350000000 1.0
C      1  0.5683370000000  0.4435310000000  0.5059740000000 1.0
C      1  0.5625270000000  0.5616250000000  0.5016730000000 1.0
C      1  0.5020420000000  0.4989700000000  0.5072420000000 1.0
END
