TITL C-2782229-3092-1323 -0.00517906316604962 125000 -818.0858424744 0 0 139 (C1) n - 1
REM
REM in /home/nfs/bkarasulu/CARBON/AIRSS/Generating-Clusters/REBO/Higher-Symm/SD-CG/HFTN-CG
REM
REM
REM
REM
REM
REM ./C.cell (12c818d87b63d06a65506943cc24bca4)
REM
REM compiler GCC version 9.2.1 20190827 (Red Hat 9.2.1-1)
REM options -cpp -mtune=generic -march=x86-64 -g -O0 -fpre-include=/usr/include/finclude/math-vector-fortran.h
REM seed 838342302 1380457639 -1236394373 -1069281868 -2056006300 -1482912036 -1788111113 -1976663339 -1073509658 -1588950963 1340532649 234908362 1504804633 -911563878 553826648 233293839 1585084129 1133946155 -926354797 2028151164 17919650 -1091039601 -1312738732 -1446969632 -1260186744 359965843 1103050827 625799461 1914824498 -438969077 363622218 820824083 -251854084
REM
CELL 1.54180   50.00000   50.00000   50.00000   90.00000   90.00000   90.00000
LATT -1
SFAC C  
C      1  0.5594320000000  0.5094150000000  0.5756580000000 1.0
C      1  0.5489910000000  0.4935490000000  0.4222920000000 1.0
C      1  0.5597140000000  0.4201440000000  0.4633570000000 1.0
C      1  0.5700930000000  0.5728430000000  0.5448150000000 1.0
C      1  0.4119460000000  0.5472940000000  0.5213480000000 1.0
C      1  0.4130570000000  0.4525780000000  0.4807280000000 1.0
C      1  0.4949910000000  0.5000110000000  0.5675840000000 1.0
C      1  0.5157440000000  0.5008500000000  0.4197780000000 1.0
C      1  0.4597600000000  0.5373170000000  0.4151620000000 1.0
C      1  0.4613100000000  0.4889070000000  0.5860060000000 1.0
C      1  0.5326710000000  0.4623850000000  0.4422040000000 1.0
C      1  0.5271620000000  0.5403060000000  0.5536220000000 1.0
C      1  0.5361010000000  0.4676080000000  0.5818000000000 1.0
C      1  0.5364300000000  0.5457660000000  0.4136040000000 1.0
C      1  0.5005990000000  0.5390970000000  0.5363870000000 1.0
C      1  0.5008580000000  0.4578950000000  0.4534290000000 1.0
C      1  0.5136990000000  0.4544190000000  0.5117170000000 1.0
C      1  0.5078550000000  0.5437950000000  0.5071600000000 1.0
C      1  0.4159710000000  0.5183220000000  0.5075180000000 1.0
C      1  0.4159460000000  0.4806540000000  0.4950450000000 1.0
C      1  0.4726480000000  0.5395130000000  0.4682160000000 1.0
C      1  0.4727690000000  0.4595510000000  0.5242980000000 1.0
C      1  0.5406620000000  0.4806150000000  0.5416700000000 1.0
C      1  0.5380380000000  0.5234830000000  0.4563030000000 1.0
C      1  0.4860150000000  0.4767490000000  0.5988500000000 1.0
C      1  0.4818120000000  0.5274950000000  0.4003470000000 1.0
C      1  0.4843270000000  0.4971700000000  0.5106350000000 1.0
C      1  0.4864720000000  0.4889610000000  0.4837850000000 1.0
C      1  0.4552040000000  0.5377730000000  0.5726660000000 1.0
C      1  0.4598430000000  0.4650830000000  0.4342990000000 1.0
C      1  0.5015030000000  0.4239730000000  0.5024620000000 1.0
C      1  0.5051100000000  0.5758090000000  0.4986600000000 1.0
C      1  0.5229950000000  0.5507130000000  0.4594020000000 1.0
C      1  0.5360660000000  0.4528260000000  0.5447170000000 1.0
C      1  0.4669840000000  0.5377630000000  0.5424790000000 1.0
C      1  0.4862070000000  0.4621870000000  0.4765440000000 1.0
C      1  0.5574220000000  0.5258520000000  0.4291090000000 1.0
C      1  0.5608890000000  0.4799580000000  0.5759970000000 1.0
C      1  0.5971570000000  0.5527680000000  0.5057600000000 1.0
C      1  0.5854980000000  0.4439980000000  0.4973470000000 1.0
C      1  0.5284010000000  0.5826590000000  0.4668890000000 1.0
C      1  0.5376400000000  0.4189780000000  0.5431690000000 1.0
C      1  0.4776180000000  0.4441960000000  0.4979530000000 1.0
C      1  0.4787760000000  0.5559020000000  0.4937040000000 1.0
C      1  0.5008820000000  0.4699020000000  0.5346280000000 1.0
C      1  0.4985490000000  0.5294200000000  0.4573240000000 1.0
C      1  0.5065230000000  0.4529360000000  0.5900050000000 1.0
C      1  0.5062130000000  0.5465730000000  0.3998430000000 1.0
C      1  0.5845100000000  0.5269960000000  0.5200850000000 1.0
C      1  0.5827480000000  0.4637190000000  0.4713170000000 1.0
C      1  0.5587590000000  0.5429590000000  0.5046330000000 1.0
C      1  0.5366070000000  0.4401300000000  0.4925750000000 1.0
C      1  0.4522620000000  0.4275450000000  0.4892280000000 1.0
C      1  0.4529460000000  0.5708450000000  0.5029570000000 1.0
C      1  0.5103640000000  0.5294760000000  0.4281560000000 1.0
C      1  0.5074380000000  0.4729190000000  0.5636510000000 1.0
C      1  0.5570980000000  0.5500230000000  0.5517610000000 1.0
C      1  0.5593630000000  0.4488220000000  0.4520470000000 1.0
C      1  0.5800490000000  0.4485530000000  0.5277230000000 1.0
C      1  0.5854640000000  0.5518760000000  0.4759760000000 1.0
C      1  0.4496510000000  0.5991480000000  0.4854850000000 1.0
C      1  0.4590050000000  0.4131600000000  0.5189290000000 1.0
C      1  0.5680320000000  0.4945750000000  0.5395840000000 1.0
C      1  0.5640120000000  0.5048470000000  0.4672040000000 1.0
C      1  0.4328810000000  0.5459640000000  0.4433020000000 1.0
C      1  0.4431290000000  0.4540250000000  0.5504900000000 1.0
C      1  0.4889140000000  0.5878980000000  0.5449020000000 1.0
C      1  0.4967870000000  0.4177380000000  0.4526510000000 1.0
C      1  0.4651300000000  0.6071970000000  0.5133100000000 1.0
C      1  0.4625070000000  0.3950350000000  0.4897210000000 1.0
C      1  0.5045890000000  0.5031250000000  0.4681410000000 1.0
C      1  0.5144720000000  0.4975120000000  0.5194500000000 1.0
C      1  0.4211560000000  0.4595380000000  0.5284750000000 1.0
C      1  0.4253010000000  0.5378210000000  0.4710330000000 1.0
C      1  0.4566380000000  0.5169210000000  0.5891370000000 1.0
C      1  0.4662470000000  0.4754460000000  0.4098610000000 1.0
C      1  0.4906040000000  0.4438840000000  0.4066680000000 1.0
C      1  0.4940300000000  0.5547760000000  0.5842010000000 1.0
C      1  0.4880550000000  0.3962600000000  0.5121480000000 1.0
C      1  0.4883820000000  0.6025120000000  0.4917450000000 1.0
C      1  0.4443390000000  0.5661230000000  0.5588380000000 1.0
C      1  0.4492780000000  0.4350270000000  0.4403770000000 1.0
C      1  0.5554810000000  0.4282480000000  0.5179120000000 1.0
C      1  0.5657440000000  0.5734540000000  0.4935500000000 1.0
C      1  0.4250460000000  0.4531970000000  0.4538040000000 1.0
C      1  0.4198120000000  0.5474460000000  0.5496990000000 1.0
C      1  0.4719750000000  0.6007080000000  0.4638780000000 1.0
C      1  0.4930530000000  0.3937060000000  0.5432380000000 1.0
C      1  0.5142860000000  0.4337030000000  0.5630370000000 1.0
C      1  0.5074520000000  0.5768230000000  0.4443820000000 1.0
C      1  0.5320130000000  0.3960960000000  0.5210800000000 1.0
C      1  0.5431020000000  0.5907120000000  0.4881580000000 1.0
C      1  0.5313210000000  0.6036050000000  0.5103560000000 1.0
C      1  0.5287430000000  0.3954170000000  0.4964050000000 1.0
C      1  0.4090350000000  0.4912620000000  0.5266300000000 1.0
C      1  0.4125990000000  0.5085930000000  0.4757590000000 1.0
C      1  0.4467790000000  0.4913590000000  0.4871760000000 1.0
C      1  0.4468210000000  0.5279800000000  0.5192620000000 1.0
C      1  0.4809360000000  0.4309100000000  0.4295090000000 1.0
C      1  0.4773740000000  0.5703610000000  0.5670380000000 1.0
C      1  0.4972960000000  0.4791140000000  0.4342940000000 1.0
C      1  0.4836100000000  0.5109220000000  0.5402820000000 1.0
C      1  0.5063550000000  0.4658610000000  0.3978530000000 1.0
C      1  0.5095720000000  0.5324490000000  0.5946820000000 1.0
C      1  0.5772810000000  0.4665520000000  0.5493340000000 1.0
C      1  0.5763840000000  0.5338540000000  0.4564040000000 1.0
C      1  0.4886440000000  0.4186420000000  0.5558730000000 1.0
C      1  0.4799580000000  0.5815110000000  0.4445870000000 1.0
C      1  0.5952690000000  0.4825040000000  0.4928690000000 1.0
C      1  0.5945510000000  0.5013290000000  0.5080160000000 1.0
C      1  0.5745910000000  0.5239500000000  0.5501880000000 1.0
C      1  0.5673460000000  0.4815000000000  0.4467140000000 1.0
C      1  0.4289770000000  0.5322000000000  0.4172910000000 1.0
C      1  0.4510600000000  0.4790030000000  0.5617800000000 1.0
C      1  0.4110170000000  0.4406250000000  0.5065650000000 1.0
C      1  0.4275640000000  0.5554290000000  0.4975030000000 1.0
C      1  0.5351180000000  0.4741910000000  0.4950130000000 1.0
C      1  0.5346620000000  0.5276640000000  0.5004450000000 1.0
C      1  0.4896080000000  0.4954590000000  0.3986900000000 1.0
C      1  0.4945520000000  0.5077330000000  0.5977540000000 1.0
C      1  0.4648760000000  0.4328250000000  0.5421890000000 1.0
C      1  0.4632770000000  0.5562590000000  0.4432570000000 1.0
C      1  0.4577000000000  0.5824280000000  0.5345790000000 1.0
C      1  0.4643460000000  0.4137230000000  0.4612800000000 1.0
C      1  0.5074920000000  0.5944980000000  0.5259170000000 1.0
C      1  0.5178330000000  0.4182200000000  0.4743920000000 1.0
C      1  0.4223280000000  0.4857510000000  0.4560680000000 1.0
C      1  0.4175060000000  0.5171500000000  0.5473080000000 1.0
C      1  0.5843390000000  0.5771320000000  0.5207110000000 1.0
C      1  0.5699630000000  0.4185080000000  0.4887280000000 1.0
C      1  0.4531970000000  0.4814770000000  0.4560500000000 1.0
C      1  0.4450930000000  0.5012490000000  0.5403590000000 1.0
C      1  0.5363720000000  0.5261950000000  0.5821050000000 1.0
C      1  0.5326570000000  0.4664170000000  0.4097360000000 1.0
C      1  0.4482150000000  0.4778810000000  0.5184790000000 1.0
C      1  0.4502900000000  0.5225750000000  0.4875020000000 1.0
C      1  0.5220840000000  0.5074720000000  0.5498480000000 1.0
C      1  0.5284600000000  0.4906780000000  0.4561930000000 1.0
C      1  0.5428100000000  0.5010320000000  0.4916460000000 1.0
END
