TITL C-2782231-7322-152 3.87268160899579e-05 125000 -74.5650350293063 0 0 14 (Cs) n - 1
REM
REM in /home/nfs/bkarasulu/CARBON/AIRSS/Generating-Clusters/REBO/Higher-Symm/SD-CG/HFTN-CG
REM
REM
REM
REM
REM
REM ./C.cell (12c818d87b63d06a65506943cc24bca4)
REM
REM compiler GCC version 9.2.1 20190827 (Red Hat 9.2.1-1)
REM options -cpp -mtune=generic -march=x86-64 -g -O0 -fpre-include=/usr/include/finclude/math-vector-fortran.h
REM seed -250934724 1670695208 364222846 -1358301482 -846995366 -781434175 -915070530 -174973798 1183789141 -1687602825 1663780601 1560504598 -698129888 255976620 1337719173 841092652 634479196 -637817953 -426164226 -525912983 1983454358 152214729 -1728324505 1553054244 1161011623 -886686303 -246584128 2059259531 2020119728 -880429472 648048681 436657133 -891615209
REM
CELL 1.54180   50.00000   50.00000   50.00000   90.00000   90.00000   90.00000
LATT -1
SFAC C  
C      1  0.4603650000000  0.5370900000000  0.5512630000000 1.0
C      1  0.5005760000000  0.5001540000000  0.5402450000000 1.0
C      1  0.5585540000000  0.4468620000000  0.5221530000000 1.0
C      1  0.4864140000000  0.5127380000000  0.5190360000000 1.0
C      1  0.4659590000000  0.5315360000000  0.5251580000000 1.0
C      1  0.5157370000000  0.4837820000000  0.3914830000000 1.0
C      1  0.4983530000000  0.5009480000000  0.4671030000000 1.0
C      1  0.5041790000000  0.4951960000000  0.4417620000000 1.0
C      1  0.5397500000000  0.4641470000000  0.5280210000000 1.0
C      1  0.4925280000000  0.5067010000000  0.4924440000000 1.0
C      1  0.5100040000000  0.4894430000000  0.4164210000000 1.0
C      1  0.5206410000000  0.4817110000000  0.5339840000000 1.0
C      1  0.4524110000000  0.5435720000000  0.5047810000000 1.0
C      1  0.4945280000000  0.5061200000000  0.5661470000000 1.0
END
