TITL C-2782227-3064-80 0.00106889508810592 125000 -887.434392066508 0 0 151 (C1) n - 1
REM
REM in /home/nfs/bkarasulu/CARBON/AIRSS/Generating-Clusters/REBO/Higher-Symm/SD-CG/HFTN-CG
REM
REM
REM
REM
REM
REM ./C.cell (12c818d87b63d06a65506943cc24bca4)
REM
REM compiler GCC version 9.2.1 20190827 (Red Hat 9.2.1-1)
REM options -cpp -mtune=generic -march=x86-64 -g -O0 -fpre-include=/usr/include/finclude/math-vector-fortran.h
REM seed 2004612496 2018689691 848789675 252723346 1259967181 296467153 -1061506469 1538628413 -473051879 -569058797 1145491863 1503115919 1302408881 1000524512 1302649024 -250430543 1033486536 40741180 -1702006097 749685671 -863885919 1991839540 1595838081 -623639377 1208865293 -1356305441 -454837013 1519340114 -282691604 998640395 713551379 -516000269 -1987232492
REM
CELL 1.54180   50.00000   50.00000   50.00000   90.00000   90.00000   90.00000
LATT -1
SFAC C  
C      1  0.5599110000000  0.5960600000000  0.5138650000000 1.0
C      1  0.3827410000000  0.4996180000000  0.5161550000000 1.0
C      1  0.5592360000000  0.3995010000000  0.5156320000000 1.0
C      1  0.4288370000000  0.5673180000000  0.5141970000000 1.0
C      1  0.4762210000000  0.4043640000000  0.5147590000000 1.0
C      1  0.5916740000000  0.5269390000000  0.5108370000000 1.0
C      1  0.5402790000000  0.4744350000000  0.4162670000000 1.0
C      1  0.5055830000000  0.5554140000000  0.4171490000000 1.0
C      1  0.4500260000000  0.4742640000000  0.4139930000000 1.0
C      1  0.4714680000000  0.5002200000000  0.4825170000000 1.0
C      1  0.5146760000000  0.4744790000000  0.4823200000000 1.0
C      1  0.5157090000000  0.5272190000000  0.4860680000000 1.0
C      1  0.5419000000000  0.5161030000000  0.4686450000000 1.0
C      1  0.4736890000000  0.5294830000000  0.4678010000000 1.0
C      1  0.4929470000000  0.4552220000000  0.4734780000000 1.0
C      1  0.5332000000000  0.4534960000000  0.5641330000000 1.0
C      1  0.5229630000000  0.5512940000000  0.5639080000000 1.0
C      1  0.4429680000000  0.4943810000000  0.5637780000000 1.0
C      1  0.4800270000000  0.5943170000000  0.4866270000000 1.0
C      1  0.4288250000000  0.4349030000000  0.4876000000000 1.0
C      1  0.5914990000000  0.4704790000000  0.4876620000000 1.0
C      1  0.4995700000000  0.5225650000000  0.4384870000000 1.0
C      1  0.4804840000000  0.4685800000000  0.4384330000000 1.0
C      1  0.5225350000000  0.5043450000000  0.4357830000000 1.0
C      1  0.4801560000000  0.5873260000000  0.4574570000000 1.0
C      1  0.4331800000000  0.4361460000000  0.4582900000000 1.0
C      1  0.5859170000000  0.4736770000000  0.4590630000000 1.0
C      1  0.5328360000000  0.5378850000000  0.4172000000000 1.0
C      1  0.4600630000000  0.5065700000000  0.4184060000000 1.0
C      1  0.5128630000000  0.4610290000000  0.4198240000000 1.0
C      1  0.5502770000000  0.5676110000000  0.5573710000000 1.0
C      1  0.4154260000000  0.5124290000000  0.5571290000000 1.0
C      1  0.5312980000000  0.4202910000000  0.5571260000000 1.0
C      1  0.5055610000000  0.4478390000000  0.5445410000000 1.0
C      1  0.5424240000000  0.5307650000000  0.5443850000000 1.0
C      1  0.4522900000000  0.5214790000000  0.5450870000000 1.0
C      1  0.4530390000000  0.4437730000000  0.5587890000000 1.0
C      1  0.5717960000000  0.4880070000000  0.5582680000000 1.0
C      1  0.4745640000000  0.5683210000000  0.5583660000000 1.0
C      1  0.5983180000000  0.4860280000000  0.5124440000000 1.0
C      1  0.4629130000000  0.5911110000000  0.5118800000000 1.0
C      1  0.4393390000000  0.4215280000000  0.5127900000000 1.0
C      1  0.4364800000000  0.4999140000000  0.5079690000000 1.0
C      1  0.5295430000000  0.4428700000000  0.5066520000000 1.0
C      1  0.5269610000000  0.5497250000000  0.5097960000000 1.0
C      1  0.4083130000000  0.5428520000000  0.5492510000000 1.0
C      1  0.5084200000000  0.3984630000000  0.5498740000000 1.0
C      1  0.5759060000000  0.5567720000000  0.5416100000000 1.0
C      1  0.5245710000000  0.4822290000000  0.5379100000000 1.0
C      1  0.5031600000000  0.5293080000000  0.5372300000000 1.0
C      1  0.4721090000000  0.4877110000000  0.5373990000000 1.0
C      1  0.5409840000000  0.5752560000000  0.5273490000000 1.0
C      1  0.4106240000000  0.4965950000000  0.5299960000000 1.0
C      1  0.5470270000000  0.4249050000000  0.5296670000000 1.0
C      1  0.4381920000000  0.5328460000000  0.5733330000000 1.0
C      1  0.5020660000000  0.4301650000000  0.5728490000000 1.0
C      1  0.5595790000000  0.5381920000000  0.5728140000000 1.0
C      1  0.5266700000000  0.4904710000000  0.5093250000000 1.0
C      1  0.4937740000000  0.5185370000000  0.5102070000000 1.0
C      1  0.4857150000000  0.4867610000000  0.5094340000000 1.0
C      1  0.5082700000000  0.4416300000000  0.4468370000000 1.0
C      1  0.5488270000000  0.5376460000000  0.4436820000000 1.0
C      1  0.4494420000000  0.5186720000000  0.4465430000000 1.0
C      1  0.4773120000000  0.4222150000000  0.4895690000000 1.0
C      1  0.5876300000000  0.5142200000000  0.4863170000000 1.0
C      1  0.4425740000000  0.5589300000000  0.4894130000000 1.0
C      1  0.4600180000000  0.5221460000000  0.5144450000000 1.0
C      1  0.4988330000000  0.4556580000000  0.5137190000000 1.0
C      1  0.5433160000000  0.5198710000000  0.5136850000000 1.0
C      1  0.5763170000000  0.5970520000000  0.4683610000000 1.0
C      1  0.3828570000000  0.5176200000000  0.4714280000000 1.0
C      1  0.5436250000000  0.3889650000000  0.4713500000000 1.0
C      1  0.4675960000000  0.5222450000000  0.5819770000000 1.0
C      1  0.4963870000000  0.4611230000000  0.5810980000000 1.0
C      1  0.5358680000000  0.5168990000000  0.5813030000000 1.0
C      1  0.5072230000000  0.5992890000000  0.4962120000000 1.0
C      1  0.4122480000000  0.4569140000000  0.4966070000000 1.0
C      1  0.5817240000000  0.4450000000000  0.4970170000000 1.0
C      1  0.4081040000000  0.5297230000000  0.4709630000000 1.0
C      1  0.5187960000000  0.4016200000000  0.4710920000000 1.0
C      1  0.5779580000000  0.5684560000000  0.4670260000000 1.0
C      1  0.5041690000000  0.5802660000000  0.4407100000000 1.0
C      1  0.4298510000000  0.4599150000000  0.4376570000000 1.0
C      1  0.5674190000000  0.4626950000000  0.4332910000000 1.0
C      1  0.5619360000000  0.4389560000000  0.4539960000000 1.0
C      1  0.5271280000000  0.5830740000000  0.4566050000000 1.0
C      1  0.4139700000000  0.4796930000000  0.4545100000000 1.0
C      1  0.5907940000000  0.5079270000000  0.5379540000000 1.0
C      1  0.4474980000000  0.5758490000000  0.5388880000000 1.0
C      1  0.4601710000000  0.4162100000000  0.5399250000000 1.0
C      1  0.5907280000000  0.5213090000000  0.4585660000000 1.0
C      1  0.4385760000000  0.5623060000000  0.4602330000000 1.0
C      1  0.4751390000000  0.4131650000000  0.4600900000000 1.0
C      1  0.5883120000000  0.5331990000000  0.5571770000000 1.0
C      1  0.4289780000000  0.5623370000000  0.5624390000000 1.0
C      1  0.4813220000000  0.4071070000000  0.5631320000000 1.0
C      1  0.4489230000000  0.4733070000000  0.5014290000000 1.0
C      1  0.5496000000000  0.4686290000000  0.4966750000000 1.0
C      1  0.4960690000000  0.5577260000000  0.5026380000000 1.0
C      1  0.5133450000000  0.5296280000000  0.5957090000000 1.0
C      1  0.4665050000000  0.4963900000000  0.5957660000000 1.0
C      1  0.5189350000000  0.4735980000000  0.5952700000000 1.0
C      1  0.5113370000000  0.5875240000000  0.5244270000000 1.0
C      1  0.4180100000000  0.4656090000000  0.5254990000000 1.0
C      1  0.5710990000000  0.4459200000000  0.5258750000000 1.0
C      1  0.5023190000000  0.4121170000000  0.4506100000000 1.0
C      1  0.5786190000000  0.5458680000000  0.4490600000000 1.0
C      1  0.4261480000000  0.5385040000000  0.4509400000000 1.0
C      1  0.5356480000000  0.4539840000000  0.4552200000000 1.0
C      1  0.5361950000000  0.5556190000000  0.4669890000000 1.0
C      1  0.4407940000000  0.4919910000000  0.4586020000000 1.0
C      1  0.5607190000000  0.5584730000000  0.4905710000000 1.0
C      1  0.4226060000000  0.5296510000000  0.4983330000000 1.0
C      1  0.5102250000000  0.4162700000000  0.4975910000000 1.0
C      1  0.4820730000000  0.5937300000000  0.5369600000000 1.0
C      1  0.4272580000000  0.4370260000000  0.5376290000000 1.0
C      1  0.5910440000000  0.4687670000000  0.5378050000000 1.0
C      1  0.4764470000000  0.5485300000000  0.4330040000000 1.0
C      1  0.4642100000000  0.4444500000000  0.4242920000000 1.0
C      1  0.5569110000000  0.5010010000000  0.4299290000000 1.0
C      1  0.5561770000000  0.6057220000000  0.4872250000000 1.0
C      1  0.3814630000000  0.4945850000000  0.4879870000000 1.0
C      1  0.5634700000000  0.4011690000000  0.4873310000000 1.0
C      1  0.5289500000000  0.6020720000000  0.4779320000000 1.0
C      1  0.3989500000000  0.4738420000000  0.4784410000000 1.0
C      1  0.5723970000000  0.4267360000000  0.4778030000000 1.0
C      1  0.4086530000000  0.5472490000000  0.5215310000000 1.0
C      1  0.5040650000000  0.3954450000000  0.5223160000000 1.0
C      1  0.5761610000000  0.5509870000000  0.5138950000000 1.0
C      1  0.5034900000000  0.5455090000000  0.4623000000000 1.0
C      1  0.4661850000000  0.4747220000000  0.4644780000000 1.0
C      1  0.5345340000000  0.4851610000000  0.4589270000000 1.0
C      1  0.5435300000000  0.4838790000000  0.5772660000000 1.0
C      1  0.4918110000000  0.5457950000000  0.5775250000000 1.0
C      1  0.4638340000000  0.4704380000000  0.5772710000000 1.0
C      1  0.5602780000000  0.5005500000000  0.4909550000000 1.0
C      1  0.4703800000000  0.5467660000000  0.4947000000000 1.0
C      1  0.4688530000000  0.4526650000000  0.4975210000000 1.0
C      1  0.4845270000000  0.5280660000000  0.4084920000000 1.0
C      1  0.4839660000000  0.4731790000000  0.4066570000000 1.0
C      1  0.5355670000000  0.5064760000000  0.4042970000000 1.0
C      1  0.4615380000000  0.5690850000000  0.4468450000000 1.0
C      1  0.4558540000000  0.4252500000000  0.4438010000000 1.0
C      1  0.5820760000000  0.4988030000000  0.4438320000000 1.0
C      1  0.4461690000000  0.4713630000000  0.5416070000000 1.0
C      1  0.5519610000000  0.4669980000000  0.5423480000000 1.0
C      1  0.5019880000000  0.5601640000000  0.5418080000000 1.0
C      1  0.5217060000000  0.5076760000000  0.5536680000000 1.0
C      1  0.4824390000000  0.5147690000000  0.5541320000000 1.0
C      1  0.4958300000000  0.4772780000000  0.5530740000000 1.0
C      1  0.5014900000000  0.5011580000000  0.4747630000000 1.0
END
