TITL C-2782232-2968-1304 0.000102745723773529 125000 -1050.68621453595 0 0 176 (C1) n - 1
REM
REM in /home/nfs/bkarasulu/CARBON/AIRSS/Generating-Clusters/REBO/Higher-Symm/SD-CG/HFTN-CG
REM
REM
REM
REM
REM
REM ./C.cell (12c818d87b63d06a65506943cc24bca4)
REM
REM compiler GCC version 9.2.1 20190827 (Red Hat 9.2.1-1)
REM options -cpp -mtune=generic -march=x86-64 -g -O0 -fpre-include=/usr/include/finclude/math-vector-fortran.h
REM seed -1212015368 -1173143559 1713460801 -773297408 -954130862 906568437 -796520943 926814855 -205527520 -1902561737 175848020 1513745332 1235715089 2129761955 1213367776 1660461592 -328080791 -522915267 -877409753 48556518 712324434 -1428701679 -2101325069 -1946868818 -1228294227 -2139460720 -1818323802 -780973702 -452042192 2019920425 -2097818583 159333157 1492588943
REM
CELL 1.54180   50.00000   50.00000   50.00000   90.00000   90.00000   90.00000
LATT -1
SFAC C  
C      1  0.6000320000000  0.5088900000000  0.5275940000000 1.0
C      1  0.6038050000000  0.5256120000000  0.5021450000000 1.0
C      1  0.6035580000000  0.5059280000000  0.4795330000000 1.0
C      1  0.6044370000000  0.4782530000000  0.4892080000000 1.0
C      1  0.6018290000000  0.4799680000000  0.5188970000000 1.0
C      1  0.3979910000000  0.5074300000000  0.4748930000000 1.0
C      1  0.3972740000000  0.5250390000000  0.4992590000000 1.0
C      1  0.3974940000000  0.5066160000000  0.5230700000000 1.0
C      1  0.3998440000000  0.4784460000000  0.5137360000000 1.0
C      1  0.4006390000000  0.4791690000000  0.4836530000000 1.0
C      1  0.4614250000000  0.5523700000000  0.4087780000000 1.0
C      1  0.4783880000000  0.4332260000000  0.4177090000000 1.0
C      1  0.4802690000000  0.3949460000000  0.5298730000000 1.0
C      1  0.4863800000000  0.5105040000000  0.6066000000000 1.0
C      1  0.4756710000000  0.6087230000000  0.5095260000000 1.0
C      1  0.5289610000000  0.5521120000000  0.5928890000000 1.0
C      1  0.5213770000000  0.4283240000000  0.5808200000000 1.0
C      1  0.5366570000000  0.4064700000000  0.4527440000000 1.0
C      1  0.5259450000000  0.5145670000000  0.3951960000000 1.0
C      1  0.5255140000000  0.6099500000000  0.4781100000000 1.0
C      1  0.4368860000000  0.4973540000000  0.4827380000000 1.0
C      1  0.4373710000000  0.4707680000000  0.5035770000000 1.0
C      1  0.4360450000000  0.4929130000000  0.5300770000000 1.0
C      1  0.4350890000000  0.5219630000000  0.5204690000000 1.0
C      1  0.4364670000000  0.5238130000000  0.4914840000000 1.0
C      1  0.5622740000000  0.4937900000000  0.5283490000000 1.0
C      1  0.5646580000000  0.4704710000000  0.5039270000000 1.0
C      1  0.5680390000000  0.4879150000000  0.4760770000000 1.0
C      1  0.5647930000000  0.5179190000000  0.4840570000000 1.0
C      1  0.5649650000000  0.5228010000000  0.5108310000000 1.0
C      1  0.4328760000000  0.5534970000000  0.4748620000000 1.0
C      1  0.4240450000000  0.4962630000000  0.4282890000000 1.0
C      1  0.4369230000000  0.4440700000000  0.4847870000000 1.0
C      1  0.4245930000000  0.4761500000000  0.5579920000000 1.0
C      1  0.4307730000000  0.5410540000000  0.5454590000000 1.0
C      1  0.5673250000000  0.5542000000000  0.5240620000000 1.0
C      1  0.5708760000000  0.4830150000000  0.5595780000000 1.0
C      1  0.5728420000000  0.4380970000000  0.5124310000000 1.0
C      1  0.5725170000000  0.4716910000000  0.4464950000000 1.0
C      1  0.5654980000000  0.5334850000000  0.4558890000000 1.0
C      1  0.4643430000000  0.5924480000000  0.4385780000000 1.0
C      1  0.4636390000000  0.4796980000000  0.4024330000000 1.0
C      1  0.4635320000000  0.3955540000000  0.4855080000000 1.0
C      1  0.4584710000000  0.4631560000000  0.6044170000000 1.0
C      1  0.4536780000000  0.5803090000000  0.5676800000000 1.0
C      1  0.5279540000000  0.5834970000000  0.5502270000000 1.0
C      1  0.5439740000000  0.4694360000000  0.6102120000000 1.0
C      1  0.5347360000000  0.3915640000000  0.5061820000000 1.0
C      1  0.5435150000000  0.4551600000000  0.3974760000000 1.0
C      1  0.5423750000000  0.5731230000000  0.4356840000000 1.0
C      1  0.5882710000000  0.5087080000000  0.4532630000000 1.0
C      1  0.5947990000000  0.4592260000000  0.4695710000000 1.0
C      1  0.5901590000000  0.4581740000000  0.5321610000000 1.0
C      1  0.5866170000000  0.5126620000000  0.5536660000000 1.0
C      1  0.5925180000000  0.5523630000000  0.5022250000000 1.0
C      1  0.4062280000000  0.5173060000000  0.5475900000000 1.0
C      1  0.4205410000000  0.4565340000000  0.5300020000000 1.0
C      1  0.4146550000000  0.4600590000000  0.4676380000000 1.0
C      1  0.4047020000000  0.5133500000000  0.4483760000000 1.0
C      1  0.4088040000000  0.5516870000000  0.4976390000000 1.0
C      1  0.4301660000000  0.5762700000000  0.5078440000000 1.0
C      1  0.4174750000000  0.5324180000000  0.4249960000000 1.0
C      1  0.4319760000000  0.4449600000000  0.4454140000000 1.0
C      1  0.4375040000000  0.4280300000000  0.5383940000000 1.0
C      1  0.4203850000000  0.5156150000000  0.5740620000000 1.0
C      1  0.5796420000000  0.5837970000000  0.5008200000000 1.0
C      1  0.5728850000000  0.5320440000000  0.5760610000000 1.0
C      1  0.5728450000000  0.4418500000000  0.5520400000000 1.0
C      1  0.5797950000000  0.4345180000000  0.4583470000000 1.0
C      1  0.5729390000000  0.5130650000000  0.4244860000000 1.0
C      1  0.5005940000000  0.4378030000000  0.5312990000000 1.0
C      1  0.5121230000000  0.5088090000000  0.5638080000000 1.0
C      1  0.5097580000000  0.5658160000000  0.5147520000000 1.0
C      1  0.5028670000000  0.5334810000000  0.4373680000000 1.0
C      1  0.5047990000000  0.4551300000000  0.4517320000000 1.0
C      1  0.4979340000000  0.4342440000000  0.4758820000000 1.0
C      1  0.4864050000000  0.5044380000000  0.4334610000000 1.0
C      1  0.4957240000000  0.5685460000000  0.4838980000000 1.0
C      1  0.4949090000000  0.5343230000000  0.5581720000000 1.0
C      1  0.4931970000000  0.4539610000000  0.5522100000000 1.0
C      1  0.5242450000000  0.5010690000000  0.4678130000000 1.0
C      1  0.5189840000000  0.4752810000000  0.4864300000000 1.0
C      1  0.5272410000000  0.4732740000000  0.5451070000000 1.0
C      1  0.5118450000000  0.5192180000000  0.5121270000000 1.0
C      1  0.5206420000000  0.5264760000000  0.4831310000000 1.0
C      1  0.4781490000000  0.5068880000000  0.5290290000000 1.0
C      1  0.4766270000000  0.4666940000000  0.5181120000000 1.0
C      1  0.4755200000000  0.4904480000000  0.4756330000000 1.0
C      1  0.4745210000000  0.5202490000000  0.4797050000000 1.0
C      1  0.4721060000000  0.5305530000000  0.5081870000000 1.0
C      1  0.5383830000000  0.4984130000000  0.6022050000000 1.0
C      1  0.5295260000000  0.5988350000000  0.5254380000000 1.0
C      1  0.5275520000000  0.5536660000000  0.4133900000000 1.0
C      1  0.5338130000000  0.4382190000000  0.4202560000000 1.0
C      1  0.5309160000000  0.4033710000000  0.5320650000000 1.0
C      1  0.4684780000000  0.5087670000000  0.3983330000000 1.0
C      1  0.4708620000000  0.5946640000000  0.4666180000000 1.0
C      1  0.4647030000000  0.5564220000000  0.5820250000000 1.0
C      1  0.4647270000000  0.4418390000000  0.5833660000000 1.0
C      1  0.4756160000000  0.4053310000000  0.4600930000000 1.0
C      1  0.4644280000000  0.5543680000000  0.4503080000000 1.0
C      1  0.4600360000000  0.4729230000000  0.4507070000000 1.0
C      1  0.4660720000000  0.4369000000000  0.5111320000000 1.0
C      1  0.4663200000000  0.4839250000000  0.5715290000000 1.0
C      1  0.4661200000000  0.5763780000000  0.5308960000000 1.0
C      1  0.5339680000000  0.5347490000000  0.5325800000000 1.0
C      1  0.5349720000000  0.4691410000000  0.5716900000000 1.0
C      1  0.5388860000000  0.4411740000000  0.4952830000000 1.0
C      1  0.5279220000000  0.4835010000000  0.4201920000000 1.0
C      1  0.5483980000000  0.5686810000000  0.4825980000000 1.0
C      1  0.5400600000000  0.4575210000000  0.5239360000000 1.0
C      1  0.5424250000000  0.5096630000000  0.5509510000000 1.0
C      1  0.5347370000000  0.5498990000000  0.5014760000000 1.0
C      1  0.5257450000000  0.5080860000000  0.4370230000000 1.0
C      1  0.5326530000000  0.4517450000000  0.4671730000000 1.0
C      1  0.4737080000000  0.4569880000000  0.4766450000000 1.0
C      1  0.4653820000000  0.5258850000000  0.4485850000000 1.0
C      1  0.4710930000000  0.5629400000000  0.5056180000000 1.0
C      1  0.4713850000000  0.5122620000000  0.5611850000000 1.0
C      1  0.4602210000000  0.4736550000000  0.5411470000000 1.0
C      1  0.4587830000000  0.4315510000000  0.4614750000000 1.0
C      1  0.4467460000000  0.4498370000000  0.5593160000000 1.0
C      1  0.4499010000000  0.5314950000000  0.5712660000000 1.0
C      1  0.4543460000000  0.5761250000000  0.4830680000000 1.0
C      1  0.4500650000000  0.5164150000000  0.4220190000000 1.0
C      1  0.5492630000000  0.4263410000000  0.5346230000000 1.0
C      1  0.5514460000000  0.4451630000000  0.4446230000000 1.0
C      1  0.5448440000000  0.5318680000000  0.4291200000000 1.0
C      1  0.5570150000000  0.5868090000000  0.5229470000000 1.0
C      1  0.5579460000000  0.5047960000000  0.5803570000000 1.0
C      1  0.4355500000000  0.5700830000000  0.5406580000000 1.0
C      1  0.4376360000000  0.5728500000000  0.4469490000000 1.0
C      1  0.4475580000000  0.4767630000000  0.4265100000000 1.0
C      1  0.4496430000000  0.4173400000000  0.4976680000000 1.0
C      1  0.4370200000000  0.4845530000000  0.5886930000000 1.0
C      1  0.5546250000000  0.5611720000000  0.4569970000000 1.0
C      1  0.5454960000000  0.5596230000000  0.5496370000000 1.0
C      1  0.5643800000000  0.4605230000000  0.5842670000000 1.0
C      1  0.5555790000000  0.4133710000000  0.4962490000000 1.0
C      1  0.5608990000000  0.4779070000000  0.4159080000000 1.0
C      1  0.4543090000000  0.4067380000000  0.5358870000000 1.0
C      1  0.4600520000000  0.5030840000000  0.6059450000000 1.0
C      1  0.4483500000000  0.6051120000000  0.5096770000000 1.0
C      1  0.4369550000000  0.5541720000000  0.4212950000000 1.0
C      1  0.4514760000000  0.4371820000000  0.4226720000000 1.0
C      1  0.5602720000000  0.4126840000000  0.4661020000000 1.0
C      1  0.5524180000000  0.5066940000000  0.3991710000000 1.0
C      1  0.5501040000000  0.5979950000000  0.4857170000000 1.0
C      1  0.5522660000000  0.5515060000000  0.5771160000000 1.0
C      1  0.5489750000000  0.4319200000000  0.5742110000000 1.0
C      1  0.5038320000000  0.4102320000000  0.5369670000000 1.0
C      1  0.5121120000000  0.5071960000000  0.5948010000000 1.0
C      1  0.5015730000000  0.5988710000000  0.5134110000000 1.0
C      1  0.4934680000000  0.5535070000000  0.4148470000000 1.0
C      1  0.5049420000000  0.4393140000000  0.4258980000000 1.0
C      1  0.5082070000000  0.4052470000000  0.4664740000000 1.0
C      1  0.4987640000000  0.5137260000000  0.4028680000000 1.0
C      1  0.4999860000000  0.5983010000000  0.4735400000000 1.0
C      1  0.4987200000000  0.5563410000000  0.5803500000000 1.0
C      1  0.4939620000000  0.4373640000000  0.5766760000000 1.0
C      1  0.5106530000000  0.3870670000000  0.4916380000000 1.0
C      1  0.5144680000000  0.4673490000000  0.5945190000000 1.0
C      1  0.5039530000000  0.5825330000000  0.5639730000000 1.0
C      1  0.5163050000000  0.5853060000000  0.4214310000000 1.0
C      1  0.5133540000000  0.4673460000000  0.3986960000000 1.0
C      1  0.4837860000000  0.3841540000000  0.5031080000000 1.0
C      1  0.4861240000000  0.4646320000000  0.3942750000000 1.0
C      1  0.4859390000000  0.5858620000000  0.4222380000000 1.0
C      1  0.4794250000000  0.5923990000000  0.5535390000000 1.0
C      1  0.4876950000000  0.4725930000000  0.5942250000000 1.0
C      1  0.5026910000000  0.4505960000000  0.5032430000000 1.0
C      1  0.4981830000000  0.5416160000000  0.4672750000000 1.0
C      1  0.4983930000000  0.4839310000000  0.4533090000000 1.0
C      1  0.4977560000000  0.4857050000000  0.5471720000000 1.0
C      1  0.4952630000000  0.5428870000000  0.5300050000000 1.0
C      1  0.4992130000000  0.4899380000000  0.5078180000000 1.0
END
