TITL C-2782225-7408-989 -0.00215838677199944 125000 -728.376922353445 0 0 128 (C1) n - 1
REM
REM in /home/nfs/bkarasulu/CARBON/AIRSS/Generating-Clusters/REBO/Higher-Symm/SD-CG/HFTN-CG
REM
REM
REM
REM
REM
REM ./C.cell (12c818d87b63d06a65506943cc24bca4)
REM
REM compiler GCC version 9.2.1 20190827 (Red Hat 9.2.1-1)
REM options -cpp -mtune=generic -march=x86-64 -g -O0 -fpre-include=/usr/include/finclude/math-vector-fortran.h
REM seed 411316458 572215879 902037991 -588012011 821455694 1143812880 162397348 2116004534 212505830 -1370839076 2135251278 -76980980 651388437 897346509 1149163744 -1930012117 1140720548 -913661814 1230207720 -671572181 -1722021350 -405051210 1750396758 1437949726 -1383655960 -1697866635 1811280651 -806782259 -605713660 1178782771 -1327415129 58570545 -1639064126
REM
CELL 1.54180   50.00000   50.00000   50.00000   90.00000   90.00000   90.00000
LATT -1
SFAC C  
C      1  0.4212030000000  0.5591280000000  0.4806280000000 1.0
C      1  0.5767030000000  0.5655980000000  0.5173540000000 1.0
C      1  0.4231700000000  0.4355780000000  0.4835490000000 1.0
C      1  0.5778200000000  0.4424070000000  0.5196190000000 1.0
C      1  0.5714480000000  0.5629300000000  0.4838560000000 1.0
C      1  0.4248100000000  0.5599030000000  0.5136690000000 1.0
C      1  0.5734060000000  0.4409520000000  0.4876610000000 1.0
C      1  0.4289720000000  0.4372430000000  0.5170170000000 1.0
C      1  0.4299790000000  0.4502180000000  0.5467460000000 1.0
C      1  0.5709140000000  0.4540990000000  0.4566400000000 1.0
C      1  0.4275870000000  0.5459210000000  0.5445580000000 1.0
C      1  0.5700350000000  0.5499450000000  0.4536380000000 1.0
C      1  0.5725380000000  0.4578780000000  0.5469530000000 1.0
C      1  0.4262270000000  0.4494430000000  0.4534430000000 1.0
C      1  0.5736520000000  0.5514820000000  0.5474210000000 1.0
C      1  0.4285220000000  0.5432090000000  0.4527630000000 1.0
C      1  0.5145120000000  0.5283560000000  0.5487060000000 1.0
C      1  0.4826500000000  0.5347750000000  0.4542410000000 1.0
C      1  0.5164460000000  0.4639430000000  0.5481670000000 1.0
C      1  0.4847790000000  0.4722080000000  0.4510260000000 1.0
C      1  0.4843420000000  0.5276250000000  0.5480710000000 1.0
C      1  0.5142360000000  0.5290330000000  0.4475030000000 1.0
C      1  0.4852970000000  0.4654790000000  0.5459560000000 1.0
C      1  0.5150530000000  0.4729070000000  0.4517900000000 1.0
C      1  0.5565060000000  0.4859810000000  0.5700910000000 1.0
C      1  0.4377090000000  0.4814360000000  0.4314480000000 1.0
C      1  0.5626230000000  0.5192450000000  0.5684920000000 1.0
C      1  0.4448030000000  0.5145790000000  0.4304570000000 1.0
C      1  0.4406410000000  0.4894350000000  0.5688650000000 1.0
C      1  0.5634450000000  0.4774560000000  0.4255810000000 1.0
C      1  0.4370210000000  0.5210210000000  0.5738750000000 1.0
C      1  0.5600310000000  0.5094600000000  0.4286040000000 1.0
C      1  0.4712040000000  0.4811350000000  0.5722540000000 1.0
C      1  0.5299300000000  0.4837990000000  0.4244940000000 1.0
C      1  0.4706010000000  0.5149920000000  0.5742360000000 1.0
C      1  0.5293530000000  0.5167410000000  0.4227970000000 1.0
C      1  0.5237550000000  0.4834530000000  0.5750780000000 1.0
C      1  0.4710630000000  0.4849260000000  0.4251620000000 1.0
C      1  0.5292660000000  0.5149470000000  0.5741360000000 1.0
C      1  0.4778750000000  0.5162920000000  0.4258330000000 1.0
C      1  0.4202750000000  0.5103210000000  0.4527550000000 1.0
C      1  0.5884240000000  0.5229990000000  0.5480810000000 1.0
C      1  0.4112980000000  0.4779040000000  0.4513120000000 1.0
C      1  0.5803980000000  0.4905740000000  0.5472020000000 1.0
C      1  0.5775410000000  0.5202240000000  0.4535860000000 1.0
C      1  0.4173060000000  0.5134760000000  0.5474010000000 1.0
C      1  0.5816220000000  0.4863160000000  0.4526040000000 1.0
C      1  0.4211850000000  0.4796680000000  0.5453620000000 1.0
C      1  0.4833890000000  0.5123790000000  0.4850860000000 1.0
C      1  0.5259070000000  0.5173280000000  0.5230600000000 1.0
C      1  0.4725350000000  0.4845620000000  0.4761630000000 1.0
C      1  0.5137950000000  0.4901360000000  0.5139120000000 1.0
C      1  0.5146450000000  0.5177230000000  0.4772830000000 1.0
C      1  0.4770950000000  0.5174150000000  0.5175200000000 1.0
C      1  0.5215660000000  0.4840530000000  0.4818630000000 1.0
C      1  0.4842450000000  0.4848210000000  0.5228320000000 1.0
C      1  0.4826790000000  0.4537120000000  0.4162370000000 1.0
C      1  0.5165280000000  0.4513660000000  0.5848820000000 1.0
C      1  0.4869440000000  0.5482880000000  0.4180710000000 1.0
C      1  0.5170400000000  0.5455140000000  0.5842160000000 1.0
C      1  0.5166550000000  0.4528950000000  0.4176720000000 1.0
C      1  0.4825040000000  0.4508100000000  0.5826720000000 1.0
C      1  0.5209310000000  0.5488100000000  0.4141120000000 1.0
C      1  0.4830310000000  0.5459450000000  0.5830150000000 1.0
C      1  0.5488900000000  0.5140730000000  0.4807380000000 1.0
C      1  0.4433600000000  0.5207330000000  0.5180090000000 1.0
C      1  0.5552260000000  0.4806170000000  0.4820230000000 1.0
C      1  0.4506800000000  0.4874960000000  0.5177080000000 1.0
C      1  0.4509680000000  0.5177820000000  0.4788670000000 1.0
C      1  0.5589820000000  0.5152540000000  0.5222260000000 1.0
C      1  0.4391630000000  0.4861900000000  0.4786340000000 1.0
C      1  0.5464830000000  0.4835860000000  0.5209430000000 1.0
C      1  0.5479950000000  0.4537400000000  0.5156570000000 1.0
C      1  0.4463260000000  0.4569740000000  0.4872330000000 1.0
C      1  0.5524170000000  0.5454460000000  0.5140800000000 1.0
C      1  0.4504760000000  0.5473850000000  0.4858550000000 1.0
C      1  0.4577670000000  0.4552960000000  0.5188440000000 1.0
C      1  0.5414130000000  0.4494690000000  0.4827900000000 1.0
C      1  0.4571040000000  0.5518890000000  0.5190940000000 1.0
C      1  0.5424620000000  0.5459210000000  0.4821280000000 1.0
C      1  0.5197800000000  0.5485790000000  0.5147150000000 1.0
C      1  0.4786880000000  0.5610270000000  0.4868440000000 1.0
C      1  0.5195400000000  0.4393930000000  0.5146220000000 1.0
C      1  0.4791170000000  0.4532160000000  0.4854960000000 1.0
C      1  0.4891310000000  0.5505300000000  0.5158850000000 1.0
C      1  0.5103980000000  0.5520140000000  0.4826120000000 1.0
C      1  0.4856640000000  0.4398360000000  0.5152940000000 1.0
C      1  0.5094380000000  0.4517730000000  0.4857770000000 1.0
C      1  0.4099080000000  0.5241210000000  0.5164390000000 1.0
C      1  0.5823350000000  0.5095780000000  0.4850880000000 1.0
C      1  0.4170440000000  0.4910950000000  0.5141890000000 1.0
C      1  0.5888510000000  0.4765910000000  0.4838010000000 1.0
C      1  0.5917730000000  0.5139350000000  0.5169320000000 1.0
C      1  0.4175610000000  0.5189560000000  0.4855490000000 1.0
C      1  0.5799020000000  0.4823200000000  0.5142430000000 1.0
C      1  0.4061710000000  0.4873480000000  0.4821850000000 1.0
C      1  0.4790070000000  0.4326690000000  0.5540320000000 1.0
C      1  0.5230890000000  0.4397530000000  0.4487170000000 1.0
C      1  0.4770540000000  0.5609860000000  0.5525190000000 1.0
C      1  0.5208060000000  0.5625710000000  0.4455680000000 1.0
C      1  0.5259330000000  0.4324390000000  0.5574040000000 1.0
C      1  0.4771510000000  0.4391130000000  0.4472700000000 1.0
C      1  0.5232020000000  0.5605710000000  0.5536990000000 1.0
C      1  0.4761000000000  0.5669760000000  0.4448040000000 1.0
C      1  0.5278250000000  0.5922620000000  0.4856910000000 1.0
C      1  0.4745750000000  0.5996810000000  0.5161520000000 1.0
C      1  0.5276130000000  0.4017750000000  0.4846540000000 1.0
C      1  0.4776050000000  0.4079480000000  0.5120720000000 1.0
C      1  0.4749530000000  0.5925910000000  0.4886270000000 1.0
C      1  0.5277240000000  0.5907850000000  0.5127640000000 1.0
C      1  0.4736750000000  0.4019840000000  0.4847980000000 1.0
C      1  0.5279090000000  0.4085090000000  0.5122070000000 1.0
C      1  0.5147320000000  0.5820500000000  0.5359670000000 1.0
C      1  0.4866600000000  0.5899590000000  0.4607800000000 1.0
C      1  0.5171540000000  0.4092940000000  0.5406280000000 1.0
C      1  0.4862350000000  0.4165410000000  0.4638970000000 1.0
C      1  0.4867390000000  0.5843330000000  0.5369850000000 1.0
C      1  0.5146020000000  0.5858950000000  0.4617860000000 1.0
C      1  0.4887520000000  0.4089010000000  0.5401100000000 1.0
C      1  0.5142720000000  0.4167390000000  0.4643670000000 1.0
C      1  0.4521900000000  0.4465410000000  0.5658710000000 1.0
C      1  0.5485250000000  0.4492080000000  0.4313810000000 1.0
C      1  0.4514960000000  0.5495610000000  0.5686020000000 1.0
C      1  0.5494880000000  0.5551670000000  0.4330590000000 1.0
C      1  0.5483540000000  0.4528670000000  0.5700510000000 1.0
C      1  0.4514990000000  0.4507420000000  0.4310570000000 1.0
C      1  0.5486300000000  0.5495700000000  0.5703920000000 1.0
C      1  0.4537720000000  0.5474590000000  0.4303120000000 1.0
END
