TITL C-2782234-8014-422 -0.00255864562903808 125000 -1038.74107219122 0 0 177 (C1) n - 1
REM
REM in /home/nfs/bkarasulu/CARBON/AIRSS/Generating-Clusters/REBO/Higher-Symm/SD-CG/HFTN-CG
REM
REM
REM
REM
REM
REM ./C.cell (12c818d87b63d06a65506943cc24bca4)
REM
REM compiler GCC version 9.2.1 20190827 (Red Hat 9.2.1-1)
REM options -cpp -mtune=generic -march=x86-64 -g -O0 -fpre-include=/usr/include/finclude/math-vector-fortran.h
REM seed -2084069786 34155190 131360896 -471664068 1947604872 -2063286364 1751929619 -1865287555 -477891137 -2079425083 991211441 1660081586 1514388930 815899296 202731973 -1445866816 -1655850891 -53533136 1529208749 1896643335 29149656 -1284863254 -980678573 -231624139 510086493 1728164817 -1912587587 -1800455825 11919723 1651645271 -1946973805 1765850122 -1353076939
REM
CELL 1.54180   50.00000   50.00000   50.00000   90.00000   90.00000   90.00000
LATT -1
SFAC C  
C      1  0.3895240000000  0.4673760000000  0.5200840000000 1.0
C      1  0.3944700000000  0.5254680000000  0.5184910000000 1.0
C      1  0.5239050000000  0.4304100000000  0.4624950000000 1.0
C      1  0.5189650000000  0.5600700000000  0.4680820000000 1.0
C      1  0.5620860000000  0.4036490000000  0.4617160000000 1.0
C      1  0.5592980000000  0.5964800000000  0.4659450000000 1.0
C      1  0.4670600000000  0.4408860000000  0.5703720000000 1.0
C      1  0.4637870000000  0.5612790000000  0.5700700000000 1.0
C      1  0.4080500000000  0.5107800000000  0.5385650000000 1.0
C      1  0.4034210000000  0.4815160000000  0.5397250000000 1.0
C      1  0.5081110000000  0.4115900000000  0.5668930000000 1.0
C      1  0.5056490000000  0.5889930000000  0.5624110000000 1.0
C      1  0.5925240000000  0.4379520000000  0.4876300000000 1.0
C      1  0.5923280000000  0.5633300000000  0.4856520000000 1.0
C      1  0.4381950000000  0.5183800000000  0.5486400000000 1.0
C      1  0.4358230000000  0.4846810000000  0.5503240000000 1.0
C      1  0.5732670000000  0.5700740000000  0.4632710000000 1.0
C      1  0.5756960000000  0.4303510000000  0.4633910000000 1.0
C      1  0.4560050000000  0.5824180000000  0.5500010000000 1.0
C      1  0.4591510000000  0.4185730000000  0.5492110000000 1.0
C      1  0.5770530000000  0.4863930000000  0.5259550000000 1.0
C      1  0.5745720000000  0.5146100000000  0.5242350000000 1.0
C      1  0.4833440000000  0.3943640000000  0.4746230000000 1.0
C      1  0.4863070000000  0.6042650000000  0.4806970000000 1.0
C      1  0.4740160000000  0.4822010000000  0.6029930000000 1.0
C      1  0.4720610000000  0.5215000000000  0.6089020000000 1.0
C      1  0.4811020000000  0.5493690000000  0.5162530000000 1.0
C      1  0.4663280000000  0.4555260000000  0.5106980000000 1.0
C      1  0.4521830000000  0.4454230000000  0.4748310000000 1.0
C      1  0.4534250000000  0.5572100000000  0.4756640000000 1.0
C      1  0.4354110000000  0.4217410000000  0.5042070000000 1.0
C      1  0.4302890000000  0.5846340000000  0.5034660000000 1.0
C      1  0.4826310000000  0.6139650000000  0.5132110000000 1.0
C      1  0.4903200000000  0.3925480000000  0.5104470000000 1.0
C      1  0.4386410000000  0.5410290000000  0.5815730000000 1.0
C      1  0.4359220000000  0.4533480000000  0.5803260000000 1.0
C      1  0.4477980000000  0.5175090000000  0.5956230000000 1.0
C      1  0.4436430000000  0.4853040000000  0.5894590000000 1.0
C      1  0.3702710000000  0.4818860000000  0.5042290000000 1.0
C      1  0.3730510000000  0.5131090000000  0.5025090000000 1.0
C      1  0.5685850000000  0.5453860000000  0.4445260000000 1.0
C      1  0.5736820000000  0.4516580000000  0.4397250000000 1.0
C      1  0.4085960000000  0.5301770000000  0.4718840000000 1.0
C      1  0.4092930000000  0.4715570000000  0.4716460000000 1.0
C      1  0.4778530000000  0.5154020000000  0.5180810000000 1.0
C      1  0.4786970000000  0.4829100000000  0.5191990000000 1.0
C      1  0.5391340000000  0.5428320000000  0.3988670000000 1.0
C      1  0.5402450000000  0.4654660000000  0.3991390000000 1.0
C      1  0.5800180000000  0.4637200000000  0.5488850000000 1.0
C      1  0.5794700000000  0.5385190000000  0.5459950000000 1.0
C      1  0.4404690000000  0.4839260000000  0.4656030000000 1.0
C      1  0.4400240000000  0.5179510000000  0.4660410000000 1.0
C      1  0.4247690000000  0.5267520000000  0.4253970000000 1.0
C      1  0.4276740000000  0.4794030000000  0.4277880000000 1.0
C      1  0.5838760000000  0.4243730000000  0.5149160000000 1.0
C      1  0.5859150000000  0.5779690000000  0.5127800000000 1.0
C      1  0.3820950000000  0.4859170000000  0.4749700000000 1.0
C      1  0.3820460000000  0.5160500000000  0.4717500000000 1.0
C      1  0.5552120000000  0.4786260000000  0.4818700000000 1.0
C      1  0.5509100000000  0.5107400000000  0.4795780000000 1.0
C      1  0.5284830000000  0.5666140000000  0.4176130000000 1.0
C      1  0.5310620000000  0.4375960000000  0.4128390000000 1.0
C      1  0.4980900000000  0.4484110000000  0.4582100000000 1.0
C      1  0.4927410000000  0.5432350000000  0.4573620000000 1.0
C      1  0.5273100000000  0.4799770000000  0.4700090000000 1.0
C      1  0.5240280000000  0.5135840000000  0.4631870000000 1.0
C      1  0.5667910000000  0.5153030000000  0.4303910000000 1.0
C      1  0.5706300000000  0.4834710000000  0.4328750000000 1.0
C      1  0.5282600000000  0.4562480000000  0.5620540000000 1.0
C      1  0.5299460000000  0.5474380000000  0.5565100000000 1.0
C      1  0.5451460000000  0.4425160000000  0.5889610000000 1.0
C      1  0.5427570000000  0.5621160000000  0.5852780000000 1.0
C      1  0.5155620000000  0.5674850000000  0.5071770000000 1.0
C      1  0.5172600000000  0.4105920000000  0.5092800000000 1.0
C      1  0.5730560000000  0.5141660000000  0.5689000000000 1.0
C      1  0.5715420000000  0.4848440000000  0.5719320000000 1.0
C      1  0.5107940000000  0.5374230000000  0.4923860000000 1.0
C      1  0.5130510000000  0.4387480000000  0.4938970000000 1.0
C      1  0.5284780000000  0.5928450000000  0.4081080000000 1.0
C      1  0.5311080000000  0.4142280000000  0.3974870000000 1.0
C      1  0.4206690000000  0.4337390000000  0.4764670000000 1.0
C      1  0.4220610000000  0.5703410000000  0.4772480000000 1.0
C      1  0.4649410000000  0.4750050000000  0.5647070000000 1.0
C      1  0.4673200000000  0.5307920000000  0.5565930000000 1.0
C      1  0.5018420000000  0.5234790000000  0.5380180000000 1.0
C      1  0.5003510000000  0.4749410000000  0.5378250000000 1.0
C      1  0.4068580000000  0.4535850000000  0.5004750000000 1.0
C      1  0.4113480000000  0.5401140000000  0.5010650000000 1.0
C      1  0.4813420000000  0.4422390000000  0.4849910000000 1.0
C      1  0.4830950000000  0.5571050000000  0.4855090000000 1.0
C      1  0.4919680000000  0.4251140000000  0.5874600000000 1.0
C      1  0.4909500000000  0.5720550000000  0.5803510000000 1.0
C      1  0.4302020000000  0.5514290000000  0.5508310000000 1.0
C      1  0.4268330000000  0.4515980000000  0.5495870000000 1.0
C      1  0.4567680000000  0.4603620000000  0.4467520000000 1.0
C      1  0.4544680000000  0.5421700000000  0.4466610000000 1.0
C      1  0.4809990000000  0.4453670000000  0.4316000000000 1.0
C      1  0.4791650000000  0.5565270000000  0.4316740000000 1.0
C      1  0.5038300000000  0.4887820000000  0.3977370000000 1.0
C      1  0.5026390000000  0.5167360000000  0.3951910000000 1.0
C      1  0.5618960000000  0.5833960000000  0.5253890000000 1.0
C      1  0.5624390000000  0.4178240000000  0.5306440000000 1.0
C      1  0.4339460000000  0.4297530000000  0.5320590000000 1.0
C      1  0.4301010000000  0.5742180000000  0.5305260000000 1.0
C      1  0.5552370000000  0.4726130000000  0.5110240000000 1.0
C      1  0.5504770000000  0.5208090000000  0.5084510000000 1.0
C      1  0.5288750000000  0.5148060000000  0.6017270000000 1.0
C      1  0.5308600000000  0.4870990000000  0.6011160000000 1.0
C      1  0.4857930000000  0.4848700000000  0.4346280000000 1.0
C      1  0.4804350000000  0.5168390000000  0.4299570000000 1.0
C      1  0.5359830000000  0.4179970000000  0.5691500000000 1.0
C      1  0.5343300000000  0.5858670000000  0.5647310000000 1.0
C      1  0.5076820000000  0.5549580000000  0.5359170000000 1.0
C      1  0.4973690000000  0.4483770000000  0.5555700000000 1.0
C      1  0.5560890000000  0.4396690000000  0.5511810000000 1.0
C      1  0.5578010000000  0.5646380000000  0.5493650000000 1.0
C      1  0.4930960000000  0.4859550000000  0.5681220000000 1.0
C      1  0.4934260000000  0.5159790000000  0.5678080000000 1.0
C      1  0.5376700000000  0.6053290000000  0.4745850000000 1.0
C      1  0.5401690000000  0.3926620000000  0.4650240000000 1.0
C      1  0.5393000000000  0.5887490000000  0.5114230000000 1.0
C      1  0.5418390000000  0.4022060000000  0.5237910000000 1.0
C      1  0.5342630000000  0.5166790000000  0.5602740000000 1.0
C      1  0.5327180000000  0.4863580000000  0.5581460000000 1.0
C      1  0.4874580000000  0.4786340000000  0.4668840000000 1.0
C      1  0.4843100000000  0.5123160000000  0.4634650000000 1.0
C      1  0.5125310000000  0.5890120000000  0.4818690000000 1.0
C      1  0.5131250000000  0.4020970000000  0.4782690000000 1.0
C      1  0.5141740000000  0.5142520000000  0.4331930000000 1.0
C      1  0.5183150000000  0.4814380000000  0.4402750000000 1.0
C      1  0.5968990000000  0.5490510000000  0.5197410000000 1.0
C      1  0.5970410000000  0.4521540000000  0.5217830000000 1.0
C      1  0.4369560000000  0.4623310000000  0.4989720000000 1.0
C      1  0.4386840000000  0.5458180000000  0.5038690000000 1.0
C      1  0.5068590000000  0.4717000000000  0.4932430000000 1.0
C      1  0.5046070000000  0.5057210000000  0.4901680000000 1.0
C      1  0.4718060000000  0.4261670000000  0.5201260000000 1.0
C      1  0.4686170000000  0.5774550000000  0.5203650000000 1.0
C      1  0.5741350000000  0.5199450000000  0.4628660000000 1.0
C      1  0.5779320000000  0.4734540000000  0.4635450000000 1.0
C      1  0.5045410000000  0.4734330000000  0.5964170000000 1.0
C      1  0.5013700000000  0.5264930000000  0.5966770000000 1.0
C      1  0.4743330000000  0.4150360000000  0.4292460000000 1.0
C      1  0.4764930000000  0.5872500000000  0.4338240000000 1.0
C      1  0.5989430000000  0.5121410000000  0.4771340000000 1.0
C      1  0.6006710000000  0.4853770000000  0.4780480000000 1.0
C      1  0.5031020000000  0.4568420000000  0.4106240000000 1.0
C      1  0.5012480000000  0.5476830000000  0.4101360000000 1.0
C      1  0.6335020000000  0.4880730000000  0.5006630000000 1.0
C      1  0.6321850000000  0.5127390000000  0.4993240000000 1.0
C      1  0.4759900000000  0.4729570000000  0.3980930000000 1.0
C      1  0.4748650000000  0.5333880000000  0.3942630000000 1.0
C      1  0.4786050000000  0.6051390000000  0.4508500000000 1.0
C      1  0.4746670000000  0.3971860000000  0.4466460000000 1.0
C      1  0.5051780000000  0.4430140000000  0.6036410000000 1.0
C      1  0.5035020000000  0.5571280000000  0.5988780000000 1.0
C      1  0.4221090000000  0.5497760000000  0.4499530000000 1.0
C      1  0.4235380000000  0.4525570000000  0.4480060000000 1.0
C      1  0.4561530000000  0.4876180000000  0.4177160000000 1.0
C      1  0.4526210000000  0.5209090000000  0.4130040000000 1.0
C      1  0.5528940000000  0.4724060000000  0.5908140000000 1.0
C      1  0.5505970000000  0.5309770000000  0.5864470000000 1.0
C      1  0.4851420000000  0.5984870000000  0.5417550000000 1.0
C      1  0.4901130000000  0.4064300000000  0.5416140000000 1.0
C      1  0.4618860000000  0.4049690000000  0.4967640000000 1.0
C      1  0.4581830000000  0.5972410000000  0.4971140000000 1.0
C      1  0.5397040000000  0.5185460000000  0.4128000000000 1.0
C      1  0.5418790000000  0.4863840000000  0.4188340000000 1.0
C      1  0.5412440000000  0.5626290000000  0.4467910000000 1.0
C      1  0.5459400000000  0.4345740000000  0.4421880000000 1.0
C      1  0.4553810000000  0.4906970000000  0.4955020000000 1.0
C      1  0.4570460000000  0.5224280000000  0.4948990000000 1.0
C      1  0.6110790000000  0.5359960000000  0.4932210000000 1.0
C      1  0.6140320000000  0.4631350000000  0.4958060000000 1.0
C      1  0.5292810000000  0.4785550000000  0.5255380000000 1.0
C      1  0.5284650000000  0.5107810000000  0.5270860000000 1.0
C      1  0.4115920000000  0.5022090000000  0.4287570000000 1.0
END
