TITL C-2782225-7408-574 -0.000127071922413416 125000 -882.032090260124 0 0 150 (C1) n - 1
REM
REM in /home/nfs/bkarasulu/CARBON/AIRSS/Generating-Clusters/REBO/Higher-Symm/SD-CG/HFTN-CG
REM
REM
REM
REM
REM
REM ./C.cell (12c818d87b63d06a65506943cc24bca4)
REM
REM compiler GCC version 9.2.1 20190827 (Red Hat 9.2.1-1)
REM options -cpp -mtune=generic -march=x86-64 -g -O0 -fpre-include=/usr/include/finclude/math-vector-fortran.h
REM seed -592716805 -1113119147 -829881695 1283074085 -1486445941 -827010081 1946636150 -1738808685 699573061 845625617 1123690947 -396961657 50653429 -1687347143 1839984858 -277158013 -1493819597 -229553989 2002968965 -280045359 -1800106047 -1057107253 447215667 238956693 287413739 -996724835 2083728262 424765806 -79981154 -1592264837 1592280051 1282220422 60767365
REM
CELL 1.54180   50.00000   50.00000   50.00000   90.00000   90.00000   90.00000
LATT -1
SFAC C  
C      1  0.4776690000000  0.4450910000000  0.4838790000000 1.0
C      1  0.4739940000000  0.5599430000000  0.4843300000000 1.0
C      1  0.5350700000000  0.6003140000000  0.4907370000000 1.0
C      1  0.5373230000000  0.3976160000000  0.4861330000000 1.0
C      1  0.4650290000000  0.5176300000000  0.4547310000000 1.0
C      1  0.4661110000000  0.4865310000000  0.4516370000000 1.0
C      1  0.5072980000000  0.4823840000000  0.6055610000000 1.0
C      1  0.5094000000000  0.5136760000000  0.6017020000000 1.0
C      1  0.4255180000000  0.5135800000000  0.4511020000000 1.0
C      1  0.4269810000000  0.4818110000000  0.4449630000000 1.0
C      1  0.5107610000000  0.5798150000000  0.4496410000000 1.0
C      1  0.5130190000000  0.4199160000000  0.4481880000000 1.0
C      1  0.5363720000000  0.4634910000000  0.5089700000000 1.0
C      1  0.5351730000000  0.5354330000000  0.5070920000000 1.0
C      1  0.5673560000000  0.5626480000000  0.4689430000000 1.0
C      1  0.5715260000000  0.4420450000000  0.4671370000000 1.0
C      1  0.5522020000000  0.4850450000000  0.5729750000000 1.0
C      1  0.5526460000000  0.5216400000000  0.5727140000000 1.0
C      1  0.3988090000000  0.5257390000000  0.5410080000000 1.0
C      1  0.3978100000000  0.4752270000000  0.5419220000000 1.0
C      1  0.5414730000000  0.4543340000000  0.5834270000000 1.0
C      1  0.5381140000000  0.5510910000000  0.5819510000000 1.0
C      1  0.5234990000000  0.5626290000000  0.4971730000000 1.0
C      1  0.5276460000000  0.4361020000000  0.4967540000000 1.0
C      1  0.4882610000000  0.4099150000000  0.5259210000000 1.0
C      1  0.4854380000000  0.5949030000000  0.5262220000000 1.0
C      1  0.5148190000000  0.5153050000000  0.5230030000000 1.0
C      1  0.5185390000000  0.4851760000000  0.5238300000000 1.0
C      1  0.4247400000000  0.4363440000000  0.5235680000000 1.0
C      1  0.4228780000000  0.5650360000000  0.5262320000000 1.0
C      1  0.4404700000000  0.4222290000000  0.5451940000000 1.0
C      1  0.4394420000000  0.5783760000000  0.5480810000000 1.0
C      1  0.4310190000000  0.4840940000000  0.4967860000000 1.0
C      1  0.4345620000000  0.5164700000000  0.5024010000000 1.0
C      1  0.4688340000000  0.4467430000000  0.4226320000000 1.0
C      1  0.4695300000000  0.5462650000000  0.4274570000000 1.0
C      1  0.5169100000000  0.5843990000000  0.5224810000000 1.0
C      1  0.5207450000000  0.4117430000000  0.5195070000000 1.0
C      1  0.5888720000000  0.5158190000000  0.5213910000000 1.0
C      1  0.5885060000000  0.4857310000000  0.5238670000000 1.0
C      1  0.4556830000000  0.4870820000000  0.5192980000000 1.0
C      1  0.4596230000000  0.5177490000000  0.5225830000000 1.0
C      1  0.5090640000000  0.4869410000000  0.4501750000000 1.0
C      1  0.5105710000000  0.5228950000000  0.4526430000000 1.0
C      1  0.3942760000000  0.5377670000000  0.4937420000000 1.0
C      1  0.3962390000000  0.4647570000000  0.4935820000000 1.0
C      1  0.5194940000000  0.4862470000000  0.5744870000000 1.0
C      1  0.5217160000000  0.5165750000000  0.5710930000000 1.0
C      1  0.5007410000000  0.4886720000000  0.4967710000000 1.0
C      1  0.5010430000000  0.5194480000000  0.4938760000000 1.0
C      1  0.5756710000000  0.5116550000000  0.4704400000000 1.0
C      1  0.5761600000000  0.4834550000000  0.4718800000000 1.0
C      1  0.4814550000000  0.5769200000000  0.4363770000000 1.0
C      1  0.4843360000000  0.4193510000000  0.4339270000000 1.0
C      1  0.5485390000000  0.4835390000000  0.4015690000000 1.0
C      1  0.5470800000000  0.5170110000000  0.3992740000000 1.0
C      1  0.5035290000000  0.5163560000000  0.4237290000000 1.0
C      1  0.5000940000000  0.4849160000000  0.4199850000000 1.0
C      1  0.5525070000000  0.4723590000000  0.4857570000000 1.0
C      1  0.5524890000000  0.5244870000000  0.4857440000000 1.0
C      1  0.4964420000000  0.4344210000000  0.5763340000000 1.0
C      1  0.4960210000000  0.5681880000000  0.5780670000000 1.0
C      1  0.4583430000000  0.5961530000000  0.4778390000000 1.0
C      1  0.4617990000000  0.4049700000000  0.4773740000000 1.0
C      1  0.4098780000000  0.4830010000000  0.4714160000000 1.0
C      1  0.4113470000000  0.5146320000000  0.4801720000000 1.0
C      1  0.5540820000000  0.5400620000000  0.4234730000000 1.0
C      1  0.5551200000000  0.4539730000000  0.4176330000000 1.0
C      1  0.4313320000000  0.5845780000000  0.4927150000000 1.0
C      1  0.4338950000000  0.4173500000000  0.4900660000000 1.0
C      1  0.5762760000000  0.4791590000000  0.4209460000000 1.0
C      1  0.5721360000000  0.5098510000000  0.4201450000000 1.0
C      1  0.4622220000000  0.4459880000000  0.5561980000000 1.0
C      1  0.4641800000000  0.5564720000000  0.5570070000000 1.0
C      1  0.4434220000000  0.5594890000000  0.4728810000000 1.0
C      1  0.4481190000000  0.4418870000000  0.4709260000000 1.0
C      1  0.5828380000000  0.5237200000000  0.4457320000000 1.0
C      1  0.5841170000000  0.4674690000000  0.4483440000000 1.0
C      1  0.5692690000000  0.4313970000000  0.5155540000000 1.0
C      1  0.5671970000000  0.5638020000000  0.5170190000000 1.0
C      1  0.4704480000000  0.5489570000000  0.5896340000000 1.0
C      1  0.4722250000000  0.4562940000000  0.5870720000000 1.0
C      1  0.4467650000000  0.4747560000000  0.5465450000000 1.0
C      1  0.4486390000000  0.5273670000000  0.5498850000000 1.0
C      1  0.4711380000000  0.4878250000000  0.5911560000000 1.0
C      1  0.4707210000000  0.5189920000000  0.5945610000000 1.0
C      1  0.4213550000000  0.5149470000000  0.5546020000000 1.0
C      1  0.4208670000000  0.4865330000000  0.5544480000000 1.0
C      1  0.4651990000000  0.4015930000000  0.4499440000000 1.0
C      1  0.4610800000000  0.5948670000000  0.4501760000000 1.0
C      1  0.5311690000000  0.4439470000000  0.4342190000000 1.0
C      1  0.5305670000000  0.5555890000000  0.4360600000000 1.0
C      1  0.4786410000000  0.4692470000000  0.5080090000000 1.0
C      1  0.4793700000000  0.5365070000000  0.5082520000000 1.0
C      1  0.4422140000000  0.4548140000000  0.5005150000000 1.0
C      1  0.4412080000000  0.5474300000000  0.5034860000000 1.0
C      1  0.4050990000000  0.5636650000000  0.4995870000000 1.0
C      1  0.4067880000000  0.4373180000000  0.4974060000000 1.0
C      1  0.5205190000000  0.4683530000000  0.4037840000000 1.0
C      1  0.5202650000000  0.5324590000000  0.4035250000000 1.0
C      1  0.6138390000000  0.5138570000000  0.4820700000000 1.0
C      1  0.6141080000000  0.4858770000000  0.4842080000000 1.0
C      1  0.4850450000000  0.5890560000000  0.4934350000000 1.0
C      1  0.4879950000000  0.4151390000000  0.4924110000000 1.0
C      1  0.4432340000000  0.5409850000000  0.4485860000000 1.0
C      1  0.4480710000000  0.4583440000000  0.4454650000000 1.0
C      1  0.5531490000000  0.4086630000000  0.5097920000000 1.0
C      1  0.5498350000000  0.5866860000000  0.5142870000000 1.0
C      1  0.4554580000000  0.4119050000000  0.5161450000000 1.0
C      1  0.4523550000000  0.5909080000000  0.5187870000000 1.0
C      1  0.5297730000000  0.5496310000000  0.5367690000000 1.0
C      1  0.5244440000000  0.4476030000000  0.5355440000000 1.0
C      1  0.5968640000000  0.5303850000000  0.4986390000000 1.0
C      1  0.5981060000000  0.4697840000000  0.5022580000000 1.0
C      1  0.5041460000000  0.4787780000000  0.5497490000000 1.0
C      1  0.5024910000000  0.5234480000000  0.5494210000000 1.0
C      1  0.4688370000000  0.4788830000000  0.4184090000000 1.0
C      1  0.4713120000000  0.5125810000000  0.4218690000000 1.0
C      1  0.5023710000000  0.4434930000000  0.4178560000000 1.0
C      1  0.5012620000000  0.5558740000000  0.4192210000000 1.0
C      1  0.4976580000000  0.5531010000000  0.5480260000000 1.0
C      1  0.4948670000000  0.4499730000000  0.5469450000000 1.0
C      1  0.5387900000000  0.4318060000000  0.5607680000000 1.0
C      1  0.5314610000000  0.5704600000000  0.5604770000000 1.0
C      1  0.5359470000000  0.5661930000000  0.4681990000000 1.0
C      1  0.5382340000000  0.4348160000000  0.4663730000000 1.0
C      1  0.4750560000000  0.5145160000000  0.5618120000000 1.0
C      1  0.4744500000000  0.4839360000000  0.5583330000000 1.0
C      1  0.5828820000000  0.4457210000000  0.4954660000000 1.0
C      1  0.5803640000000  0.5542020000000  0.4932710000000 1.0
C      1  0.3906880000000  0.5151390000000  0.5149000000000 1.0
C      1  0.3904880000000  0.4845310000000  0.5153750000000 1.0
C      1  0.5129370000000  0.4054710000000  0.4761970000000 1.0
C      1  0.5109250000000  0.5955080000000  0.4782680000000 1.0
C      1  0.4873720000000  0.5338250000000  0.4693250000000 1.0
C      1  0.4890420000000  0.4734980000000  0.4699760000000 1.0
C      1  0.5685880000000  0.5109440000000  0.5473520000000 1.0
C      1  0.5678660000000  0.4765810000000  0.5457890000000 1.0
C      1  0.5371260000000  0.4834560000000  0.4634570000000 1.0
C      1  0.5362220000000  0.5126650000000  0.4641890000000 1.0
C      1  0.5768940000000  0.5523450000000  0.4446610000000 1.0
C      1  0.5695290000000  0.4330010000000  0.4348990000000 1.0
C      1  0.5125000000000  0.5451120000000  0.5973090000000 1.0
C      1  0.5151110000000  0.4536950000000  0.5969590000000 1.0
C      1  0.4650550000000  0.4428940000000  0.5216270000000 1.0
C      1  0.4650100000000  0.5607940000000  0.5231960000000 1.0
C      1  0.5051300000000  0.5911410000000  0.5540780000000 1.0
C      1  0.5103840000000  0.4142260000000  0.5521010000000 1.0
C      1  0.5583510000000  0.4481470000000  0.5385410000000 1.0
C      1  0.5613900000000  0.5419440000000  0.5363320000000 1.0
END
