TITL C-2782237-5345-700 2.49468237869514e-09 125000 -112.360075781359 0 0 20 (C2h) n - 1
REM
REM in /home/nfs/bkarasulu/CARBON/AIRSS/Generating-Clusters/REBO/Higher-Symm/SD-CG/HFTN-CG
REM
REM
REM
REM
REM
REM ./C.cell (12c818d87b63d06a65506943cc24bca4)
REM
REM compiler GCC version 9.2.1 20190827 (Red Hat 9.2.1-1)
REM options -cpp -mtune=generic -march=x86-64 -g -O0 -fpre-include=/usr/include/finclude/math-vector-fortran.h
REM seed -1408873216 -462451227 529936423 -1781521940 -1333844888 -1652821261 -1939616786 559560023 153291162 1391897809 -257152216 691927445 -1775251144 610201927 -286647725 1330395089 -759275706 -979107674 1435052863 -1065388747 -2030409970 1660651653 -393245338 1696736049 1208624326 -827217137 114507446 -335966293 1969399839 -1259219181 -477568314 -1587141239 989811225
REM
CELL 1.54180   50.00000   50.00000   50.00000   90.00000   90.00000   90.00000
LATT -1
SFAC C  
C      1  0.5434140000000  0.4468620000000  0.4922970000000 1.0
C      1  0.4565860000000  0.5531380000000  0.5077030000000 1.0
C      1  0.5582530000000  0.4742960000000  0.4842440000000 1.0
C      1  0.4417470000000  0.5257040000000  0.5157560000000 1.0
C      1  0.4714230000000  0.4779650000000  0.5118480000000 1.0
C      1  0.5285770000000  0.5220350000000  0.4881520000000 1.0
C      1  0.5274150000000  0.4748050000000  0.4941420000000 1.0
C      1  0.4725850000000  0.5251950000000  0.5058580000000 1.0
C      1  0.4549710000000  0.6325580000000  0.4987850000000 1.0
C      1  0.5450290000000  0.3674420000000  0.5012150000000 1.0
C      1  0.4865830000000  0.5009410000000  0.5042210000000 1.0
C      1  0.5134170000000  0.4990590000000  0.4957790000000 1.0
C      1  0.5548480000000  0.5222080000000  0.4796490000000 1.0
C      1  0.4451520000000  0.4777920000000  0.5203510000000 1.0
C      1  0.4302530000000  0.5010300000000  0.5224010000000 1.0
C      1  0.5697470000000  0.4989700000000  0.4775990000000 1.0
C      1  0.4555010000000  0.6065190000000  0.5017090000000 1.0
C      1  0.5444990000000  0.3934810000000  0.4982910000000 1.0
C      1  0.4560390000000  0.5800600000000  0.5046800000000 1.0
C      1  0.5439610000000  0.4199400000000  0.4953200000000 1.0
END
