TITL C-2782229-3092-579 -0.000169288742563432 125000 -427.277038594421 0 0 75 (C2) n - 1
REM
REM in /home/nfs/bkarasulu/CARBON/AIRSS/Generating-Clusters/REBO/Higher-Symm/SD-CG/HFTN-CG
REM
REM
REM
REM
REM
REM ./C.cell (12c818d87b63d06a65506943cc24bca4)
REM
REM compiler GCC version 9.2.1 20190827 (Red Hat 9.2.1-1)
REM options -cpp -mtune=generic -march=x86-64 -g -O0 -fpre-include=/usr/include/finclude/math-vector-fortran.h
REM seed 733677051 -1802819273 1801290908 1303911561 -2105823352 -497122902 624597927 -1529129816 739278045 -1716575381 -1520962708 628716718 -2017571468 -1226275463 1869552231 1302868761 2116859230 1267467753 409414465 -1447401520 -1626734015 -818234205 -1677410785 -2094727611 579349578 385178408 -956174826 -1500705029 -250869888 436835969 848376323 1988729445 -1816624101
REM
CELL 1.54180   50.00000   50.00000   50.00000   90.00000   90.00000   90.00000
LATT -1
SFAC C  
C      1  0.5186330000000  0.5405650000000  0.5429680000000 1.0
C      1  0.5186760000000  0.4573270000000  0.4545710000000 1.0
C      1  0.4814230000000  0.4590960000000  0.5429690000000 1.0
C      1  0.4813790000000  0.5423340000000  0.4545710000000 1.0
C      1  0.5089210000000  0.4403240000000  0.5352180000000 1.0
C      1  0.5091050000000  0.5586850000000  0.4658720000000 1.0
C      1  0.4911340000000  0.5593370000000  0.5352180000000 1.0
C      1  0.4909500000000  0.4409760000000  0.4658720000000 1.0
C      1  0.4408220000000  0.4998430000000  0.4451770000000 1.0
C      1  0.4387730000000  0.4987940000000  0.5542460000000 1.0
C      1  0.5592330000000  0.4998180000000  0.4451760000000 1.0
C      1  0.5612830000000  0.5008680000000  0.5542460000000 1.0
C      1  0.4623980000000  0.5644930000000  0.5004740000000 1.0
C      1  0.4622260000000  0.4337450000000  0.4992270000000 1.0
C      1  0.5376580000000  0.4351690000000  0.5004740000000 1.0
C      1  0.5378290000000  0.5659170000000  0.4992260000000 1.0
C      1  0.4822580000000  0.4725090000000  0.4909810000000 1.0
C      1  0.4824550000000  0.5241350000000  0.5086620000000 1.0
C      1  0.5177970000000  0.5271520000000  0.4909810000000 1.0
C      1  0.5176010000000  0.4755270000000  0.5086620000000 1.0
C      1  0.4815940000000  0.4791160000000  0.4596220000000 1.0
C      1  0.4827760000000  0.5208950000000  0.5404230000000 1.0
C      1  0.5184610000000  0.5205450000000  0.4596210000000 1.0
C      1  0.5172790000000  0.4787670000000  0.5404230000000 1.0
C      1  0.5148660000000  0.5508640000000  0.5122660000000 1.0
C      1  0.5157430000000  0.4510710000000  0.4870420000000 1.0
C      1  0.4851890000000  0.4487970000000  0.5122670000000 1.0
C      1  0.4843120000000  0.5485910000000  0.4870420000000 1.0
C      1  0.5206190000000  0.5456110000000  0.4364630000000 1.0
C      1  0.5207590000000  0.4544610000000  0.5640310000000 1.0
C      1  0.4794360000000  0.4540500000000  0.4364630000000 1.0
C      1  0.4792970000000  0.5452010000000  0.5640310000000 1.0
C      1  0.5338530000000  0.4811680000000  0.4356140000000 1.0
C      1  0.5341090000000  0.5181840000000  0.5630760000000 1.0
C      1  0.4662020000000  0.5184920000000  0.4356140000000 1.0
C      1  0.4659460000000  0.4814770000000  0.5630770000000 1.0
C      1  0.4595990000000  0.4957330000000  0.4894210000000 1.0
C      1  0.4522300000000  0.5130280000000  0.5161420000000 1.0
C      1  0.5404570000000  0.5039280000000  0.4894210000000 1.0
C      1  0.5478250000000  0.4866340000000  0.5161420000000 1.0
C      1  0.5087050000000  0.4856840000000  0.4164370000000 1.0
C      1  0.5093270000000  0.5137710000000  0.5832490000000 1.0
C      1  0.4913510000000  0.5139770000000  0.4164370000000 1.0
C      1  0.4907290000000  0.4858910000000  0.5832490000000 1.0
C      1  0.5335060000000  0.5133660000000  0.5291300000000 1.0
C      1  0.5320390000000  0.4842660000000  0.4694790000000 1.0
C      1  0.4665500000000  0.4862960000000  0.5291300000000 1.0
C      1  0.4680170000000  0.5153950000000  0.4694790000000 1.0
C      1  0.4296350000000  0.5219910000000  0.4926600000000 1.0
C      1  0.4353210000000  0.4784920000000  0.5054360000000 1.0
C      1  0.5704200000000  0.4776700000000  0.4926600000000 1.0
C      1  0.5647350000000  0.5211690000000  0.5054350000000 1.0
C      1  0.5735870000000  0.5126600000000  0.5317980000000 1.0
C      1  0.5723190000000  0.4897390000000  0.4673830000000 1.0
C      1  0.4264680000000  0.4870010000000  0.5317990000000 1.0
C      1  0.4277360000000  0.5099220000000  0.4673840000000 1.0
C      1  0.4356760000000  0.5479540000000  0.5059560000000 1.0
C      1  0.4362880000000  0.4520370000000  0.4949450000000 1.0
C      1  0.5643800000000  0.4517070000000  0.5059560000000 1.0
C      1  0.5637670000000  0.5476240000000  0.4949440000000 1.0
C      1  0.5480420000000  0.4723770000000  0.5534880000000 1.0
C      1  0.5487230000000  0.5288560000000  0.4461970000000 1.0
C      1  0.4520140000000  0.5272850000000  0.5534880000000 1.0
C      1  0.4513320000000  0.4708050000000  0.4461970000000 1.0
C      1  0.5426690000000  0.5529240000000  0.4686750000000 1.0
C      1  0.5420840000000  0.4476150000000  0.5313370000000 1.0
C      1  0.4573870000000  0.4467370000000  0.4686750000000 1.0
C      1  0.4579720000000  0.5520470000000  0.5313370000000 1.0
C      1  0.4943340000000  0.5382520000000  0.5872970000000 1.0
C      1  0.4936770000000  0.4612400000000  0.4128390000000 1.0
C      1  0.5057220000000  0.4614100000000  0.5872970000000 1.0
C      1  0.5063780000000  0.5384200000000  0.4128390000000 1.0
C      1  0.5000280000000  0.4998310000000  0.5532820000000 1.0
C      1  0.5000280000000  0.4998300000000  0.4466510000000 1.0
C      1  0.5000280000000  0.4998310000000  0.4983750000000 1.0
END
