TITL C-2782229-3092-1053 0.00460591695043442 125000 -559.368071060768 0 0 105 (C2) n - 1
REM
REM in /home/nfs/bkarasulu/CARBON/AIRSS/Generating-Clusters/REBO/Higher-Symm/SD-CG/HFTN-CG
REM
REM
REM
REM
REM
REM ./C.cell (12c818d87b63d06a65506943cc24bca4)
REM
REM compiler GCC version 9.2.1 20190827 (Red Hat 9.2.1-1)
REM options -cpp -mtune=generic -march=x86-64 -g -O0 -fpre-include=/usr/include/finclude/math-vector-fortran.h
REM seed -531647609 789199996 -1461457083 1313049796 1498698464 1949589058 1541587769 1412311788 1453537818 1298300131 -1358243950 -1615192522 -1272096378 1459266645 -666055371 202951494 1189680792 658469713 1401523234 2080859832 -1293785143 1770463670 2044867793 -1400232007 -131935179 83239203 676622491 -361842906 1458757463 -979224341 333395602 832664022 -432054060
REM
CELL 1.54180   50.00000   50.00000   50.00000   90.00000   90.00000   90.00000
LATT -1
SFAC C  
C      1  0.5296780000000  0.5454320000000  0.4832330000000 1.0
C      1  0.4447530000000  0.5025910000000  0.4831040000000 1.0
C      1  0.5253320000000  0.4495970000000  0.4853980000000 1.0
C      1  0.4703230000000  0.5454320000000  0.5157510000000 1.0
C      1  0.5552470000000  0.5025900000000  0.5158810000000 1.0
C      1  0.4746670000000  0.4495980000000  0.5135880000000 1.0
C      1  0.4514290000000  0.4395220000000  0.4541490000000 1.0
C      1  0.5755530000000  0.4889470000000  0.4570400000000 1.0
C      1  0.4709710000000  0.5726830000000  0.4544350000000 1.0
C      1  0.5485700000000  0.4395220000000  0.5448370000000 1.0
C      1  0.4244470000000  0.4889490000000  0.5419440000000 1.0
C      1  0.5290300000000  0.5726830000000  0.5445490000000 1.0
C      1  0.5510150000000  0.5393340000000  0.4573740000000 1.0
C      1  0.4392110000000  0.5249850000000  0.4578240000000 1.0
C      1  0.5099320000000  0.4337230000000  0.4593480000000 1.0
C      1  0.4489860000000  0.5393360000000  0.5416100000000 1.0
C      1  0.5607900000000  0.5249850000000  0.5411600000000 1.0
C      1  0.4900670000000  0.4337240000000  0.5396380000000 1.0
C      1  0.5262680000000  0.5841110000000  0.5181180000000 1.0
C      1  0.4145780000000  0.4813260000000  0.5163400000000 1.0
C      1  0.5597070000000  0.4350430000000  0.5188480000000 1.0
C      1  0.4737340000000  0.5841110000000  0.4808650000000 1.0
C      1  0.5854210000000  0.4813240000000  0.4826440000000 1.0
C      1  0.4402920000000  0.4350430000000  0.4801380000000 1.0
C      1  0.5081000000000  0.4617210000000  0.4469730000000 1.0
C      1  0.5229980000000  0.5277360000000  0.4480360000000 1.0
C      1  0.4628350000000  0.5065990000000  0.4469470000000 1.0
C      1  0.4918990000000  0.4617220000000  0.5520120000000 1.0
C      1  0.4770030000000  0.5277370000000  0.5509490000000 1.0
C      1  0.5371650000000  0.5065990000000  0.5520370000000 1.0
C      1  0.4753510000000  0.5107220000000  0.5802010000000 1.0
C      1  0.5036370000000  0.4722470000000  0.5818690000000 1.0
C      1  0.5250250000000  0.5170650000000  0.5819210000000 1.0
C      1  0.5246490000000  0.5107200000000  0.4187830000000 1.0
C      1  0.4963620000000  0.4722450000000  0.4171160000000 1.0
C      1  0.4749760000000  0.5170640000000  0.4170630000000 1.0
C      1  0.5107350000000  0.5395990000000  0.4185240000000 1.0
C      1  0.4569330000000  0.4905750000000  0.4173670000000 1.0
C      1  0.5282140000000  0.4693960000000  0.4205830000000 1.0
C      1  0.4892650000000  0.5396000000000  0.5804600000000 1.0
C      1  0.5430670000000  0.4905760000000  0.5816180000000 1.0
C      1  0.4717850000000  0.4693980000000  0.5784020000000 1.0
C      1  0.5223680000000  0.4294770000000  0.5497260000000 1.0
C      1  0.5513280000000  0.5556140000000  0.5477720000000 1.0
C      1  0.4274850000000  0.5161700000000  0.5474150000000 1.0
C      1  0.4776310000000  0.4294770000000  0.4492590000000 1.0
C      1  0.4486730000000  0.5556140000000  0.4512120000000 1.0
C      1  0.5725150000000  0.5161680000000  0.4515700000000 1.0
C      1  0.5353210000000  0.4161980000000  0.4467540000000 1.0
C      1  0.5546520000000  0.5702920000000  0.4452430000000 1.0
C      1  0.4103690000000  0.5133540000000  0.4454800000000 1.0
C      1  0.4646770000000  0.4162000000000  0.5522320000000 1.0
C      1  0.4453490000000  0.5702930000000  0.5537400000000 1.0
C      1  0.5896310000000  0.5133530000000  0.5535040000000 1.0
C      1  0.4753950000000  0.5691960000000  0.5384280000000 1.0
C      1  0.4513330000000  0.4430570000000  0.5369070000000 1.0
C      1  0.5739090000000  0.4872750000000  0.5390510000000 1.0
C      1  0.5246060000000  0.5691950000000  0.4605550000000 1.0
C      1  0.5486660000000  0.4430560000000  0.4620790000000 1.0
C      1  0.4260910000000  0.4872760000000  0.4599340000000 1.0
C      1  0.4991400000000  0.5620460000000  0.5567900000000 1.0
C      1  0.4471190000000  0.4675520000000  0.5549980000000 1.0
C      1  0.5562640000000  0.4701690000000  0.5576940000000 1.0
C      1  0.5008610000000  0.5620450000000  0.4421930000000 1.0
C      1  0.5528800000000  0.4675510000000  0.4439870000000 1.0
C      1  0.4437360000000  0.4701690000000  0.4412910000000 1.0
C      1  0.5178520000000  0.5347080000000  0.5535860000000 1.0
C      1  0.4622270000000  0.4970100000000  0.5518200000000 1.0
C      1  0.5238470000000  0.4691180000000  0.5545430000000 1.0
C      1  0.4821490000000  0.5347070000000  0.4453980000000 1.0
C      1  0.5377730000000  0.4970090000000  0.4471650000000 1.0
C      1  0.4761520000000  0.4691180000000  0.4444420000000 1.0
C      1  0.4973110000000  0.4810230000000  0.4837080000000 1.0
C      1  0.5166470000000  0.5072460000000  0.4886460000000 1.0
C      1  0.4853110000000  0.5111050000000  0.4775320000000 1.0
C      1  0.5026890000000  0.4810230000000  0.5152770000000 1.0
C      1  0.4833530000000  0.5072460000000  0.5103380000000 1.0
C      1  0.5146890000000  0.5111060000000  0.5214520000000 1.0
C      1  0.5670360000000  0.5197540000000  0.4909370000000 1.0
C      1  0.4497520000000  0.5517760000000  0.4909630000000 1.0
C      1  0.4830100000000  0.4310140000000  0.4887600000000 1.0
C      1  0.4329640000000  0.5197550000000  0.5080470000000 1.0
C      1  0.5502490000000  0.5517760000000  0.5080210000000 1.0
C      1  0.5169890000000  0.4310140000000  0.5102250000000 1.0
C      1  0.5733770000000  0.5618250000000  0.5133470000000 1.0
C      1  0.4146980000000  0.5367770000000  0.5144390000000 1.0
C      1  0.5107750000000  0.4067530000000  0.5163400000000 1.0
C      1  0.4266240000000  0.5618260000000  0.4856370000000 1.0
C      1  0.5853030000000  0.5367750000000  0.4845450000000 1.0
C      1  0.4892240000000  0.4067530000000  0.4826460000000 1.0
C      1  0.5863560000000  0.4784620000000  0.5094770000000 1.0
C      1  0.4761310000000  0.5840890000000  0.5079060000000 1.0
C      1  0.4375940000000  0.4364660000000  0.5070250000000 1.0
C      1  0.4136430000000  0.4784640000000  0.4895070000000 1.0
C      1  0.5238700000000  0.5840880000000  0.4910770000000 1.0
C      1  0.5624050000000  0.4364650000000  0.4919610000000 1.0
C      1  0.4752370000000  0.5400990000000  0.4767500000000 1.0
C      1  0.4785800000000  0.4597270000000  0.4752630000000 1.0
C      1  0.5439870000000  0.5020050000000  0.4777160000000 1.0
C      1  0.5247640000000  0.5400990000000  0.5222340000000 1.0
C      1  0.5214200000000  0.4597270000000  0.5237220000000 1.0
C      1  0.4560130000000  0.5020060000000  0.5212680000000 1.0
C      1  0.5394310000000  0.4767670000000  0.5003350000000 1.0
C      1  0.4605680000000  0.4767680000000  0.4986500000000 1.0
C      1  0.5000000000000  0.5418430000000  0.4994920000000 1.0
END
