TITL C-2782232-2968-449 -0.00233470803215374 125000 -564.720742759537 0 0 95 (C1) n - 1
REM
REM in /home/nfs/bkarasulu/CARBON/AIRSS/Generating-Clusters/REBO/Higher-Symm/SD-CG/HFTN-CG
REM
REM
REM
REM
REM
REM ./C.cell (12c818d87b63d06a65506943cc24bca4)
REM
REM compiler GCC version 9.2.1 20190827 (Red Hat 9.2.1-1)
REM options -cpp -mtune=generic -march=x86-64 -g -O0 -fpre-include=/usr/include/finclude/math-vector-fortran.h
REM seed -603473184 1123753685 -970203275 1451568269 388331682 1890448389 -1808919991 -1456524105 494194637 -12200749 -1428044601 -1356471726 -373662793 -675289256 -1581045905 1439397744 1848025698 -1347373113 -1435889559 1385934821 833738761 1238173433 -1570988081 -684066371 -1134048349 -962688977 -1555230282 -1006158979 1390385603 714923264 553449171 1663693472 -2013137390
REM
CELL 1.54180   50.00000   50.00000   50.00000   90.00000   90.00000   90.00000
LATT -1
SFAC C  
C      1  0.4815330000000  0.5113170000000  0.5791880000000 1.0
C      1  0.4824610000000  0.5603650000000  0.4562900000000 1.0
C      1  0.4763840000000  0.4234710000000  0.4652770000000 1.0
C      1  0.4775220000000  0.5193850000000  0.4824230000000 1.0
C      1  0.4939570000000  0.4641130000000  0.4880120000000 1.0
C      1  0.4831060000000  0.4975110000000  0.5298300000000 1.0
C      1  0.5890870000000  0.4703310000000  0.4690180000000 1.0
C      1  0.5903470000000  0.4796850000000  0.5289190000000 1.0
C      1  0.6005720000000  0.5600280000000  0.5056980000000 1.0
C      1  0.5343970000000  0.5262150000000  0.5089930000000 1.0
C      1  0.5337000000000  0.4915840000000  0.4704770000000 1.0
C      1  0.5360060000000  0.4884840000000  0.5218600000000 1.0
C      1  0.5194560000000  0.5340450000000  0.4346220000000 1.0
C      1  0.5130890000000  0.4215860000000  0.5011410000000 1.0
C      1  0.5179560000000  0.5427370000000  0.5639960000000 1.0
C      1  0.5447430000000  0.5401990000000  0.5517330000000 1.0
C      1  0.5463090000000  0.5287900000000  0.4419700000000 1.0
C      1  0.5394890000000  0.4344500000000  0.5038830000000 1.0
C      1  0.4813730000000  0.5296180000000  0.5244960000000 1.0
C      1  0.4677510000000  0.5344450000000  0.4574390000000 1.0
C      1  0.4681140000000  0.4512770000000  0.4972950000000 1.0
C      1  0.5088140000000  0.4898640000000  0.5427420000000 1.0
C      1  0.5018640000000  0.5345890000000  0.5013070000000 1.0
C      1  0.5101640000000  0.4717540000000  0.4599210000000 1.0
C      1  0.5755130000000  0.4500130000000  0.4622330000000 1.0
C      1  0.5725050000000  0.4987890000000  0.5405840000000 1.0
C      1  0.5878330000000  0.5775190000000  0.4886120000000 1.0
C      1  0.5188970000000  0.4816000000000  0.4222820000000 1.0
C      1  0.5190530000000  0.4429680000000  0.5519740000000 1.0
C      1  0.5192070000000  0.5752830000000  0.5209610000000 1.0
C      1  0.5461120000000  0.4523750000000  0.5473240000000 1.0
C      1  0.5472200000000  0.5754550000000  0.5184590000000 1.0
C      1  0.5448250000000  0.4799320000000  0.4341010000000 1.0
C      1  0.5737340000000  0.4980790000000  0.4698920000000 1.0
C      1  0.5752390000000  0.4639650000000  0.5106930000000 1.0
C      1  0.5846610000000  0.5442570000000  0.5229330000000 1.0
C      1  0.5091450000000  0.5571720000000  0.4485850000000 1.0
C      1  0.5039140000000  0.4228390000000  0.4730540000000 1.0
C      1  0.5094730000000  0.5175880000000  0.5770690000000 1.0
C      1  0.5084430000000  0.4669140000000  0.5644690000000 1.0
C      1  0.5089910000000  0.5640690000000  0.4965150000000 1.0
C      1  0.5050310000000  0.4556950000000  0.4316680000000 1.0
C      1  0.4387990000000  0.5112570000000  0.4425880000000 1.0
C      1  0.4359540000000  0.4392170000000  0.5176350000000 1.0
C      1  0.4434290000000  0.5444660000000  0.5389500000000 1.0
C      1  0.4704680000000  0.5158440000000  0.4319760000000 1.0
C      1  0.4683270000000  0.4305730000000  0.5222330000000 1.0
C      1  0.4734440000000  0.5526420000000  0.5433810000000 1.0
C      1  0.5196000000000  0.4340900000000  0.4505160000000 1.0
C      1  0.5244570000000  0.4915740000000  0.5793410000000 1.0
C      1  0.5276270000000  0.5679070000000  0.4712060000000 1.0
C      1  0.4796200000000  0.4850620000000  0.4254210000000 1.0
C      1  0.4795040000000  0.4433330000000  0.5501990000000 1.0
C      1  0.4802130000000  0.5796120000000  0.5264980000000 1.0
C      1  0.4639650000000  0.4650010000000  0.5577640000000 1.0
C      1  0.4631680000000  0.5773660000000  0.5031400000000 1.0
C      1  0.4614810000000  0.4658030000000  0.4351170000000 1.0
C      1  0.4372690000000  0.4776790000000  0.4443150000000 1.0
C      1  0.4407450000000  0.4682040000000  0.5394170000000 1.0
C      1  0.4403940000000  0.5597390000000  0.5085960000000 1.0
C      1  0.5002200000000  0.4258290000000  0.5293850000000 1.0
C      1  0.5030170000000  0.5654530000000  0.5481790000000 1.0
C      1  0.5028120000000  0.5102560000000  0.4248450000000 1.0
C      1  0.4077310000000  0.5063590000000  0.5302950000000 1.0
C      1  0.4100490000000  0.5228470000000  0.4829880000000 1.0
C      1  0.4033840000000  0.4668790000000  0.4847340000000 1.0
C      1  0.5351080000000  0.5111100000000  0.5466710000000 1.0
C      1  0.5531860000000  0.5477450000000  0.4667290000000 1.0
C      1  0.5268100000000  0.4546840000000  0.4836340000000 1.0
C      1  0.5652230000000  0.5204290000000  0.5225450000000 1.0
C      1  0.5503140000000  0.5198570000000  0.4807080000000 1.0
C      1  0.5563250000000  0.4830390000000  0.4949530000000 1.0
C      1  0.4735230000000  0.5785010000000  0.4764370000000 1.0
C      1  0.4667090000000  0.4402870000000  0.4459250000000 1.0
C      1  0.4697210000000  0.4873510000000  0.5735060000000 1.0
C      1  0.5568410000000  0.5742920000000  0.4876740000000 1.0
C      1  0.5458300000000  0.4545370000000  0.4549890000000 1.0
C      1  0.5500590000000  0.4824470000000  0.5586850000000 1.0
C      1  0.4485520000000  0.4750660000000  0.5072510000000 1.0
C      1  0.4552160000000  0.5131490000000  0.5170440000000 1.0
C      1  0.4519300000000  0.4990090000000  0.4890590000000 1.0
C      1  0.5577610000000  0.4446020000000  0.5224140000000 1.0
C      1  0.5607320000000  0.5576440000000  0.5361120000000 1.0
C      1  0.5589400000000  0.5035150000000  0.4422050000000 1.0
C      1  0.4248850000000  0.5491250000000  0.4871390000000 1.0
C      1  0.4232180000000  0.4621470000000  0.4632370000000 1.0
C      1  0.4222550000000  0.4895870000000  0.5502120000000 1.0
C      1  0.4367050000000  0.5409650000000  0.4596250000000 1.0
C      1  0.4380500000000  0.4446430000000  0.4836780000000 1.0
C      1  0.4347870000000  0.5172530000000  0.5576040000000 1.0
C      1  0.4156640000000  0.4653900000000  0.5092430000000 1.0
C      1  0.4251750000000  0.5245310000000  0.5196180000000 1.0
C      1  0.4276050000000  0.5042830000000  0.4723330000000 1.0
C      1  0.5200410000000  0.4994320000000  0.4969300000000 1.0
C      1  0.4905410000000  0.4945640000000  0.4984680000000 1.0
END
