TITL C-2782231-7322-1384 -0.000646104164363274 125000 -1049.53342201992 0 0 179 (C1) n - 1
REM
REM in /home/nfs/bkarasulu/CARBON/AIRSS/Generating-Clusters/REBO/Higher-Symm/SD-CG/HFTN-CG
REM
REM
REM
REM
REM
REM ./C.cell (12c818d87b63d06a65506943cc24bca4)
REM
REM compiler GCC version 9.2.1 20190827 (Red Hat 9.2.1-1)
REM options -cpp -mtune=generic -march=x86-64 -g -O0 -fpre-include=/usr/include/finclude/math-vector-fortran.h
REM seed 1939117963 279980286 1809264697 -80696545 1521595875 481987963 -472782694 1490971783 1230630239 -1135683446 1801371662 -1353914875 1987422935 -1117676801 1063546556 -232483379 1136178624 -1453260464 857395576 864585515 1276493250 1051113402 -1634301514 -1072982585 1849451753 -175999180 -1862211922 -44035837 -1536738963 732842563 623778645 448750894 -1448443053
REM
CELL 1.54180   50.00000   50.00000   50.00000   90.00000   90.00000   90.00000
LATT -1
SFAC C  
C      1  0.5393860000000  0.4058490000000  0.5319600000000 1.0
C      1  0.5023880000000  0.4065050000000  0.4493440000000 1.0
C      1  0.4512480000000  0.4073670000000  0.5228400000000 1.0
C      1  0.5409170000000  0.5953360000000  0.5271190000000 1.0
C      1  0.4996510000000  0.5909260000000  0.4466950000000 1.0
C      1  0.4546020000000  0.5937420000000  0.5212420000000 1.0
C      1  0.4490460000000  0.5178440000000  0.5504050000000 1.0
C      1  0.5738310000000  0.5262910000000  0.5214200000000 1.0
C      1  0.4763060000000  0.5289380000000  0.4224630000000 1.0
C      1  0.4464580000000  0.4695620000000  0.5621620000000 1.0
C      1  0.5662740000000  0.4802250000000  0.5207820000000 1.0
C      1  0.4837510000000  0.4819900000000  0.4270900000000 1.0
C      1  0.5157860000000  0.4823710000000  0.4592010000000 1.0
C      1  0.4567210000000  0.4842160000000  0.5032480000000 1.0
C      1  0.5231000000000  0.4835060000000  0.5391690000000 1.0
C      1  0.5210260000000  0.5157990000000  0.4584780000000 1.0
C      1  0.4502870000000  0.5165400000000  0.5096960000000 1.0
C      1  0.5256950000000  0.5162660000000  0.5297120000000 1.0
C      1  0.5772890000000  0.4878200000000  0.5701030000000 1.0
C      1  0.5242100000000  0.4912580000000  0.3836310000000 1.0
C      1  0.4072130000000  0.4858970000000  0.5296860000000 1.0
C      1  0.5577440000000  0.5122320000000  0.5659090000000 1.0
C      1  0.5281220000000  0.5247690000000  0.3785100000000 1.0
C      1  0.4164510000000  0.5156780000000  0.5273850000000 1.0
C      1  0.4962590000000  0.4298200000000  0.5381510000000 1.0
C      1  0.5301690000000  0.4284350000000  0.4831110000000 1.0
C      1  0.4659490000000  0.4295460000000  0.4807620000000 1.0
C      1  0.4991570000000  0.5691770000000  0.5329680000000 1.0
C      1  0.5325440000000  0.5688080000000  0.4808310000000 1.0
C      1  0.4653650000000  0.5688930000000  0.4794090000000 1.0
C      1  0.4725770000000  0.4727570000000  0.6031960000000 1.0
C      1  0.5980200000000  0.4716080000000  0.4813220000000 1.0
C      1  0.4335610000000  0.4711480000000  0.4245530000000 1.0
C      1  0.4724430000000  0.5301320000000  0.5929340000000 1.0
C      1  0.5998120000000  0.5297810000000  0.4793830000000 1.0
C      1  0.4265120000000  0.5276650000000  0.4235900000000 1.0
C      1  0.5644260000000  0.5328800000000  0.4114150000000 1.0
C      1  0.3930940000000  0.5314480000000  0.4899820000000 1.0
C      1  0.5460430000000  0.5343480000000  0.5996160000000 1.0
C      1  0.5637150000000  0.4699390000000  0.4133530000000 1.0
C      1  0.3881470000000  0.4648590000000  0.4870640000000 1.0
C      1  0.5482350000000  0.4674520000000  0.6071390000000 1.0
C      1  0.4963260000000  0.4644110000000  0.3934660000000 1.0
C      1  0.4035540000000  0.4500300000000  0.5575130000000 1.0
C      1  0.5969700000000  0.4573560000000  0.5544670000000 1.0
C      1  0.4992310000000  0.5485090000000  0.3914180000000 1.0
C      1  0.4094090000000  0.5388580000000  0.5587520000000 1.0
C      1  0.5965790000000  0.5414150000000  0.5505760000000 1.0
C      1  0.5938050000000  0.5164640000000  0.5034620000000 1.0
C      1  0.4516170000000  0.5161780000000  0.4171940000000 1.0
C      1  0.4550160000000  0.5134770000000  0.5787520000000 1.0
C      1  0.5949820000000  0.4869270000000  0.5048510000000 1.0
C      1  0.4559780000000  0.4871640000000  0.4190400000000 1.0
C      1  0.4541960000000  0.4846510000000  0.5854250000000 1.0
C      1  0.4193510000000  0.4641640000000  0.4461240000000 1.0
C      1  0.4982710000000  0.4649460000000  0.6026160000000 1.0
C      1  0.5820380000000  0.4655780000000  0.4605890000000 1.0
C      1  0.4136020000000  0.5344550000000  0.4464270000000 1.0
C      1  0.4986190000000  0.5349360000000  0.5904330000000 1.0
C      1  0.5870930000000  0.5370860000000  0.4568240000000 1.0
C      1  0.4734430000000  0.5802150000000  0.5461530000000 1.0
C      1  0.5555970000000  0.5841030000000  0.4988730000000 1.0
C      1  0.4711640000000  0.5824750000000  0.4517270000000 1.0
C      1  0.4692050000000  0.4188140000000  0.5471820000000 1.0
C      1  0.5526240000000  0.4172770000000  0.5027550000000 1.0
C      1  0.4708710000000  0.4191620000000  0.4516240000000 1.0
C      1  0.5736730000000  0.5170830000000  0.5967290000000 1.0
C      1  0.5549080000000  0.5157110000000  0.3912200000000 1.0
C      1  0.3834050000000  0.5143400000000  0.5154080000000 1.0
C      1  0.5757390000000  0.4836070000000  0.6027260000000 1.0
C      1  0.5563200000000  0.4859700000000  0.3917350000000 1.0
C      1  0.3793270000000  0.4808290000000  0.5130480000000 1.0
C      1  0.4910020000000  0.4547890000000  0.4423230000000 1.0
C      1  0.4410520000000  0.4592630000000  0.5299900000000 1.0
C      1  0.5464610000000  0.4549440000000  0.5235410000000 1.0
C      1  0.5072490000000  0.5394650000000  0.4295140000000 1.0
C      1  0.4540670000000  0.5473980000000  0.5341610000000 1.0
C      1  0.5551700000000  0.5516020000000  0.5215210000000 1.0
C      1  0.5160430000000  0.5419010000000  0.4925330000000 1.0
C      1  0.4833810000000  0.5430240000000  0.4838620000000 1.0
C      1  0.4927760000000  0.5427820000000  0.5155040000000 1.0
C      1  0.5171620000000  0.4547690000000  0.4963540000000 1.0
C      1  0.4855410000000  0.4534720000000  0.4870470000000 1.0
C      1  0.4929270000000  0.4546830000000  0.5187170000000 1.0
C      1  0.5794560000000  0.4335150000000  0.5054540000000 1.0
C      1  0.4595380000000  0.4359840000000  0.4268310000000 1.0
C      1  0.4557710000000  0.4315270000000  0.5702180000000 1.0
C      1  0.5850010000000  0.5691920000000  0.5018560000000 1.0
C      1  0.4610160000000  0.5675310000000  0.4280410000000 1.0
C      1  0.4590830000000  0.5641270000000  0.5698400000000 1.0
C      1  0.5130640000000  0.4456690000000  0.5788010000000 1.0
C      1  0.5547640000000  0.4473170000000  0.4581190000000 1.0
C      1  0.4309320000000  0.4451220000000  0.4699310000000 1.0
C      1  0.5107170000000  0.5537260000000  0.5675290000000 1.0
C      1  0.5606180000000  0.5558000000000  0.4558300000000 1.0
C      1  0.4273220000000  0.5519360000000  0.4725980000000 1.0
C      1  0.3979140000000  0.4536380000000  0.5238840000000 1.0
C      1  0.5758240000000  0.4564100000000  0.5812940000000 1.0
C      1  0.5255980000000  0.4636350000000  0.4037690000000 1.0
C      1  0.3978740000000  0.5433250000000  0.5270750000000 1.0
C      1  0.5727010000000  0.5408780000000  0.5717160000000 1.0
C      1  0.5311940000000  0.5530080000000  0.3960950000000 1.0
C      1  0.5818860000000  0.5175060000000  0.4324180000000 1.0
C      1  0.4089690000000  0.5147690000000  0.4707280000000 1.0
C      1  0.5223210000000  0.5152940000000  0.5967940000000 1.0
C      1  0.5744960000000  0.4855210000000  0.4369580000000 1.0
C      1  0.4028680000000  0.4822940000000  0.4671940000000 1.0
C      1  0.5235060000000  0.4840140000000  0.6037030000000 1.0
C      1  0.4083520000000  0.5603830000000  0.4995510000000 1.0
C      1  0.5435620000000  0.5584820000000  0.5757090000000 1.0
C      1  0.5490670000000  0.5605720000000  0.4239610000000 1.0
C      1  0.4083820000000  0.4391980000000  0.4947500000000 1.0
C      1  0.5459880000000  0.4408000000000  0.5861230000000 1.0
C      1  0.5449070000000  0.4458190000000  0.4254020000000 1.0
C      1  0.4333660000000  0.4839530000000  0.4778240000000 1.0
C      1  0.5143460000000  0.4850170000000  0.5720690000000 1.0
C      1  0.5481470000000  0.4866620000000  0.4587570000000 1.0
C      1  0.4397160000000  0.5149460000000  0.4806450000000 1.0
C      1  0.5197900000000  0.5154840000000  0.5626630000000 1.0
C      1  0.5534900000000  0.5173040000000  0.4482960000000 1.0
C      1  0.5467120000000  0.5849830000000  0.5592720000000 1.0
C      1  0.5332190000000  0.5845370000000  0.4425120000000 1.0
C      1  0.4229180000000  0.5845610000000  0.5120740000000 1.0
C      1  0.5441510000000  0.4171810000000  0.5639930000000 1.0
C      1  0.5282810000000  0.4189900000000  0.4305740000000 1.0
C      1  0.4198950000000  0.4156280000000  0.5122690000000 1.0
C      1  0.4472240000000  0.5488360000000  0.5004500000000 1.0
C      1  0.5256990000000  0.5479490000000  0.5374300000000 1.0
C      1  0.5280860000000  0.5471510000000  0.4549540000000 1.0
C      1  0.4472900000000  0.4526190000000  0.4980100000000 1.0
C      1  0.5213060000000  0.4513840000000  0.5465050000000 1.0
C      1  0.5212480000000  0.4495720000000  0.4572640000000 1.0
C      1  0.4873120000000  0.4801560000000  0.4728940000000 1.0
C      1  0.4813620000000  0.4824740000000  0.5268320000000 1.0
C      1  0.5238690000000  0.4835870000000  0.5071890000000 1.0
C      1  0.4906930000000  0.5136120000000  0.4682920000000 1.0
C      1  0.4793250000000  0.5165340000000  0.5244390000000 1.0
C      1  0.5300220000000  0.5140150000000  0.4973650000000 1.0
C      1  0.4982780000000  0.4275430000000  0.4243610000000 1.0
C      1  0.4324220000000  0.4308310000000  0.5377980000000 1.0
C      1  0.5590370000000  0.4311730000000  0.5394410000000 1.0
C      1  0.5102940000000  0.5712680000000  0.4223400000000 1.0
C      1  0.4349110000000  0.5747130000000  0.5400700000000 1.0
C      1  0.5680980000000  0.5789580000000  0.5362700000000 1.0
C      1  0.4118510000000  0.5088780000000  0.5619190000000 1.0
C      1  0.6093100000000  0.5160390000000  0.5460750000000 1.0
C      1  0.4951200000000  0.5187040000000  0.3842200000000 1.0
C      1  0.4077440000000  0.4790830000000  0.5605520000000 1.0
C      1  0.6029090000000  0.4890740000000  0.5516650000000 1.0
C      1  0.4904660000000  0.4899220000000  0.3784670000000 1.0
C      1  0.4879310000000  0.5097820000000  0.5551520000000 1.0
C      1  0.5563090000000  0.5187120000000  0.4810050000000 1.0
C      1  0.4604050000000  0.5224230000000  0.4584960000000 1.0
C      1  0.4855600000000  0.4768070000000  0.5596360000000 1.0
C      1  0.5587800000000  0.4867750000000  0.4884770000000 1.0
C      1  0.4603600000000  0.4889920000000  0.4587260000000 1.0
C      1  0.4580700000000  0.4567950000000  0.4526760000000 1.0
C      1  0.4797810000000  0.4486440000000  0.5715880000000 1.0
C      1  0.5587080000000  0.4548330000000  0.4911440000000 1.0
C      1  0.4503350000000  0.5487960000000  0.4477500000000 1.0
C      1  0.4804600000000  0.5421890000000  0.5556560000000 1.0
C      1  0.5649790000000  0.5470860000000  0.4885800000000 1.0
C      1  0.5888760000000  0.4397010000000  0.5341790000000 1.0
C      1  0.4797050000000  0.4446720000000  0.4053160000000 1.0
C      1  0.4251040000000  0.4317290000000  0.5686440000000 1.0
C      1  0.5938050000000  0.5613000000000  0.5307410000000 1.0
C      1  0.4811540000000  0.5657110000000  0.4080330000000 1.0
C      1  0.4293160000000  0.5574390000000  0.5657850000000 1.0
C      1  0.5156630000000  0.5938850000000  0.4733980000000 1.0
C      1  0.4721300000000  0.5938860000000  0.4966900000000 1.0
C      1  0.5119530000000  0.5941150000000  0.5209630000000 1.0
C      1  0.5118600000000  0.4045580000000  0.4778010000000 1.0
C      1  0.4697360000000  0.4056530000000  0.4994190000000 1.0
C      1  0.5098400000000  0.4054490000000  0.5254220000000 1.0
C      1  0.5631900000000  0.5049830000000  0.5369080000000 1.0
C      1  0.4977170000000  0.5066610000000  0.4281670000000 1.0
C      1  0.4451200000000  0.4915220000000  0.5402980000000 1.0
C      1  0.4994700000000  0.6010670000000  0.4969480000000 1.0
C      1  0.4970600000000  0.3980840000000  0.5010570000000 1.0
END
