TITL C-2782229-3092-1295 -0.000396093049758126 125000 -1030.81237716254 0 0 176 (C1) n - 1
REM
REM in /home/nfs/bkarasulu/CARBON/AIRSS/Generating-Clusters/REBO/Higher-Symm/SD-CG/HFTN-CG
REM
REM
REM
REM
REM
REM ./C.cell (12c818d87b63d06a65506943cc24bca4)
REM
REM compiler GCC version 9.2.1 20190827 (Red Hat 9.2.1-1)
REM options -cpp -mtune=generic -march=x86-64 -g -O0 -fpre-include=/usr/include/finclude/math-vector-fortran.h
REM seed -399565867 1634006808 -2037374391 1217747500 1756170846 -278955676 342789438 208138773 -1379892223 347093300 -1270300649 -248898743 469203399 872517977 -1943818980 -1618240470 -683308669 1954513040 1597815060 1305161314 -2059023791 253493096 -1926711529 -2052802324 -1968574373 -1173638459 -1289637241 -646511889 -597581645 -1065670545 2033277084 -2147344990 1811977910
REM
CELL 1.54180   50.00000   50.00000   50.00000   90.00000   90.00000   90.00000
LATT -1
SFAC C  
C      1  0.5173270000000  0.4439740000000  0.4572300000000 1.0
C      1  0.4851460000000  0.4470230000000  0.4617050000000 1.0
C      1  0.4594560000000  0.4637630000000  0.4724330000000 1.0
C      1  0.4463920000000  0.4855070000000  0.4547050000000 1.0
C      1  0.4505380000000  0.5164060000000  0.4551730000000 1.0
C      1  0.4696070000000  0.5376780000000  0.4665810000000 1.0
C      1  0.4939010000000  0.5531680000000  0.4560930000000 1.0
C      1  0.5220110000000  0.5481260000000  0.4707970000000 1.0
C      1  0.5411320000000  0.5281070000000  0.4551760000000 1.0
C      1  0.5491530000000  0.4986780000000  0.4624220000000 1.0
C      1  0.5393810000000  0.4678960000000  0.4623440000000 1.0
C      1  0.4197800000000  0.5848170000000  0.4731120000000 1.0
C      1  0.4773960000000  0.6165000000000  0.4755780000000 1.0
C      1  0.5442860000000  0.6139750000000  0.4757040000000 1.0
C      1  0.5961700000000  0.5690220000000  0.4697300000000 1.0
C      1  0.6155320000000  0.5152150000000  0.4780050000000 1.0
C      1  0.5863370000000  0.4510790000000  0.4610670000000 1.0
C      1  0.5809100000000  0.4110820000000  0.4767540000000 1.0
C      1  0.4833840000000  0.3929360000000  0.4665880000000 1.0
C      1  0.4224740000000  0.4069730000000  0.4693300000000 1.0
C      1  0.3828330000000  0.4691660000000  0.4687720000000 1.0
C      1  0.3874710000000  0.5301980000000  0.4683930000000 1.0
C      1  0.4550600000000  0.5009740000000  0.6025610000000 1.0
C      1  0.4667280000000  0.5245690000000  0.6022550000000 1.0
C      1  0.4888300000000  0.5469390000000  0.6015280000000 1.0
C      1  0.5149130000000  0.5527550000000  0.5943050000000 1.0
C      1  0.5398670000000  0.5377360000000  0.5931930000000 1.0
C      1  0.5443630000000  0.5103340000000  0.5911120000000 1.0
C      1  0.5490770000000  0.4796400000000  0.5878570000000 1.0
C      1  0.5339500000000  0.4576710000000  0.5890630000000 1.0
C      1  0.5037810000000  0.4467740000000  0.5915840000000 1.0
C      1  0.4769420000000  0.4458330000000  0.5929150000000 1.0
C      1  0.4529890000000  0.4672770000000  0.5985620000000 1.0
C      1  0.5159160000000  0.5679130000000  0.5696390000000 1.0
C      1  0.5610530000000  0.5510260000000  0.5783340000000 1.0
C      1  0.5826520000000  0.5327020000000  0.5739040000000 1.0
C      1  0.5745460000000  0.5005240000000  0.5779100000000 1.0
C      1  0.5571340000000  0.4246880000000  0.5885880000000 1.0
C      1  0.5260250000000  0.4244990000000  0.5829400000000 1.0
C      1  0.4620440000000  0.4228430000000  0.5781260000000 1.0
C      1  0.4394830000000  0.4432810000000  0.5800640000000 1.0
C      1  0.4265040000000  0.4871000000000  0.6007130000000 1.0
C      1  0.4265210000000  0.5525200000000  0.5864070000000 1.0
C      1  0.4580040000000  0.5554640000000  0.5907890000000 1.0
C      1  0.4198840000000  0.5541210000000  0.4885260000000 1.0
C      1  0.4633330000000  0.5897900000000  0.4917480000000 1.0
C      1  0.5175230000000  0.5990810000000  0.4909600000000 1.0
C      1  0.5670240000000  0.5751540000000  0.4865300000000 1.0
C      1  0.5861090000000  0.5308170000000  0.4854780000000 1.0
C      1  0.5843110000000  0.4732840000000  0.4841730000000 1.0
C      1  0.5573590000000  0.4258750000000  0.4899680000000 1.0
C      1  0.5044610000000  0.4041080000000  0.4885080000000 1.0
C      1  0.4484410000000  0.4130860000000  0.4905620000000 1.0
C      1  0.4054830000000  0.4529310000000  0.4887270000000 1.0
C      1  0.4010720000000  0.5034330000000  0.4850620000000 1.0
C      1  0.3898350000000  0.5239200000000  0.5265170000000 1.0
C      1  0.4138880000000  0.5805230000000  0.5295770000000 1.0
C      1  0.4733810000000  0.6170550000000  0.5316490000000 1.0
C      1  0.5434330000000  0.6114230000000  0.5315830000000 1.0
C      1  0.6020680000000  0.5774660000000  0.5222010000000 1.0
C      1  0.6176790000000  0.5084480000000  0.5187020000000 1.0
C      1  0.5904060000000  0.4433910000000  0.5225000000000 1.0
C      1  0.5503170000000  0.3954560000000  0.5283010000000 1.0
C      1  0.4812090000000  0.3767070000000  0.5231270000000 1.0
C      1  0.4157240000000  0.4082660000000  0.5271640000000 1.0
C      1  0.3991960000000  0.4788440000000  0.5294600000000 1.0
C      1  0.5935860000000  0.4873650000000  0.5558660000000 1.0
C      1  0.5730800000000  0.4307980000000  0.5703340000000 1.0
C      1  0.5175800000000  0.4038000000000  0.5618940000000 1.0
C      1  0.4618790000000  0.4011790000000  0.5608500000000 1.0
C      1  0.4179070000000  0.4409160000000  0.5625420000000 1.0
C      1  0.4069530000000  0.4852520000000  0.5808030000000 1.0
C      1  0.4144030000000  0.5438910000000  0.5668300000000 1.0
C      1  0.4506510000000  0.5750880000000  0.5640030000000 1.0
C      1  0.5043760000000  0.5926730000000  0.5624460000000 1.0
C      1  0.5594340000000  0.5735820000000  0.5608570000000 1.0
C      1  0.6038780000000  0.5425150000000  0.5582240000000 1.0
C      1  0.4650450000000  0.4743210000000  0.5469060000000 1.0
C      1  0.4426280000000  0.4925290000000  0.5490190000000 1.0
C      1  0.4428330000000  0.5192770000000  0.5326950000000 1.0
C      1  0.4683910000000  0.5388890000000  0.5292770000000 1.0
C      1  0.5005780000000  0.5501460000000  0.5284230000000 1.0
C      1  0.5214390000000  0.5495990000000  0.5487080000000 1.0
C      1  0.5367830000000  0.5260720000000  0.5422360000000 1.0
C      1  0.5494510000000  0.4966460000000  0.5492020000000 1.0
C      1  0.5445360000000  0.4639880000000  0.5436930000000 1.0
C      1  0.5128130000000  0.4589670000000  0.5524560000000 1.0
C      1  0.4885620000000  0.4694650000000  0.5624100000000 1.0
C      1  0.5211910000000  0.4349760000000  0.4258740000000 1.0
C      1  0.4892130000000  0.4439520000000  0.4275710000000 1.0
C      1  0.4581600000000  0.4482500000000  0.4323830000000 1.0
C      1  0.4479840000000  0.4760760000000  0.4248190000000 1.0
C      1  0.4551770000000  0.5094820000000  0.4242270000000 1.0
C      1  0.4763760000000  0.5301130000000  0.4139010000000 1.0
C      1  0.4953440000000  0.5540590000000  0.4261460000000 1.0
C      1  0.5236560000000  0.5549150000000  0.4164690000000 1.0
C      1  0.5382930000000  0.5299340000000  0.4231750000000 1.0
C      1  0.5423630000000  0.4966470000000  0.4306300000000 1.0
C      1  0.5399740000000  0.4625950000000  0.4300450000000 1.0
C      1  0.5342090000000  0.5753210000000  0.4036120000000 1.0
C      1  0.5474880000000  0.5147680000000  0.3956390000000 1.0
C      1  0.5444950000000  0.4858900000000  0.3981360000000 1.0
C      1  0.5351400000000  0.4580330000000  0.3965700000000 1.0
C      1  0.5117730000000  0.4393260000000  0.3944320000000 1.0
C      1  0.4833600000000  0.4472420000000  0.3939880000000 1.0
C      1  0.4651560000000  0.4637230000000  0.3809220000000 1.0
C      1  0.4502880000000  0.4835930000000  0.3943130000000 1.0
C      1  0.4488270000000  0.5134190000000  0.3908890000000 1.0
C      1  0.4584080000000  0.5398370000000  0.3826310000000 1.0
C      1  0.4739830000000  0.5604330000000  0.4003290000000 1.0
C      1  0.5388820000000  0.4650100000000  0.5098510000000 1.0
C      1  0.5128520000000  0.4510300000000  0.5231840000000 1.0
C      1  0.4873750000000  0.4444930000000  0.5128230000000 1.0
C      1  0.4666600000000  0.4619100000000  0.5212610000000 1.0
C      1  0.4536470000000  0.4750590000000  0.5006310000000 1.0
C      1  0.4446470000000  0.5011940000000  0.5044150000000 1.0
C      1  0.4605250000000  0.5273200000000  0.4978250000000 1.0
C      1  0.4826520000000  0.5519980000000  0.5013120000000 1.0
C      1  0.5134160000000  0.5401990000000  0.4981660000000 1.0
C      1  0.5316590000000  0.5205680000000  0.5116440000000 1.0
C      1  0.5424770000000  0.4946540000000  0.5184370000000 1.0
C      1  0.4317150000000  0.5543540000000  0.4505960000000 1.0
C      1  0.4690090000000  0.5850620000000  0.4526660000000 1.0
C      1  0.5189910000000  0.5952670000000  0.4513850000000 1.0
C      1  0.5641930000000  0.5752200000000  0.4468390000000 1.0
C      1  0.5915750000000  0.5218660000000  0.4470860000000 1.0
C      1  0.6609510000000  0.4911400000000  0.4668310000000 1.0
C      1  0.5481070000000  0.4203000000000  0.4486350000000 1.0
C      1  0.6211430000000  0.3858030000000  0.4541970000000 1.0
C      1  0.4499440000000  0.4304800000000  0.4525720000000 1.0
C      1  0.4144290000000  0.4541930000000  0.4498720000000 1.0
C      1  0.4123750000000  0.5075770000000  0.4471990000000 1.0
C      1  0.5594920000000  0.5893550000000  0.5370590000000 1.0
C      1  0.6074060000000  0.5517880000000  0.5316950000000 1.0
C      1  0.6050280000000  0.4863700000000  0.5298060000000 1.0
C      1  0.5656880000000  0.4410800000000  0.5425890000000 1.0
C      1  0.5235970000000  0.3930720000000  0.5362820000000 1.0
C      1  0.4596740000000  0.3901540000000  0.5349460000000 1.0
C      1  0.4079830000000  0.4333300000000  0.5370270000000 1.0
C      1  0.4149460000000  0.4841540000000  0.5536190000000 1.0
C      1  0.4169720000000  0.5343900000000  0.5380800000000 1.0
C      1  0.4396590000000  0.5859360000000  0.5397370000000 1.0
C      1  0.4985050000000  0.6086330000000  0.5397750000000 1.0
C      1  0.5754990000000  0.5825560000000  0.5148380000000 1.0
C      1  0.6046600000000  0.5321720000000  0.5121950000000 1.0
C      1  0.5971330000000  0.4669590000000  0.5112640000000 1.0
C      1  0.5590940000000  0.4194640000000  0.5198400000000 1.0
C      1  0.5051350000000  0.3888240000000  0.5152110000000 1.0
C      1  0.4408450000000  0.4011240000000  0.5172660000000 1.0
C      1  0.4009890000000  0.4532730000000  0.5185350000000 1.0
C      1  0.3917820000000  0.5005100000000  0.5131440000000 1.0
C      1  0.4110560000000  0.5563950000000  0.5171820000000 1.0
C      1  0.4565370000000  0.5978910000000  0.5204170000000 1.0
C      1  0.5182310000000  0.6088220000000  0.5199410000000 1.0
C      1  0.6383240000000  0.5031340000000  0.4723980000000 1.0
C      1  0.5709120000000  0.4348640000000  0.4462330000000 1.0
C      1  0.6010970000000  0.3983980000000  0.4654360000000 1.0
C      1  0.4630630000000  0.4056140000000  0.4541450000000 1.0
C      1  0.4102470000000  0.4272360000000  0.4547560000000 1.0
C      1  0.3907490000000  0.4888000000000  0.4494020000000 1.0
C      1  0.4038340000000  0.5476350000000  0.4524830000000 1.0
C      1  0.4417940000000  0.5926460000000  0.4565200000000 1.0
C      1  0.4990700000000  0.6141010000000  0.4577520000000 1.0
C      1  0.5595390000000  0.6011880000000  0.4560680000000 1.0
C      1  0.6000840000000  0.5478500000000  0.4521590000000 1.0
C      1  0.5789360000000  0.5008810000000  0.4708960000000 1.0
C      1  0.5555990000000  0.4569840000000  0.4863060000000 1.0
C      1  0.5282020000000  0.4183350000000  0.4759900000000 1.0
C      1  0.4797210000000  0.4263520000000  0.4881690000000 1.0
C      1  0.4360390000000  0.4424910000000  0.4812150000000 1.0
C      1  0.4211500000000  0.4785810000000  0.4730470000000 1.0
C      1  0.4259830000000  0.5233650000000  0.4749400000000 1.0
C      1  0.4509450000000  0.5608740000000  0.4786730000000 1.0
C      1  0.4927530000000  0.5798900000000  0.4771960000000 1.0
C      1  0.5351380000000  0.5752880000000  0.4741020000000 1.0
C      1  0.5629080000000  0.5474760000000  0.4668020000000 1.0
END
