TITL C-2782237-5345-337 0.00218158141506282 125000 -491.696677207348 0 0 86 (C1) n - 1
REM
REM in /home/nfs/bkarasulu/CARBON/AIRSS/Generating-Clusters/REBO/Higher-Symm/SD-CG/HFTN-CG
REM
REM
REM
REM
REM
REM ./C.cell (12c818d87b63d06a65506943cc24bca4)
REM
REM compiler GCC version 9.2.1 20190827 (Red Hat 9.2.1-1)
REM options -cpp -mtune=generic -march=x86-64 -g -O0 -fpre-include=/usr/include/finclude/math-vector-fortran.h
REM seed 1805086576 712833276 -721576263 -1959788095 1573712843 656510238 -530289921 -125226292 245125758 -1031971647 106814416 -692753733 -1992064716 -1241534960 -1032292244 -1636352906 518662329 1488717160 -406464691 -622488475 -2015648169 1551110688 -1896737965 678765025 1351301700 -1778385554 -740024624 842195487 1447652230 1384106864 -1386616414 -933186531 1682034283
REM
CELL 1.54180   50.00000   50.00000   50.00000   90.00000   90.00000   90.00000
LATT -1
SFAC C  
C      1  0.4858660000000  0.4613310000000  0.5489980000000 1.0
C      1  0.4805920000000  0.5187580000000  0.4208610000000 1.0
C      1  0.4341510000000  0.4954910000000  0.4769560000000 1.0
C      1  0.5365340000000  0.5140710000000  0.5201450000000 1.0
C      1  0.5682480000000  0.4398030000000  0.5204400000000 1.0
C      1  0.4327080000000  0.5309380000000  0.4954300000000 1.0
C      1  0.5033410000000  0.4337560000000  0.5486080000000 1.0
C      1  0.5560750000000  0.4922440000000  0.5060680000000 1.0
C      1  0.5369450000000  0.5205690000000  0.4353190000000 1.0
C      1  0.5287350000000  0.4428060000000  0.4561850000000 1.0
C      1  0.5091230000000  0.5032700000000  0.5255450000000 1.0
C      1  0.5056960000000  0.5756130000000  0.5099140000000 1.0
C      1  0.4917220000000  0.5684210000000  0.5367650000000 1.0
C      1  0.4661800000000  0.4997680000000  0.4845040000000 1.0
C      1  0.5367370000000  0.5379690000000  0.4983840000000 1.0
C      1  0.5023230000000  0.4293080000000  0.4534620000000 1.0
C      1  0.4762230000000  0.5203770000000  0.5163910000000 1.0
C      1  0.5450040000000  0.5076930000000  0.5713080000000 1.0
C      1  0.5066900000000  0.5773960000000  0.4421490000000 1.0
C      1  0.4962440000000  0.5013580000000  0.5784930000000 1.0
C      1  0.5194670000000  0.4437030000000  0.5035270000000 1.0
C      1  0.4858650000000  0.4178860000000  0.4747050000000 1.0
C      1  0.4856010000000  0.4453450000000  0.4361030000000 1.0
C      1  0.5496470000000  0.4915720000000  0.4483600000000 1.0
C      1  0.4788740000000  0.5310220000000  0.4873270000000 1.0
C      1  0.5156880000000  0.5171070000000  0.4806960000000 1.0
C      1  0.4572600000000  0.4570850000000  0.5324160000000 1.0
C      1  0.5632060000000  0.5346810000000  0.4810970000000 1.0
C      1  0.4975180000000  0.4563760000000  0.4127570000000 1.0
C      1  0.4486090000000  0.5182350000000  0.5739590000000 1.0
C      1  0.5165550000000  0.4758390000000  0.4200030000000 1.0
C      1  0.5706890000000  0.5183630000000  0.5696110000000 1.0
C      1  0.4532860000000  0.4813640000000  0.4448960000000 1.0
C      1  0.4839940000000  0.4700110000000  0.5835490000000 1.0
C      1  0.5396980000000  0.4410240000000  0.4827130000000 1.0
C      1  0.4466980000000  0.5468180000000  0.5210180000000 1.0
C      1  0.5442560000000  0.5423700000000  0.5372040000000 1.0
C      1  0.4527780000000  0.4689190000000  0.5790200000000 1.0
C      1  0.5718890000000  0.5396620000000  0.5516950000000 1.0
C      1  0.4938700000000  0.5917690000000  0.4616630000000 1.0
C      1  0.4989960000000  0.4892770000000  0.5521750000000 1.0
C      1  0.4934510000000  0.5080000000000  0.4565920000000 1.0
C      1  0.5061860000000  0.4749060000000  0.5064800000000 1.0
C      1  0.4427760000000  0.4927590000000  0.5667470000000 1.0
C      1  0.4307130000000  0.4446060000000  0.4692070000000 1.0
C      1  0.5031420000000  0.5455660000000  0.4704420000000 1.0
C      1  0.4453850000000  0.5133570000000  0.5210830000000 1.0
C      1  0.4314110000000  0.4489920000000  0.4996950000000 1.0
C      1  0.4700670000000  0.5380020000000  0.5650750000000 1.0
C      1  0.4608050000000  0.5112660000000  0.4465790000000 1.0
C      1  0.5247510000000  0.5502390000000  0.4453420000000 1.0
C      1  0.5667460000000  0.4469500000000  0.4923300000000 1.0
C      1  0.5052790000000  0.4256040000000  0.5208250000000 1.0
C      1  0.5364950000000  0.4742160000000  0.5229930000000 1.0
C      1  0.4387840000000  0.4780880000000  0.5039460000000 1.0
C      1  0.4557760000000  0.4265920000000  0.4788710000000 1.0
C      1  0.5221130000000  0.5701420000000  0.4798700000000 1.0
C      1  0.4827640000000  0.4160340000000  0.5059240000000 1.0
C      1  0.5454960000000  0.5052590000000  0.4776640000000 1.0
C      1  0.5020450000000  0.4415320000000  0.5789340000000 1.0
C      1  0.4929160000000  0.4803050000000  0.4754710000000 1.0
C      1  0.4654960000000  0.5571130000000  0.5386740000000 1.0
C      1  0.4752070000000  0.4658970000000  0.4525370000000 1.0
C      1  0.4724450000000  0.4778400000000  0.5097300000000 1.0
C      1  0.4452770000000  0.4468270000000  0.5625750000000 1.0
C      1  0.5502250000000  0.5662530000000  0.4603650000000 1.0
C      1  0.4916710000000  0.5271430000000  0.5421890000000 1.0
C      1  0.5539180000000  0.5775140000000  0.4910780000000 1.0
C      1  0.5782740000000  0.4882470000000  0.4624780000000 1.0
C      1  0.4542250000000  0.4294930000000  0.5131770000000 1.0
C      1  0.4401080000000  0.4874430000000  0.5366820000000 1.0
C      1  0.4375890000000  0.5256710000000  0.4629280000000 1.0
C      1  0.5102650000000  0.5051140000000  0.4271090000000 1.0
C      1  0.5227410000000  0.5253680000000  0.5559460000000 1.0
C      1  0.5349620000000  0.4664800000000  0.4399890000000 1.0
C      1  0.5624890000000  0.5378470000000  0.4474660000000 1.0
C      1  0.5490280000000  0.4532260000000  0.5356270000000 1.0
C      1  0.5849600000000  0.5170250000000  0.4622700000000 1.0
C      1  0.4438010000000  0.5566210000000  0.4670350000000 1.0
C      1  0.4664050000000  0.5594830000000  0.4821910000000 1.0
C      1  0.5005480000000  0.5348730000000  0.5799860000000 1.0
C      1  0.5364070000000  0.5654300000000  0.5164960000000 1.0
C      1  0.5062940000000  0.5615670000000  0.5595300000000 1.0
C      1  0.4282900000000  0.4704730000000  0.4561960000000 1.0
C      1  0.5744900000000  0.4746700000000  0.4872900000000 1.0
C      1  0.4842040000000  0.5805990000000  0.4859700000000 1.0
END
