TITL C-2782235-7892-3 -0.00221672044462342 125000 -924.606167492367 0 0 157 (C1) n - 1
REM
REM in /home/nfs/bkarasulu/CARBON/AIRSS/Generating-Clusters/REBO/Higher-Symm/SD-CG/HFTN-CG
REM
REM
REM
REM
REM
REM ./C.cell (12c818d87b63d06a65506943cc24bca4)
REM
REM compiler GCC version 9.2.1 20190827 (Red Hat 9.2.1-1)
REM options -cpp -mtune=generic -march=x86-64 -g -O0 -fpre-include=/usr/include/finclude/math-vector-fortran.h
REM seed -717482585 2011562533 -739129943 -1944401476 -459834847 -844068195 1803530607 -1448098779 1048628308 -136988602 -2016900407 -1327906228 301274392 731335112 -1097497365 1600670218 -1158785020 1589223989 1466171545 -1538360118 814147572 -1820369999 -2101657302 109114952 679296264 -1196019479 465212914 327716211 1072798320 -1063352456 -1445147965 -1328071489 1016836075
REM
CELL 1.54180   50.00000   50.00000   50.00000   90.00000   90.00000   90.00000
LATT -1
SFAC C  
C      1  0.4341590000000  0.5603900000000  0.5648540000000 1.0
C      1  0.5357190000000  0.5639990000000  0.5790020000000 1.0
C      1  0.5904040000000  0.5618760000000  0.4830480000000 1.0
C      1  0.5091630000000  0.5639710000000  0.4076800000000 1.0
C      1  0.4236200000000  0.5637380000000  0.4602900000000 1.0
C      1  0.4301770000000  0.4363070000000  0.5640410000000 1.0
C      1  0.5399710000000  0.4410030000000  0.5860180000000 1.0
C      1  0.5917790000000  0.4383580000000  0.4840140000000 1.0
C      1  0.5138890000000  0.4375790000000  0.4045610000000 1.0
C      1  0.4166130000000  0.4404360000000  0.4562530000000 1.0
C      1  0.4060420000000  0.5519680000000  0.5040340000000 1.0
C      1  0.4799270000000  0.5459590000000  0.5846020000000 1.0
C      1  0.5737540000000  0.5518300000000  0.5459120000000 1.0
C      1  0.5619270000000  0.5452210000000  0.4446360000000 1.0
C      1  0.4678670000000  0.5404280000000  0.4232590000000 1.0
C      1  0.4177110000000  0.4604770000000  0.5022900000000 1.0
C      1  0.4748390000000  0.4545310000000  0.5809020000000 1.0
C      1  0.5712690000000  0.4519720000000  0.5473720000000 1.0
C      1  0.5689770000000  0.4493180000000  0.4455720000000 1.0
C      1  0.4754210000000  0.4485750000000  0.4092060000000 1.0
C      1  0.4251560000000  0.4663710000000  0.4722150000000 1.0
C      1  0.4473420000000  0.4629020000000  0.5662690000000 1.0
C      1  0.5501910000000  0.4655830000000  0.5686680000000 1.0
C      1  0.5742340000000  0.4628770000000  0.4730950000000 1.0
C      1  0.5033090000000  0.4630660000000  0.4214970000000 1.0
C      1  0.4264550000000  0.5397220000000  0.4813350000000 1.0
C      1  0.4525830000000  0.5348760000000  0.5691720000000 1.0
C      1  0.5521990000000  0.5397990000000  0.5671400000000 1.0
C      1  0.5777430000000  0.5355790000000  0.4710190000000 1.0
C      1  0.4991890000000  0.5377160000000  0.4219020000000 1.0
C      1  0.4659470000000  0.4246400000000  0.4499730000000 1.0
C      1  0.4414310000000  0.4216090000000  0.5173240000000 1.0
C      1  0.4967630000000  0.4295880000000  0.5599510000000 1.0
C      1  0.5573550000000  0.4240960000000  0.5227670000000 1.0
C      1  0.5362140000000  0.4286400000000  0.4542150000000 1.0
C      1  0.4585090000000  0.5806670000000  0.4508950000000 1.0
C      1  0.4385360000000  0.5807900000000  0.5228580000000 1.0
C      1  0.5001010000000  0.5703000000000  0.5621470000000 1.0
C      1  0.5570200000000  0.5737060000000  0.5173490000000 1.0
C      1  0.5308480000000  0.5677120000000  0.4527040000000 1.0
C      1  0.5450270000000  0.5183990000000  0.3993140000000 1.0
C      1  0.4281260000000  0.5153740000000  0.4318260000000 1.0
C      1  0.4083060000000  0.5144970000000  0.5455970000000 1.0
C      1  0.5167880000000  0.5170290000000  0.5997990000000 1.0
C      1  0.6034150000000  0.5174770000000  0.5139060000000 1.0
C      1  0.5479990000000  0.4842320000000  0.4000040000000 1.0
C      1  0.4284120000000  0.4843170000000  0.4261810000000 1.0
C      1  0.4064140000000  0.4827490000000  0.5487900000000 1.0
C      1  0.5126300000000  0.4862810000000  0.6024610000000 1.0
C      1  0.6010250000000  0.4851770000000  0.5133050000000 1.0
C      1  0.5009900000000  0.5540950000000  0.4809420000000 1.0
C      1  0.4810130000000  0.5553960000000  0.5008310000000 1.0
C      1  0.4930100000000  0.5531060000000  0.5268630000000 1.0
C      1  0.5218740000000  0.5505070000000  0.5225390000000 1.0
C      1  0.5260750000000  0.5520560000000  0.4940030000000 1.0
C      1  0.5015490000000  0.4467060000000  0.4788650000000 1.0
C      1  0.4781870000000  0.4449740000000  0.4950050000000 1.0
C      1  0.4863030000000  0.4454520000000  0.5227950000000 1.0
C      1  0.5152600000000  0.4468450000000  0.5228400000000 1.0
C      1  0.5238750000000  0.4459580000000  0.4953310000000 1.0
C      1  0.4679720000000  0.4640330000000  0.5428680000000 1.0
C      1  0.5345880000000  0.4663990000000  0.5415460000000 1.0
C      1  0.5498200000000  0.4647460000000  0.4894230000000 1.0
C      1  0.4995770000000  0.4621750000000  0.4539020000000 1.0
C      1  0.4536360000000  0.4634460000000  0.4854960000000 1.0
C      1  0.4744950000000  0.5351430000000  0.5468880000000 1.0
C      1  0.5433070000000  0.5273600000000  0.5373810000000 1.0
C      1  0.5477700000000  0.5330840000000  0.4798690000000 1.0
C      1  0.4915540000000  0.5417090000000  0.4551760000000 1.0
C      1  0.4547720000000  0.5392480000000  0.4951710000000 1.0
C      1  0.4125580000000  0.5198900000000  0.5131560000000 1.0
C      1  0.4864260000000  0.5126700000000  0.5878140000000 1.0
C      1  0.5869960000000  0.5245790000000  0.5372320000000 1.0
C      1  0.5572700000000  0.5195330000000  0.4260980000000 1.0
C      1  0.4604390000000  0.5078330000000  0.4295180000000 1.0
C      1  0.4145940000000  0.4864510000000  0.5179380000000 1.0
C      1  0.4835070000000  0.4799230000000  0.5972260000000 1.0
C      1  0.5819450000000  0.4794980000000  0.5348480000000 1.0
C      1  0.5677330000000  0.4723720000000  0.4233330000000 1.0
C      1  0.4585530000000  0.4764390000000  0.4195190000000 1.0
C      1  0.4924630000000  0.4252590000000  0.4282800000000 1.0
C      1  0.4287250000000  0.4293550000000  0.4862660000000 1.0
C      1  0.4630540000000  0.4264990000000  0.5635730000000 1.0
C      1  0.5476490000000  0.4280630000000  0.5553020000000 1.0
C      1  0.5627500000000  0.4247520000000  0.4722400000000 1.0
C      1  0.4838700000000  0.5732190000000  0.4289720000000 1.0
C      1  0.4250900000000  0.5782380000000  0.4913870000000 1.0
C      1  0.4664630000000  0.5719330000000  0.5655250000000 1.0
C      1  0.5492020000000  0.5755430000000  0.5496990000000 1.0
C      1  0.5614400000000  0.5716540000000  0.4673020000000 1.0
C      1  0.4703560000000  0.4553820000000  0.4422840000000 1.0
C      1  0.4445540000000  0.4509210000000  0.5156650000000 1.0
C      1  0.4981580000000  0.4620700000000  0.5571530000000 1.0
C      1  0.5550550000000  0.4554870000000  0.5182040000000 1.0
C      1  0.5368470000000  0.4556250000000  0.4416230000000 1.0
C      1  0.4600180000000  0.5511030000000  0.4515450000000 1.0
C      1  0.4359450000000  0.5510260000000  0.5182980000000 1.0
C      1  0.5043610000000  0.5370070000000  0.5616690000000 1.0
C      1  0.5619150000000  0.5440780000000  0.5135870000000 1.0
C      1  0.5303200000000  0.5345390000000  0.4512880000000 1.0
C      1  0.4572860000000  0.4160750000000  0.4751750000000 1.0
C      1  0.4604640000000  0.4104450000000  0.5345430000000 1.0
C      1  0.5184570000000  0.4157270000000  0.5477540000000 1.0
C      1  0.5510120000000  0.4111350000000  0.4984470000000 1.0
C      1  0.5113510000000  0.4156450000000  0.4532610000000 1.0
C      1  0.4519530000000  0.5914350000000  0.4760830000000 1.0
C      1  0.4610350000000  0.5886750000000  0.5370960000000 1.0
C      1  0.5189920000000  0.5852010000000  0.5472710000000 1.0
C      1  0.5478930000000  0.5855710000000  0.4937970000000 1.0
C      1  0.5062360000000  0.5815550000000  0.4523560000000 1.0
C      1  0.5246490000000  0.4005540000000  0.4986530000000 1.0
C      1  0.5044090000000  0.4025840000000  0.4773490000000 1.0
C      1  0.4779020000000  0.4030450000000  0.4900290000000 1.0
C      1  0.4819080000000  0.4004710000000  0.5192010000000 1.0
C      1  0.5106620000000  0.4012070000000  0.5246220000000 1.0
C      1  0.5221560000000  0.5966760000000  0.4965040000000 1.0
C      1  0.5007170000000  0.5958740000000  0.4765070000000 1.0
C      1  0.4750060000000  0.5990140000000  0.4908060000000 1.0
C      1  0.4809050000000  0.5989190000000  0.5198050000000 1.0
C      1  0.5097350000000  0.5972550000000  0.5233700000000 1.0
C      1  0.4752110000000  0.4846700000000  0.4813360000000 1.0
C      1  0.4701530000000  0.4847420000000  0.5207720000000 1.0
C      1  0.5081470000000  0.4842000000000  0.5350560000000 1.0
C      1  0.5267220000000  0.4856350000000  0.4921830000000 1.0
C      1  0.5235970000000  0.4855060000000  0.4475780000000 1.0
C      1  0.4745750000000  0.5184220000000  0.4844730000000 1.0
C      1  0.4730900000000  0.5165710000000  0.5240700000000 1.0
C      1  0.5112790000000  0.5147880000000  0.5368390000000 1.0
C      1  0.5264570000000  0.5122670000000  0.4903060000000 1.0
C      1  0.5089460000000  0.5117970000000  0.4504010000000 1.0
C      1  0.5575210000000  0.5156720000000  0.5848940000000 1.0
C      1  0.5945010000000  0.5113240000000  0.4703090000000 1.0
C      1  0.5069860000000  0.5126130000000  0.4099080000000 1.0
C      1  0.4154900000000  0.5149000000000  0.4697360000000 1.0
C      1  0.4377460000000  0.5110770000000  0.5784910000000 1.0
C      1  0.5562270000000  0.4912880000000  0.5831540000000 1.0
C      1  0.5911880000000  0.4873760000000  0.4709620000000 1.0
C      1  0.5095650000000  0.4889690000000  0.4098450000000 1.0
C      1  0.4142060000000  0.4919160000000  0.4627200000000 1.0
C      1  0.4342260000000  0.4871310000000  0.5771710000000 1.0
C      1  0.5288780000000  0.4626600000000  0.6023510000000 1.0
C      1  0.6058650000000  0.4612860000000  0.4974690000000 1.0
C      1  0.5313040000000  0.4599180000000  0.3931740000000 1.0
C      1  0.4136930000000  0.4607830000000  0.4343860000000 1.0
C      1  0.4086000000000  0.4563730000000  0.5591970000000 1.0
C      1  0.5263280000000  0.5433510000000  0.5973920000000 1.0
C      1  0.6072080000000  0.5411940000000  0.4973450000000 1.0
C      1  0.5284500000000  0.5429380000000  0.3951660000000 1.0
C      1  0.4219500000000  0.5416360000000  0.4407030000000 1.0
C      1  0.4139410000000  0.5389530000000  0.5599110000000 1.0
C      1  0.4429800000000  0.5043650000000  0.5148960000000 1.0
C      1  0.4781410000000  0.5042790000000  0.4548620000000 1.0
C      1  0.5535450000000  0.4942620000000  0.4382970000000 1.0
C      1  0.5669590000000  0.5027900000000  0.5413030000000 1.0
C      1  0.4802930000000  0.4986420000000  0.5621490000000 1.0
C      1  0.5007770000000  0.5208690000000  0.5047350000000 1.0
C      1  0.4987760000000  0.4781410000000  0.5035370000000 1.0
END
