TITL C-2782235-7892-949 -0.00165607275809817 125000 -1119.55068232799 0 0 194 (C1) n - 1
REM
REM in /home/nfs/bkarasulu/CARBON/AIRSS/Generating-Clusters/REBO/Higher-Symm/SD-CG/HFTN-CG
REM
REM
REM
REM
REM
REM ./C.cell (12c818d87b63d06a65506943cc24bca4)
REM
REM compiler GCC version 9.2.1 20190827 (Red Hat 9.2.1-1)
REM options -cpp -mtune=generic -march=x86-64 -g -O0 -fpre-include=/usr/include/finclude/math-vector-fortran.h
REM seed 1793198313 -628359864 157494277 -1037665317 1047949315 -881052912 -885512402 1935034184 1177831474 -2045050661 -2125854268 1591714639 1060396251 -484637340 398679986 524828912 273995069 -1784597103 -1855951425 -612591911 1429885930 1100523869 -631940331 649077232 -1241439717 140780761 -542761216 1838211136 -1237573426 1488270103 1608864634 873251921 -254071905
REM
CELL 1.54180   50.00000   50.00000   50.00000   90.00000   90.00000   90.00000
LATT -1
SFAC C  
C      1  0.4519780000000  0.5658910000000  0.4918990000000 1.0
C      1  0.5611920000000  0.4680520000000  0.5710880000000 1.0
C      1  0.4449840000000  0.5856980000000  0.4712040000000 1.0
C      1  0.4095440000000  0.5322930000000  0.5464620000000 1.0
C      1  0.6035690000000  0.4214690000000  0.5064340000000 1.0
C      1  0.4526820000000  0.5822780000000  0.5407340000000 1.0
C      1  0.4710970000000  0.5750730000000  0.5130410000000 1.0
C      1  0.4750580000000  0.5025680000000  0.4706250000000 1.0
C      1  0.5420770000000  0.5565120000000  0.5375300000000 1.0
C      1  0.6187610000000  0.5054050000000  0.4828080000000 1.0
C      1  0.5959640000000  0.5570470000000  0.4782570000000 1.0
C      1  0.5716830000000  0.4477680000000  0.4538170000000 1.0
C      1  0.4314690000000  0.4456490000000  0.4800880000000 1.0
C      1  0.5234440000000  0.5112350000000  0.4694240000000 1.0
C      1  0.4643810000000  0.5444480000000  0.5401050000000 1.0
C      1  0.4344430000000  0.4650360000000  0.5826010000000 1.0
C      1  0.5084560000000  0.5634370000000  0.4744650000000 1.0
C      1  0.4547460000000  0.4808840000000  0.5183990000000 1.0
C      1  0.5792910000000  0.5129930000000  0.5775170000000 1.0
C      1  0.5147820000000  0.4853160000000  0.5876660000000 1.0
C      1  0.4209540000000  0.4917530000000  0.4796740000000 1.0
C      1  0.5104320000000  0.5635330000000  0.4221240000000 1.0
C      1  0.6068440000000  0.4811740000000  0.5011200000000 1.0
C      1  0.5421320000000  0.5322430000000  0.4040630000000 1.0
C      1  0.5419790000000  0.4920260000000  0.5592420000000 1.0
C      1  0.4677200000000  0.5276860000000  0.3892340000000 1.0
C      1  0.5389220000000  0.4528460000000  0.5527340000000 1.0
C      1  0.6121330000000  0.4813000000000  0.4597520000000 1.0
C      1  0.5531200000000  0.5469290000000  0.4898420000000 1.0
C      1  0.4812140000000  0.4231140000000  0.4240930000000 1.0
C      1  0.5394770000000  0.4816300000000  0.6116010000000 1.0
C      1  0.4559790000000  0.5305830000000  0.6073830000000 1.0
C      1  0.5568330000000  0.5871380000000  0.4981500000000 1.0
C      1  0.5290050000000  0.5766940000000  0.4429030000000 1.0
C      1  0.4923900000000  0.5352930000000  0.3981320000000 1.0
C      1  0.5159630000000  0.5746810000000  0.5283450000000 1.0
C      1  0.4812190000000  0.4001410000000  0.4414920000000 1.0
C      1  0.4967300000000  0.4118770000000  0.5789380000000 1.0
C      1  0.4372820000000  0.4273860000000  0.4327370000000 1.0
C      1  0.5344990000000  0.4203510000000  0.4749390000000 1.0
C      1  0.4447620000000  0.4227620000000  0.4599530000000 1.0
C      1  0.4849980000000  0.5215430000000  0.5770220000000 1.0
C      1  0.4500480000000  0.4999760000000  0.4903770000000 1.0
C      1  0.4303890000000  0.4467430000000  0.5272900000000 1.0
C      1  0.5112520000000  0.4364880000000  0.5063360000000 1.0
C      1  0.4003330000000  0.4626630000000  0.4660470000000 1.0
C      1  0.5008790000000  0.5016590000000  0.4896540000000 1.0
C      1  0.5466280000000  0.4408780000000  0.4243350000000 1.0
C      1  0.5492580000000  0.5855050000000  0.5750740000000 1.0
C      1  0.5195140000000  0.5337010000000  0.5392490000000 1.0
C      1  0.4741220000000  0.4084200000000  0.5542770000000 1.0
C      1  0.4079860000000  0.5421990000000  0.4846580000000 1.0
C      1  0.4373650000000  0.5279050000000  0.4748180000000 1.0
C      1  0.4847720000000  0.5540250000000  0.5647740000000 1.0
C      1  0.5047290000000  0.4860270000000  0.3961770000000 1.0
C      1  0.4618220000000  0.4372560000000  0.5501270000000 1.0
C      1  0.5122000000000  0.6002300000000  0.4595330000000 1.0
C      1  0.4455200000000  0.5591460000000  0.5647500000000 1.0
C      1  0.6013660000000  0.5117450000000  0.4361630000000 1.0
C      1  0.4451100000000  0.5098130000000  0.4348000000000 1.0
C      1  0.5056970000000  0.4892880000000  0.5214460000000 1.0
C      1  0.4596860000000  0.4713960000000  0.5497850000000 1.0
C      1  0.4269650000000  0.5160910000000  0.5707960000000 1.0
C      1  0.5611130000000  0.4653550000000  0.5992410000000 1.0
C      1  0.5410670000000  0.5467990000000  0.5701340000000 1.0
C      1  0.5217780000000  0.5925740000000  0.5757660000000 1.0
C      1  0.5144130000000  0.5284150000000  0.5699250000000 1.0
C      1  0.4918600000000  0.5356970000000  0.5262920000000 1.0
C      1  0.5566710000000  0.5411690000000  0.5956880000000 1.0
C      1  0.4252440000000  0.5613090000000  0.5378650000000 1.0
C      1  0.5701200000000  0.4649440000000  0.4170040000000 1.0
C      1  0.5092700000000  0.4845280000000  0.5552230000000 1.0
C      1  0.4207070000000  0.5069570000000  0.5165760000000 1.0
C      1  0.5052900000000  0.3988170000000  0.4582900000000 1.0
C      1  0.4544260000000  0.4976920000000  0.3982430000000 1.0
C      1  0.5085950000000  0.4299670000000  0.4188160000000 1.0
C      1  0.5335690000000  0.3961010000000  0.5288580000000 1.0
C      1  0.4683760000000  0.5407540000000  0.4802320000000 1.0
C      1  0.5664070000000  0.5534820000000  0.5173730000000 1.0
C      1  0.5064010000000  0.3999730000000  0.5489400000000 1.0
C      1  0.4153740000000  0.5340670000000  0.4239910000000 1.0
C      1  0.4967720000000  0.6249280000000  0.5021690000000 1.0
C      1  0.4422590000000  0.5295740000000  0.5210780000000 1.0
C      1  0.4681120000000  0.5280200000000  0.4490960000000 1.0
C      1  0.5159610000000  0.4663660000000  0.4573920000000 1.0
C      1  0.4406390000000  0.4225260000000  0.5155330000000 1.0
C      1  0.4174310000000  0.5030400000000  0.4489870000000 1.0
C      1  0.5616640000000  0.4761210000000  0.4871830000000 1.0
C      1  0.3902250000000  0.5179730000000  0.5222340000000 1.0
C      1  0.5446370000000  0.5410310000000  0.4337640000000 1.0
C      1  0.4929130000000  0.4636580000000  0.5054410000000 1.0
C      1  0.5154760000000  0.4359520000000  0.5636260000000 1.0
C      1  0.5092190000000  0.4399100000000  0.4721990000000 1.0
C      1  0.5793100000000  0.4591050000000  0.5368270000000 1.0
C      1  0.4247260000000  0.5454320000000  0.4485350000000 1.0
C      1  0.4625370000000  0.6078460000000  0.4622610000000 1.0
C      1  0.4621630000000  0.4011830000000  0.5257570000000 1.0
C      1  0.3946820000000  0.5119970000000  0.4247570000000 1.0
C      1  0.4009840000000  0.4456120000000  0.4937480000000 1.0
C      1  0.3982670000000  0.4996580000000  0.5486220000000 1.0
C      1  0.5704200000000  0.5835160000000  0.5299510000000 1.0
C      1  0.5700750000000  0.5243420000000  0.4736470000000 1.0
C      1  0.4645240000000  0.4658440000000  0.4491830000000 1.0
C      1  0.5318130000000  0.5116060000000  0.5195600000000 1.0
C      1  0.5336310000000  0.4696190000000  0.5272490000000 1.0
C      1  0.4188740000000  0.4894660000000  0.5861280000000 1.0
C      1  0.4542650000000  0.4081510000000  0.4877840000000 1.0
C      1  0.4305290000000  0.4626900000000  0.4502790000000 1.0
C      1  0.4803740000000  0.4893440000000  0.4177740000000 1.0
C      1  0.4333040000000  0.5719730000000  0.4475520000000 1.0
C      1  0.5981070000000  0.4637910000000  0.4488340000000 1.0
C      1  0.4785270000000  0.3871270000000  0.4998620000000 1.0
C      1  0.4403900000000  0.5387210000000  0.5863670000000 1.0
C      1  0.4391570000000  0.5266580000000  0.4055260000000 1.0
C      1  0.5600630000000  0.4066690000000  0.5439230000000 1.0
C      1  0.5193090000000  0.4254960000000  0.5314380000000 1.0
C      1  0.5339240000000  0.5103620000000  0.5847460000000 1.0
C      1  0.5645940000000  0.4328060000000  0.5526020000000 1.0
C      1  0.3986620000000  0.4674100000000  0.5400450000000 1.0
C      1  0.6044990000000  0.5195820000000  0.5088690000000 1.0
C      1  0.3873850000000  0.4925730000000  0.4730920000000 1.0
C      1  0.5435130000000  0.4590620000000  0.4997370000000 1.0
C      1  0.4777490000000  0.4634260000000  0.4778700000000 1.0
C      1  0.4614160000000  0.5869220000000  0.4350230000000 1.0
C      1  0.5202750000000  0.5506200000000  0.3968660000000 1.0
C      1  0.4311170000000  0.4458550000000  0.5600730000000 1.0
C      1  0.4727750000000  0.4448570000000  0.5232220000000 1.0
C      1  0.4816310000000  0.4262130000000  0.4974790000000 1.0
C      1  0.5563080000000  0.3966540000000  0.4815450000000 1.0
C      1  0.5082580000000  0.6177770000000  0.4789260000000 1.0
C      1  0.5564280000000  0.4917030000000  0.4368500000000 1.0
C      1  0.5732630000000  0.4172150000000  0.4664110000000 1.0
C      1  0.5613340000000  0.5666270000000  0.4410700000000 1.0
C      1  0.5392270000000  0.4704010000000  0.4077290000000 1.0
C      1  0.5621420000000  0.4864140000000  0.5256100000000 1.0
C      1  0.4914380000000  0.5560420000000  0.5961530000000 1.0
C      1  0.4799770000000  0.4624610000000  0.3967460000000 1.0
C      1  0.4913780000000  0.4844160000000  0.4471030000000 1.0
C      1  0.5305200000000  0.5019720000000  0.4070240000000 1.0
C      1  0.5580790000000  0.5062730000000  0.4982840000000 1.0
C      1  0.4621000000000  0.4690580000000  0.5896260000000 1.0
C      1  0.5589740000000  0.5092890000000  0.6047840000000 1.0
C      1  0.4589790000000  0.5648790000000  0.4106140000000 1.0
C      1  0.4816790000000  0.5093420000000  0.6088250000000 1.0
C      1  0.5053410000000  0.3892440000000  0.4859960000000 1.0
C      1  0.5799960000000  0.5442390000000  0.5633500000000 1.0
C      1  0.5921340000000  0.5440770000000  0.5030800000000 1.0
C      1  0.4591280000000  0.4488960000000  0.4197130000000 1.0
C      1  0.4469060000000  0.5618030000000  0.3880760000000 1.0
C      1  0.5408850000000  0.5724910000000  0.4747750000000 1.0
C      1  0.4797680000000  0.4889990000000  0.5684100000000 1.0
C      1  0.5854030000000  0.4858390000000  0.5579250000000 1.0
C      1  0.4278090000000  0.4833960000000  0.5478200000000 1.0
C      1  0.5124240000000  0.4528280000000  0.4000710000000 1.0
C      1  0.4890560000000  0.5777900000000  0.4523400000000 1.0
C      1  0.5775750000000  0.4328580000000  0.5152090000000 1.0
C      1  0.5566490000000  0.5210710000000  0.5536870000000 1.0
C      1  0.5091350000000  0.4369380000000  0.5970610000000 1.0
C      1  0.4784480000000  0.5069380000000  0.5330610000000 1.0
C      1  0.5879490000000  0.4654440000000  0.4873770000000 1.0
C      1  0.3934420000000  0.5239380000000  0.4610450000000 1.0
C      1  0.4970690000000  0.5717050000000  0.5054440000000 1.0
C      1  0.4945730000000  0.5386760000000  0.6137480000000 1.0
C      1  0.5948090000000  0.4948730000000  0.5279720000000 1.0
C      1  0.4775240000000  0.6024630000000  0.5491780000000 1.0
C      1  0.4842870000000  0.6211780000000  0.5254530000000 1.0
C      1  0.5708870000000  0.5725930000000  0.5600820000000 1.0
C      1  0.5954990000000  0.4365320000000  0.4797750000000 1.0
C      1  0.4971030000000  0.6108160000000  0.5758120000000 1.0
C      1  0.4820160000000  0.4798440000000  0.6096750000000 1.0
C      1  0.4279050000000  0.5534000000000  0.5053970000000 1.0
C      1  0.4228720000000  0.4750710000000  0.5093890000000 1.0
C      1  0.4547380000000  0.4554710000000  0.4969090000000 1.0
C      1  0.5086410000000  0.5228940000000  0.4230310000000 1.0
C      1  0.5396690000000  0.5940950000000  0.5240510000000 1.0
C      1  0.5984290000000  0.5192620000000  0.4624580000000 1.0
C      1  0.4477740000000  0.5089890000000  0.5458590000000 1.0
C      1  0.5861510000000  0.4930030000000  0.4243000000000 1.0
C      1  0.5161540000000  0.5383370000000  0.4524580000000 1.0
C      1  0.5534220000000  0.4320850000000  0.4996110000000 1.0
C      1  0.4769500000000  0.4317150000000  0.4653010000000 1.0
C      1  0.5270280000000  0.5312180000000  0.4947530000000 1.0
C      1  0.4396450000000  0.4784560000000  0.4214290000000 1.0
C      1  0.5445430000000  0.4651240000000  0.4474970000000 1.0
C      1  0.3835600000000  0.5201020000000  0.4931350000000 1.0
C      1  0.3917220000000  0.4519320000000  0.5188930000000 1.0
C      1  0.5278760000000  0.4189920000000  0.4424040000000 1.0
C      1  0.5490480000000  0.5156700000000  0.4518190000000 1.0
C      1  0.5833130000000  0.5662070000000  0.4561010000000 1.0
C      1  0.5317110000000  0.3885690000000  0.4990040000000 1.0
C      1  0.5101740000000  0.4637300000000  0.6109250000000 1.0
C      1  0.4802460000000  0.5520400000000  0.4322870000000 1.0
C      1  0.4928950000000  0.5332900000000  0.4953560000000 1.0
C      1  0.5002390000000  0.5782300000000  0.5537450000000 1.0
END
