TITL C-2782231-7322-1160 0.0018698598970232 125000 -552.919197584292 0 0 92 (C1) n - 1
REM
REM in /home/nfs/bkarasulu/CARBON/AIRSS/Generating-Clusters/REBO/Higher-Symm/SD-CG/HFTN-CG
REM
REM
REM
REM
REM
REM ./C.cell (12c818d87b63d06a65506943cc24bca4)
REM
REM compiler GCC version 9.2.1 20190827 (Red Hat 9.2.1-1)
REM options -cpp -mtune=generic -march=x86-64 -g -O0 -fpre-include=/usr/include/finclude/math-vector-fortran.h
REM seed 128083993 -204253260 -800699140 -442205724 -1875773770 -768526560 -2020040439 1553637626 -1163545045 -558514634 -1298811648 -1097329822 1777059994 -445992171 -218222003 1555611769 641307589 569036688 -2021676093 -1771470483 -2018735695 -890544493 -675103633 2027973839 -1398153793 -1262353418 305335123 1787063760 1713754010 23772098 -1149163728 33586441 989777412
REM
CELL 1.54180   50.00000   50.00000   50.00000   90.00000   90.00000   90.00000
LATT -1
SFAC C  
C      1  0.5311460000000  0.4452910000000  0.4680250000000 1.0
C      1  0.5301110000000  0.4668690000000  0.5580300000000 1.0
C      1  0.5310290000000  0.5546730000000  0.5321560000000 1.0
C      1  0.5298320000000  0.5332240000000  0.4417170000000 1.0
C      1  0.4679530000000  0.4446350000000  0.4698220000000 1.0
C      1  0.4686050000000  0.4679040000000  0.5550930000000 1.0
C      1  0.4677610000000  0.5552240000000  0.5304220000000 1.0
C      1  0.4678300000000  0.5326040000000  0.4448890000000 1.0
C      1  0.5554190000000  0.5586170000000  0.5087580000000 1.0
C      1  0.5543110000000  0.5101830000000  0.4359320000000 1.0
C      1  0.5556780000000  0.4413390000000  0.4912600000000 1.0
C      1  0.5546590000000  0.4897710000000  0.5640000000000 1.0
C      1  0.4423230000000  0.5634770000000  0.5094030000000 1.0
C      1  0.4440650000000  0.5084150000000  0.4416860000000 1.0
C      1  0.4425400000000  0.4369900000000  0.4911330000000 1.0
C      1  0.4431200000000  0.4903110000000  0.5582940000000 1.0
C      1  0.4848220000000  0.4789320000000  0.4029580000000 1.0
C      1  0.4853020000000  0.4030280000000  0.5191190000000 1.0
C      1  0.4846430000000  0.5195600000000  0.5965270000000 1.0
C      1  0.4856190000000  0.5975710000000  0.4808890000000 1.0
C      1  0.5122670000000  0.4787940000000  0.4022890000000 1.0
C      1  0.5127560000000  0.4036990000000  0.5183600000000 1.0
C      1  0.5120800000000  0.5200300000000  0.5973200000000 1.0
C      1  0.5130630000000  0.5966470000000  0.4814450000000 1.0
C      1  0.5800450000000  0.5230110000000  0.4887760000000 1.0
C      1  0.5811150000000  0.4921110000000  0.4741810000000 1.0
C      1  0.5801050000000  0.4770660000000  0.5111440000000 1.0
C      1  0.5810870000000  0.5079710000000  0.5257450000000 1.0
C      1  0.4208230000000  0.5266690000000  0.4920740000000 1.0
C      1  0.4209180000000  0.4893020000000  0.4779630000000 1.0
C      1  0.4209080000000  0.4731510000000  0.5079230000000 1.0
C      1  0.4206750000000  0.5105900000000  0.5219160000000 1.0
C      1  0.4195480000000  0.5176590000000  0.4617390000000 1.0
C      1  0.4171790000000  0.4554750000000  0.4796330000000 1.0
C      1  0.4179620000000  0.4825560000000  0.5379160000000 1.0
C      1  0.4171720000000  0.5444510000000  0.5202990000000 1.0
C      1  0.5793900000000  0.5194450000000  0.4549110000000 1.0
C      1  0.5807950000000  0.4611860000000  0.4822430000000 1.0
C      1  0.5797010000000  0.4805570000000  0.5450070000000 1.0
C      1  0.5806840000000  0.5389040000000  0.5177030000000 1.0
C      1  0.4712930000000  0.5758440000000  0.4699870000000 1.0
C      1  0.4716040000000  0.4693280000000  0.4259250000000 1.0
C      1  0.4711390000000  0.4248020000000  0.5301950000000 1.0
C      1  0.4712950000000  0.5296320000000  0.5738400000000 1.0
C      1  0.5264210000000  0.5743500000000  0.4704860000000 1.0
C      1  0.5264130000000  0.4694390000000  0.4248310000000 1.0
C      1  0.5264890000000  0.4257360000000  0.5293910000000 1.0
C      1  0.5263120000000  0.5299750000000  0.5750830000000 1.0
C      1  0.4476610000000  0.4375280000000  0.5194980000000 1.0
C      1  0.4483460000000  0.5194670000000  0.5603050000000 1.0
C      1  0.4477630000000  0.5629970000000  0.4807380000000 1.0
C      1  0.4487910000000  0.4803030000000  0.4395320000000 1.0
C      1  0.5494420000000  0.4397410000000  0.5191940000000 1.0
C      1  0.5493670000000  0.5182440000000  0.5624710000000 1.0
C      1  0.5491680000000  0.5601430000000  0.4808160000000 1.0
C      1  0.5492130000000  0.4816510000000  0.4374880000000 1.0
C      1  0.5486940000000  0.5030700000000  0.4746430000000 1.0
C      1  0.5491020000000  0.4802030000000  0.4972740000000 1.0
C      1  0.5487160000000  0.4969020000000  0.5253380000000 1.0
C      1  0.5490810000000  0.5197260000000  0.5026960000000 1.0
C      1  0.4518270000000  0.5033650000000  0.4805040000000 1.0
C      1  0.4531300000000  0.4749120000000  0.4965250000000 1.0
C      1  0.4518960000000  0.4971510000000  0.5199690000000 1.0
C      1  0.4529540000000  0.5256110000000  0.5039710000000 1.0
C      1  0.5131490000000  0.5490580000000  0.5573220000000 1.0
C      1  0.5127280000000  0.5585390000000  0.4500890000000 1.0
C      1  0.5133700000000  0.4503800000000  0.4427570000000 1.0
C      1  0.5129400000000  0.4416290000000  0.5497910000000 1.0
C      1  0.4850570000000  0.5490360000000  0.5568780000000 1.0
C      1  0.4846920000000  0.5585510000000  0.4506330000000 1.0
C      1  0.4852760000000  0.4502480000000  0.4432670000000 1.0
C      1  0.4849240000000  0.4419320000000  0.5493370000000 1.0
C      1  0.5567520000000  0.4588790000000  0.5390720000000 1.0
C      1  0.5575090000000  0.5361370000000  0.5412950000000 1.0
C      1  0.5564050000000  0.5409990000000  0.4609460000000 1.0
C      1  0.5574970000000  0.4639140000000  0.4587720000000 1.0
C      1  0.4406110000000  0.4586960000000  0.5394480000000 1.0
C      1  0.4411380000000  0.5390490000000  0.5409980000000 1.0
C      1  0.4408530000000  0.5425110000000  0.4615670000000 1.0
C      1  0.4412470000000  0.4606220000000  0.4590160000000 1.0
C      1  0.5216550000000  0.4902730000000  0.5374510000000 1.0
C      1  0.5222890000000  0.5335800000000  0.5090900000000 1.0
C      1  0.5217560000000  0.5098580000000  0.4625180000000 1.0
C      1  0.5221050000000  0.4666480000000  0.4906530000000 1.0
C      1  0.4784170000000  0.4906150000000  0.5347250000000 1.0
C      1  0.4824260000000  0.5359390000000  0.5094220000000 1.0
C      1  0.4780160000000  0.5097940000000  0.4652860000000 1.0
C      1  0.4822320000000  0.4643930000000  0.4906140000000 1.0
C      1  0.5007640000000  0.5135580000000  0.5262500000000 1.0
C      1  0.5005580000000  0.4867910000000  0.4736250000000 1.0
C      1  0.5012420000000  0.5250290000000  0.4848660000000 1.0
C      1  0.5012930000000  0.4753330000000  0.5149140000000 1.0
END
