TITL C-2782227-3064-895 -0.0011826262325121 125000 -314.432142976415 0 0 58 (D3) n - 1
REM
REM in /home/nfs/bkarasulu/CARBON/AIRSS/Generating-Clusters/REBO/Higher-Symm/SD-CG/HFTN-CG
REM
REM
REM
REM
REM
REM ./C.cell (12c818d87b63d06a65506943cc24bca4)
REM
REM compiler GCC version 9.2.1 20190827 (Red Hat 9.2.1-1)
REM options -cpp -mtune=generic -march=x86-64 -g -O0 -fpre-include=/usr/include/finclude/math-vector-fortran.h
REM seed 1280686287 -486437590 83167768 -917601943 -1733584556 65529683 -1197339091 238509066 -1824404885 672558837 -35424407 49482531 -357685064 1386746913 -1969988663 1959720357 464828454 -1565756935 -1157830241 -1079663678 -418563300 -1158331611 443179548 -966224263 -1083651728 149790331 1540147660 1711262200 177412034 2038687833 -1242731504 -1572348454 -789760801
REM
CELL 1.54180   50.00000   50.00000   50.00000   90.00000   90.00000   90.00000
LATT -1
SFAC C  
C      1  0.5529030000000  0.5021020000000  0.5383480000000 1.0
C      1  0.5529020000000  0.5319070000000  0.4798360000000 1.0
C      1  0.5529020000000  0.4663310000000  0.4832800000000 1.0
C      1  0.4439990000000  0.5020970000000  0.4626290000000 1.0
C      1  0.4440000000000  0.5319100000000  0.5211370000000 1.0
C      1  0.4440000000000  0.4663340000000  0.5177020000000 1.0
C      1  0.4832160000000  0.5594120000000  0.5452480000000 1.0
C      1  0.4832150000000  0.5092270000000  0.4267550000000 1.0
C      1  0.4832160000000  0.4317020000000  0.5294630000000 1.0
C      1  0.5136860000000  0.5594050000000  0.4557210000000 1.0
C      1  0.5136880000000  0.5092380000000  0.5742210000000 1.0
C      1  0.5136860000000  0.4316970000000  0.4715240000000 1.0
C      1  0.5103600000000  0.4714520000000  0.4752890000000 1.0
C      1  0.5103610000000  0.4926210000000  0.5379100000000 1.0
C      1  0.5103610000000  0.5362670000000  0.4882660000000 1.0
C      1  0.4865420000000  0.4714560000000  0.5256920000000 1.0
C      1  0.4865410000000  0.4926160000000  0.4630690000000 1.0
C      1  0.4865420000000  0.5362690000000  0.5127060000000 1.0
C      1  0.4811930000000  0.5048790000000  0.5650630000000 1.0
C      1  0.4811920000000  0.5536540000000  0.4640750000000 1.0
C      1  0.4811920000000  0.4418080000000  0.4723290000000 1.0
C      1  0.5157090000000  0.5048690000000  0.4359130000000 1.0
C      1  0.5157100000000  0.5536590000000  0.5368950000000 1.0
C      1  0.5157100000000  0.4418120000000  0.5286570000000 1.0
C      1  0.4452820000000  0.5212880000000  0.4915260000000 1.0
C      1  0.4452810000000  0.4817640000000  0.4866330000000 1.0
C      1  0.4452820000000  0.4972890000000  0.5233090000000 1.0
C      1  0.5516210000000  0.5212890000000  0.5094480000000 1.0
C      1  0.5516210000000  0.4817660000000  0.5143470000000 1.0
C      1  0.5516200000000  0.4972850000000  0.4776690000000 1.0
C      1  0.4626170000000  0.5590220000000  0.5207560000000 1.0
C      1  0.4626160000000  0.4882110000000  0.4393390000000 1.0
C      1  0.4626170000000  0.4531070000000  0.5413720000000 1.0
C      1  0.5342850000000  0.5590190000000  0.4802130000000 1.0
C      1  0.5342860000000  0.4882200000000  0.5616400000000 1.0
C      1  0.5342850000000  0.4531010000000  0.4596120000000 1.0
C      1  0.5199720000000  0.5165570000000  0.5214370000000 1.0
C      1  0.5199710000000  0.5100340000000  0.4757730000000 1.0
C      1  0.5199720000000  0.4737490000000  0.5042550000000 1.0
C      1  0.4769310000000  0.5165540000000  0.4795380000000 1.0
C      1  0.4769310000000  0.5100380000000  0.5252030000000 1.0
C      1  0.4769310000000  0.4737490000000  0.4967260000000 1.0
C      1  0.4544050000000  0.5162550000000  0.5499910000000 1.0
C      1  0.4544040000000  0.5349130000000  0.4617600000000 1.0
C      1  0.4544040000000  0.4491730000000  0.4897170000000 1.0
C      1  0.5424980000000  0.5162470000000  0.4509840000000 1.0
C      1  0.5424990000000  0.5349190000000  0.5392130000000 1.0
C      1  0.5424980000000  0.4491740000000  0.5112680000000 1.0
C      1  0.5142060000000  0.5643730000000  0.5071960000000 1.0
C      1  0.5142050000000  0.4737920000000  0.4414840000000 1.0
C      1  0.5142060000000  0.4621750000000  0.5527850000000 1.0
C      1  0.4826970000000  0.5643720000000  0.4937720000000 1.0
C      1  0.4826970000000  0.4738010000000  0.5594970000000 1.0
C      1  0.4826960000000  0.4621670000000  0.4481980000000 1.0
C      1  0.4984510000000  0.4329850000000  0.5004940000000 1.0
C      1  0.4984520000000  0.5336820000000  0.5586210000000 1.0
C      1  0.4984500000000  0.5336740000000  0.4423510000000 1.0
C      1  0.4984510000000  0.5001130000000  0.5004890000000 1.0
END
