TITL C-2782233-7966-1292 -2.63942253308325e-07 125000 -72.3600823450059 0 0 17 (Td) n - 1
REM
REM in /home/nfs/bkarasulu/CARBON/AIRSS/Generating-Clusters/REBO/Higher-Symm/SD-CG/HFTN-CG
REM
REM
REM
REM
REM
REM ./C.cell (12c818d87b63d06a65506943cc24bca4)
REM
REM compiler GCC version 9.2.1 20190827 (Red Hat 9.2.1-1)
REM options -cpp -mtune=generic -march=x86-64 -g -O0 -fpre-include=/usr/include/finclude/math-vector-fortran.h
REM seed 2030072744 -2059300441 -195988671 -1820795402 -2103167253 -275706667 1946854632 -990952478 -563800821 -1106896980 -576629716 1189157554 1724846245 2032955171 1114440653 1301582012 1809574069 -621766226 -155045750 651830493 203523264 879587507 -1480615931 -1683964524 1106019415 -421891709 2474376 1141055186 1751987441 524301645 -770283779 -1748147310 1581458877
REM
CELL 1.54180   50.00000   50.00000   50.00000   90.00000   90.00000   90.00000
LATT -1
SFAC C  
C      1  0.4992590000000  0.5338960000000  0.4654090000000 1.0
C      1  0.4992590000000  0.4654910000000  0.5338140000000 1.0
C      1  0.5344410000000  0.4987130000000  0.4654090000000 1.0
C      1  0.4660360000000  0.4987130000000  0.5338140000000 1.0
C      1  0.5344410000000  0.4654910000000  0.4986310000000 1.0
C      1  0.4660360000000  0.5006740000000  0.4654090000000 1.0
C      1  0.5344410000000  0.5006740000000  0.5338140000000 1.0
C      1  0.4660360000000  0.5338960000000  0.4986310000000 1.0
C      1  0.5012190000000  0.5338960000000  0.5338140000000 1.0
C      1  0.5012190000000  0.4654910000000  0.4654090000000 1.0
C      1  0.5344410000000  0.5338960000000  0.5005920000000 1.0
C      1  0.4660360000000  0.4654910000000  0.5005920000000 1.0
C      1  0.4823470000000  0.4818020000000  0.5175030000000 1.0
C      1  0.5181310000000  0.4818020000000  0.4817200000000 1.0
C      1  0.4823470000000  0.5175850000000  0.4817200000000 1.0
C      1  0.5181310000000  0.5175850000000  0.5175030000000 1.0
C      1  0.5002390000000  0.4996930000000  0.4996120000000 1.0
END
