TITL C-2782228-2999-671 -0.00588380142421394 125000 -1174.68971704016 0 0 200 (C1) n - 1
REM
REM in /home/nfs/bkarasulu/CARBON/AIRSS/Generating-Clusters/REBO/Higher-Symm/SD-CG/HFTN-CG
REM
REM
REM
REM
REM
REM ./C.cell (12c818d87b63d06a65506943cc24bca4)
REM
REM compiler GCC version 9.2.1 20190827 (Red Hat 9.2.1-1)
REM options -cpp -mtune=generic -march=x86-64 -g -O0 -fpre-include=/usr/include/finclude/math-vector-fortran.h
REM seed -470808518 855729057 -1705901019 1552323005 -1018519660 -1775429830 1824663627 1457665924 1380268936 1696706499 -1491680646 -1852537894 1324707224 238160189 -516686692 -1283692873 1277235659 -1901307448 -494441850 1849788687 -24971120 325210730 -593300894 -87637083 1151181380 -629027443 1145638906 761331297 -139550466 1408732583 -221847233 -419387760 2021234280
REM
CELL 1.54180   50.00000   50.00000   50.00000   90.00000   90.00000   90.00000
LATT -1
SFAC C  
C      1  0.6073480000000  0.5527490000000  0.4813400000000 1.0
C      1  0.4094650000000  0.5617400000000  0.4870050000000 1.0
C      1  0.4901310000000  0.3828880000000  0.4845850000000 1.0
C      1  0.6080940000000  0.5485060000000  0.5098060000000 1.0
C      1  0.4051420000000  0.5596850000000  0.5162100000000 1.0
C      1  0.4890030000000  0.3857420000000  0.5135690000000 1.0
C      1  0.5320730000000  0.4230560000000  0.5063240000000 1.0
C      1  0.5401530000000  0.5592250000000  0.5142090000000 1.0
C      1  0.4108260000000  0.5083160000000  0.5136660000000 1.0
C      1  0.5292470000000  0.4238480000000  0.4745180000000 1.0
C      1  0.5401470000000  0.5643190000000  0.4805960000000 1.0
C      1  0.4239250000000  0.5095380000000  0.4869100000000 1.0
C      1  0.4430100000000  0.4403350000000  0.6009040000000 1.0
C      1  0.5775760000000  0.4828690000000  0.5932940000000 1.0
C      1  0.4787340000000  0.5763750000000  0.5991600000000 1.0
C      1  0.4756220000000  0.4526710000000  0.3978140000000 1.0
C      1  0.5482450000000  0.4967770000000  0.3926090000000 1.0
C      1  0.4821180000000  0.5396580000000  0.4020430000000 1.0
C      1  0.5170610000000  0.4865830000000  0.3831990000000 1.0
C      1  0.4956020000000  0.5131560000000  0.3853410000000 1.0
C      1  0.4833330000000  0.4814970000000  0.3879860000000 1.0
C      1  0.5615580000000  0.4719300000000  0.6133380000000 1.0
C      1  0.4992970000000  0.5657760000000  0.6141930000000 1.0
C      1  0.4402420000000  0.4628200000000  0.6165640000000 1.0
C      1  0.4424620000000  0.4032300000000  0.4795720000000 1.0
C      1  0.6111140000000  0.5018410000000  0.4708300000000 1.0
C      1  0.4453720000000  0.5935040000000  0.4939140000000 1.0
C      1  0.4442440000000  0.4034240000000  0.5112480000000 1.0
C      1  0.6121650000000  0.5012970000000  0.5030980000000 1.0
C      1  0.4429120000000  0.5931050000000  0.5258370000000 1.0
C      1  0.5673600000000  0.4149310000000  0.4819450000000 1.0
C      1  0.5407020000000  0.5978600000000  0.4773740000000 1.0
C      1  0.3922210000000  0.4910940000000  0.4828450000000 1.0
C      1  0.5655570000000  0.4219420000000  0.5137210000000 1.0
C      1  0.5419070000000  0.5924780000000  0.5089240000000 1.0
C      1  0.3863400000000  0.4871860000000  0.5145450000000 1.0
C      1  0.5039120000000  0.5929850000000  0.4312130000000 1.0
C      1  0.4274450000000  0.4548970000000  0.4427760000000 1.0
C      1  0.5794300000000  0.4563780000000  0.4345880000000 1.0
C      1  0.4993930000000  0.5971490000000  0.5565380000000 1.0
C      1  0.4127260000000  0.4536700000000  0.5600110000000 1.0
C      1  0.5774150000000  0.4477730000000  0.5591310000000 1.0
C      1  0.4307010000000  0.4574790000000  0.5167080000000 1.0
C      1  0.5674200000000  0.4710080000000  0.5096070000000 1.0
C      1  0.4935060000000  0.5783630000000  0.5115890000000 1.0
C      1  0.4330060000000  0.4602770000000  0.4848880000000 1.0
C      1  0.5635330000000  0.4641570000000  0.4789230000000 1.0
C      1  0.4958810000000  0.5750980000000  0.4812170000000 1.0
C      1  0.5624930000000  0.5358510000000  0.5205370000000 1.0
C      1  0.4346760000000  0.5316200000000  0.5183060000000 1.0
C      1  0.5011430000000  0.4286030000000  0.5166460000000 1.0
C      1  0.5579310000000  0.5362350000000  0.4868150000000 1.0
C      1  0.4421670000000  0.5372050000000  0.4854980000000 1.0
C      1  0.4979670000000  0.4220580000000  0.4831230000000 1.0
C      1  0.5940660000000  0.4643690000000  0.5807260000000 1.0
C      1  0.4849160000000  0.5995080000000  0.5854760000000 1.0
C      1  0.4205180000000  0.4328530000000  0.5842210000000 1.0
C      1  0.5718540000000  0.4797780000000  0.4109520000000 1.0
C      1  0.4950490000000  0.5681270000000  0.4162630000000 1.0
C      1  0.4478210000000  0.4494320000000  0.4176780000000 1.0
C      1  0.5173720000000  0.4148590000000  0.5433630000000 1.0
C      1  0.5709760000000  0.5600480000000  0.5396860000000 1.0
C      1  0.4148860000000  0.5333340000000  0.5445920000000 1.0
C      1  0.5005960000000  0.4071830000000  0.4525060000000 1.0
C      1  0.5726770000000  0.5505510000000  0.4620240000000 1.0
C      1  0.4233310000000  0.5374730000000  0.4584780000000 1.0
C      1  0.5198540000000  0.5487090000000  0.4111700000000 1.0
C      1  0.4559790000000  0.4790150000000  0.4202760000000 1.0
C      1  0.5449680000000  0.4654770000000  0.4166990000000 1.0
C      1  0.4954650000000  0.5464040000000  0.5790280000000 1.0
C      1  0.4579480000000  0.4719990000000  0.5819370000000 1.0
C      1  0.5397720000000  0.4798340000000  0.5809850000000 1.0
C      1  0.3810840000000  0.5174820000000  0.4727870000000 1.0
C      1  0.5456740000000  0.3940530000000  0.4747990000000 1.0
C      1  0.5731410000000  0.5993730000000  0.4723220000000 1.0
C      1  0.3729560000000  0.5152920000000  0.5244540000000 1.0
C      1  0.5450260000000  0.4010340000000  0.5290330000000 1.0
C      1  0.5698360000000  0.5883300000000  0.5225040000000 1.0
C      1  0.4342510000000  0.5639930000000  0.4217390000000 1.0
C      1  0.4826660000000  0.3957700000000  0.4271430000000 1.0
C      1  0.5888700000000  0.5405160000000  0.4340930000000 1.0
C      1  0.4243790000000  0.5589660000000  0.5843950000000 1.0
C      1  0.4857610000000  0.4050800000000  0.5777720000000 1.0
C      1  0.5870520000000  0.5326310000000  0.5728600000000 1.0
C      1  0.5353380000000  0.4542300000000  0.6031830000000 1.0
C      1  0.5235160000000  0.5516710000000  0.5983570000000 1.0
C      1  0.4400470000000  0.4923270000000  0.6029120000000 1.0
C      1  0.5273490000000  0.4545430000000  0.3897860000000 1.0
C      1  0.5171490000000  0.5373450000000  0.3833680000000 1.0
C      1  0.4554380000000  0.5006590000000  0.3943290000000 1.0
C      1  0.5364900000000  0.4802020000000  0.4777390000000 1.0
C      1  0.4945820000000  0.5477470000000  0.4718180000000 1.0
C      1  0.4613870000000  0.4684490000000  0.4777010000000 1.0
C      1  0.5457900000000  0.4854920000000  0.5233270000000 1.0
C      1  0.4859480000000  0.5521330000000  0.5230980000000 1.0
C      1  0.4572220000000  0.4663650000000  0.5280440000000 1.0
C      1  0.4257420000000  0.4259190000000  0.5232850000000 1.0
C      1  0.6013790000000  0.4737880000000  0.5124120000000 1.0
C      1  0.4744950000000  0.6029350000000  0.5189920000000 1.0
C      1  0.4235920000000  0.4292580000000  0.4895790000000 1.0
C      1  0.5939480000000  0.4744810000000  0.4801470000000 1.0
C      1  0.4748510000000  0.6017230000000  0.4851480000000 1.0
C      1  0.5973220000000  0.5704070000000  0.5244920000000 1.0
C      1  0.3879000000000  0.5375470000000  0.5283820000000 1.0
C      1  0.5139470000000  0.3872770000000  0.5261230000000 1.0
C      1  0.5888070000000  0.5769200000000  0.4729900000000 1.0
C      1  0.3950250000000  0.5406590000000  0.4701620000000 1.0
C      1  0.5171030000000  0.3859540000000  0.4712830000000 1.0
C      1  0.5114090000000  0.4130700000000  0.5730230000000 1.0
C      1  0.5691590000000  0.5533360000000  0.5684400000000 1.0
C      1  0.4152410000000  0.5339700000000  0.5769510000000 1.0
C      1  0.5091410000000  0.4131600000000  0.4196890000000 1.0
C      1  0.5781670000000  0.5711630000000  0.4349290000000 1.0
C      1  0.4274520000000  0.5372440000000  0.4266020000000 1.0
C      1  0.5348610000000  0.5848790000000  0.4343680000000 1.0
C      1  0.4231180000000  0.4886510000000  0.4400470000000 1.0
C      1  0.5568520000000  0.4309430000000  0.4314480000000 1.0
C      1  0.5281980000000  0.5795050000000  0.5576630000000 1.0
C      1  0.4142510000000  0.4869440000000  0.5606650000000 1.0
C      1  0.5515400000000  0.4390410000000  0.5699880000000 1.0
C      1  0.5315550000000  0.4247490000000  0.5894170000000 1.0
C      1  0.5449350000000  0.5638220000000  0.5798610000000 1.0
C      1  0.4172830000000  0.5062730000000  0.5867240000000 1.0
C      1  0.5311530000000  0.4285360000000  0.4115300000000 1.0
C      1  0.5604880000000  0.5898170000000  0.4270510000000 1.0
C      1  0.4311200000000  0.5104260000000  0.4161060000000 1.0
C      1  0.4661750000000  0.5267080000000  0.5155260000000 1.0
C      1  0.4875590000000  0.4569210000000  0.5206880000000 1.0
C      1  0.5382730000000  0.5150830000000  0.5149840000000 1.0
C      1  0.4716320000000  0.5288810000000  0.4820800000000 1.0
C      1  0.4862870000000  0.4515940000000  0.4875230000000 1.0
C      1  0.5397110000000  0.5100140000000  0.4825280000000 1.0
C      1  0.4695480000000  0.5020980000000  0.5908450000000 1.0
C      1  0.5101530000000  0.4727160000000  0.5926230000000 1.0
C      1  0.5155810000000  0.5218610000000  0.5876640000000 1.0
C      1  0.4767780000000  0.5045190000000  0.4199310000000 1.0
C      1  0.5122680000000  0.4663120000000  0.4170910000000 1.0
C      1  0.5259840000000  0.5167130000000  0.4163820000000 1.0
C      1  0.4995290000000  0.5114580000000  0.4564260000000 1.0
C      1  0.4930290000000  0.4805640000000  0.4488690000000 1.0
C      1  0.5350270000000  0.5030110000000  0.4453100000000 1.0
C      1  0.4883250000000  0.5213390000000  0.5482450000000 1.0
C      1  0.4853280000000  0.4817380000000  0.5518150000000 1.0
C      1  0.5126590000000  0.4996930000000  0.5488180000000 1.0
C      1  0.4749780000000  0.4948140000000  0.5217450000000 1.0
C      1  0.5131010000000  0.4783020000000  0.5235610000000 1.0
C      1  0.5059050000000  0.5247830000000  0.5186900000000 1.0
C      1  0.4728030000000  0.4971080000000  0.4897100000000 1.0
C      1  0.5124710000000  0.4701170000000  0.4926140000000 1.0
C      1  0.5103840000000  0.5216800000000  0.4871350000000 1.0
C      1  0.4437460000000  0.5740830000000  0.5613000000000 1.0
C      1  0.4622190000000  0.4143500000000  0.5568900000000 1.0
C      1  0.5894640000000  0.5085970000000  0.5488160000000 1.0
C      1  0.4518890000000  0.5762450000000  0.4473950000000 1.0
C      1  0.4598080000000  0.4128680000000  0.4450490000000 1.0
C      1  0.5943040000000  0.5084560000000  0.4354370000000 1.0
C      1  0.4709350000000  0.5526890000000  0.4319190000000 1.0
C      1  0.4764230000000  0.4348420000000  0.4270840000000 1.0
C      1  0.5657210000000  0.5124510000000  0.4176530000000 1.0
C      1  0.4635080000000  0.5540130000000  0.5798880000000 1.0
C      1  0.4676200000000  0.4404790000000  0.5782920000000 1.0
C      1  0.5629450000000  0.5015210000000  0.5692180000000 1.0
C      1  0.4613250000000  0.4854800000000  0.4513920000000 1.0
C      1  0.5374740000000  0.4711800000000  0.4475800000000 1.0
C      1  0.5084210000000  0.5412270000000  0.4425820000000 1.0
C      1  0.4533970000000  0.4848230000000  0.5536460000000 1.0
C      1  0.5421540000000  0.4728750000000  0.5503550000000 1.0
C      1  0.5028060000000  0.5499360000000  0.5495070000000 1.0
C      1  0.5682570000000  0.4385990000000  0.4620810000000 1.0
C      1  0.5115690000000  0.5974430000000  0.4641000000000 1.0
C      1  0.4116120000000  0.4740930000000  0.4666720000000 1.0
C      1  0.5773430000000  0.4457460000000  0.5269040000000 1.0
C      1  0.5172930000000  0.5911640000000  0.5281110000000 1.0
C      1  0.4063690000000  0.4712880000000  0.5320990000000 1.0
C      1  0.5471790000000  0.5335810000000  0.4364390000000 1.0
C      1  0.4708040000000  0.5238450000000  0.4425710000000 1.0
C      1  0.5004220000000  0.4490590000000  0.4400530000000 1.0
C      1  0.5357860000000  0.5179050000000  0.5613730000000 1.0
C      1  0.4646250000000  0.5223150000000  0.5676250000000 1.0
C      1  0.4933960000000  0.4580430000000  0.5697840000000 1.0
C      1  0.4668720000000  0.3983050000000  0.5275540000000 1.0
C      1  0.6049180000000  0.5219640000000  0.5215060000000 1.0
C      1  0.4232620000000  0.5711260000000  0.5342770000000 1.0
C      1  0.4683270000000  0.3900020000000  0.4686030000000 1.0
C      1  0.6071430000000  0.5304300000000  0.4598580000000 1.0
C      1  0.4324160000000  0.5761660000000  0.4752760000000 1.0
C      1  0.5301520000000  0.4392990000000  0.4499550000000 1.0
C      1  0.5346670000000  0.5589020000000  0.4503470000000 1.0
C      1  0.4430650000000  0.5126620000000  0.4540750000000 1.0
C      1  0.5227290000000  0.4502700000000  0.5602320000000 1.0
C      1  0.5334590000000  0.5477920000000  0.5451390000000 1.0
C      1  0.4371760000000  0.5112470000000  0.5526370000000 1.0
C      1  0.4659560000000  0.5970260000000  0.5506370000000 1.0
C      1  0.4309560000000  0.4254510000000  0.5537090000000 1.0
C      1  0.5893360000000  0.4751190000000  0.5425970000000 1.0
C      1  0.4784030000000  0.5968410000000  0.4528030000000 1.0
C      1  0.4337420000000  0.4280080000000  0.4573160000000 1.0
C      1  0.5980400000000  0.4794710000000  0.4478160000000 1.0
C      1  0.5049420000000  0.4957320000000  0.4200870000000 1.0
C      1  0.4985220000000  0.4996510000000  0.5979770000000 1.0
END
