TITL C-2782236-320-851 -0.000728752028260797 125000 -65.7287739204524 0 0 13 (Cs) n - 1
REM
REM in /home/nfs/bkarasulu/CARBON/AIRSS/Generating-Clusters/REBO/Higher-Symm/SD-CG/HFTN-CG
REM
REM
REM
REM
REM
REM ./C.cell (12c818d87b63d06a65506943cc24bca4)
REM
REM compiler GCC version 9.2.1 20190827 (Red Hat 9.2.1-1)
REM options -cpp -mtune=generic -march=x86-64 -g -O0 -fpre-include=/usr/include/finclude/math-vector-fortran.h
REM seed 783243066 -1583703655 -1053978208 -501646823 1696298771 179492724 117448923 235667536 1137930752 -1763312487 1417599338 717788616 -706382719 -696205579 117423452 1075565771 -154232334 -1656702471 -963955604 1398283348 -1745642029 589332372 -188328660 2117432537 -1152577913 -538226189 -1297533422 799747378 1426558163 819700710 1912068545 -1662455562 -1600208682
REM
CELL 1.54180   50.00000   50.00000   50.00000   90.00000   90.00000   90.00000
LATT -1
SFAC C  
C      1  0.4940740000000  0.5095810000000  0.4631470000000 1.0
C      1  0.4652530000000  0.4865290000000  0.5076600000000 1.0
C      1  0.5100600000000  0.4642420000000  0.4899850000000 1.0
C      1  0.4889640000000  0.4872400000000  0.5329130000000 1.0
C      1  0.5111170000000  0.4871950000000  0.4660880000000 1.0
C      1  0.5103950000000  0.5136450000000  0.5300250000000 1.0
C      1  0.4687480000000  0.5123950000000  0.4856710000000 1.0
C      1  0.5345460000000  0.5107960000000  0.5062510000000 1.0
C      1  0.5333210000000  0.4878620000000  0.4897350000000 1.0
C      1  0.5138360000000  0.5360490000000  0.5040530000000 1.0
C      1  0.4942450000000  0.5354610000000  0.4831890000000 1.0
C      1  0.4893370000000  0.4622260000000  0.5094990000000 1.0
C      1  0.4961790000000  0.5005220000000  0.5019960000000 1.0
END
