TITL C-2782234-8014-642 -0.00135522149396604 125000 -674.231958427737 0 0 117 (C1) n - 1
REM
REM in /home/nfs/bkarasulu/CARBON/AIRSS/Generating-Clusters/REBO/Higher-Symm/SD-CG/HFTN-CG
REM
REM
REM
REM
REM
REM ./C.cell (12c818d87b63d06a65506943cc24bca4)
REM
REM compiler GCC version 9.2.1 20190827 (Red Hat 9.2.1-1)
REM options -cpp -mtune=generic -march=x86-64 -g -O0 -fpre-include=/usr/include/finclude/math-vector-fortran.h
REM seed -2141831248 669495750 265954248 1037061042 -1024824714 -132847393 982284521 -520025048 1787912233 538024171 1857226051 470460166 1521639323 -2031494275 -1819371883 1357099361 -1387327312 1647281440 -7484852 -1519831083 979838393 236839510 -1432922574 1775746791 1586945095 1007078665 1193891123 -1023193425 -1309740335 352748629 -28727869 -423402009 -27394189
REM
CELL 1.54180   50.00000   50.00000   50.00000   90.00000   90.00000   90.00000
LATT -1
SFAC C  
C      1  0.4309680000000  0.5279760000000  0.4686950000000 1.0
C      1  0.5675090000000  0.5479330000000  0.4567740000000 1.0
C      1  0.5033330000000  0.4299770000000  0.4586180000000 1.0
C      1  0.4793950000000  0.4249560000000  0.4797900000000 1.0
C      1  0.4510020000000  0.5450940000000  0.4861230000000 1.0
C      1  0.5827540000000  0.5222670000000  0.4696800000000 1.0
C      1  0.4288270000000  0.4440470000000  0.4984690000000 1.0
C      1  0.4993490000000  0.5808090000000  0.5002740000000 1.0
C      1  0.5662400000000  0.4705490000000  0.5044830000000 1.0
C      1  0.5823350000000  0.5610990000000  0.5167800000000 1.0
C      1  0.5160370000000  0.4267400000000  0.5184420000000 1.0
C      1  0.4204860000000  0.5360540000000  0.5264330000000 1.0
C      1  0.5439240000000  0.4440070000000  0.5241600000000 1.0
C      1  0.4466860000000  0.4786610000000  0.5132110000000 1.0
C      1  0.5219820000000  0.5494360000000  0.5230670000000 1.0
C      1  0.5290830000000  0.4701260000000  0.5922380000000 1.0
C      1  0.4620980000000  0.4852600000000  0.5729320000000 1.0
C      1  0.5008370000000  0.5321820000000  0.5781650000000 1.0
C      1  0.4853220000000  0.5041660000000  0.4973730000000 1.0
C      1  0.5152910000000  0.5175600000000  0.4999270000000 1.0
C      1  0.5121900000000  0.4857860000000  0.4970400000000 1.0
C      1  0.5680580000000  0.4365230000000  0.5024270000000 1.0
C      1  0.4096380000000  0.4702820000000  0.5007210000000 1.0
C      1  0.5268900000000  0.5942680000000  0.4962840000000 1.0
C      1  0.4843960000000  0.5387350000000  0.4222250000000 1.0
C      1  0.5503130000000  0.4897060000000  0.4216770000000 1.0
C      1  0.4595700000000  0.4587820000000  0.4207000000000 1.0
C      1  0.5952060000000  0.5388950000000  0.4959140000000 1.0
C      1  0.4912610000000  0.4087840000000  0.5068510000000 1.0
C      1  0.4264860000000  0.5576770000000  0.5042840000000 1.0
C      1  0.5492380000000  0.4784250000000  0.4780710000000 1.0
C      1  0.4408170000000  0.4612960000000  0.4742680000000 1.0
C      1  0.4972890000000  0.5496020000000  0.4816770000000 1.0
C      1  0.5511220000000  0.4167120000000  0.4880730000000 1.0
C      1  0.4052060000000  0.4947660000000  0.4993650000000 1.0
C      1  0.5501440000000  0.5878080000000  0.4890270000000 1.0
C      1  0.5728170000000  0.5199910000000  0.5556100000000 1.0
C      1  0.4661640000000  0.4353150000000  0.5572400000000 1.0
C      1  0.4506590000000  0.5731480000000  0.5599350000000 1.0
C      1  0.5528710000000  0.5090070000000  0.5721980000000 1.0
C      1  0.4845010000000  0.4620240000000  0.5493910000000 1.0
C      1  0.4533580000000  0.5450790000000  0.5635790000000 1.0
C      1  0.4798210000000  0.5324930000000  0.4614660000000 1.0
C      1  0.5482930000000  0.4998910000000  0.4548810000000 1.0
C      1  0.4637210000000  0.4520850000000  0.4540800000000 1.0
C      1  0.4149270000000  0.5234460000000  0.4965660000000 1.0
C      1  0.5720580000000  0.5646780000000  0.4845180000000 1.0
C      1  0.5176970000000  0.4157710000000  0.4860220000000 1.0
C      1  0.5297020000000  0.5277390000000  0.4732540000000 1.0
C      1  0.5106140000000  0.4666710000000  0.4727890000000 1.0
C      1  0.4684800000000  0.5071530000000  0.4720480000000 1.0
C      1  0.5329860000000  0.4519990000000  0.4928180000000 1.0
C      1  0.4418180000000  0.4925920000000  0.4835480000000 1.0
C      1  0.5284310000000  0.5545640000000  0.4929430000000 1.0
C      1  0.5161930000000  0.5711850000000  0.4654690000000 1.0
C      1  0.5512080000000  0.4483740000000  0.4640090000000 1.0
C      1  0.4203910000000  0.4816170000000  0.4593720000000 1.0
C      1  0.4477140000000  0.4224480000000  0.4801910000000 1.0
C      1  0.4695870000000  0.5802520000000  0.4894200000000 1.0
C      1  0.5876520000000  0.4888610000000  0.4910430000000 1.0
C      1  0.5121660000000  0.5707010000000  0.5456710000000 1.0
C      1  0.5582420000000  0.4558000000000  0.5482860000000 1.0
C      1  0.4282910000000  0.4695440000000  0.5366620000000 1.0
C      1  0.4906370000000  0.5883770000000  0.5385040000000 1.0
C      1  0.5782820000000  0.4753800000000  0.5421890000000 1.0
C      1  0.4236700000000  0.4413780000000  0.5379020000000 1.0
C      1  0.4618250000000  0.4494870000000  0.5060320000000 1.0
C      1  0.4888700000000  0.5538720000000  0.5185410000000 1.0
C      1  0.5406480000000  0.4905880000000  0.5149440000000 1.0
C      1  0.4625270000000  0.5206540000000  0.4248110000000 1.0
C      1  0.5426590000000  0.5214630000000  0.4218190000000 1.0
C      1  0.4930560000000  0.4642590000000  0.4183670000000 1.0
C      1  0.4507530000000  0.5779360000000  0.5102790000000 1.0
C      1  0.5935690000000  0.5098580000000  0.5091800000000 1.0
C      1  0.4584500000000  0.4160150000000  0.5122420000000 1.0
C      1  0.4391220000000  0.5210960000000  0.4430920000000 1.0
C      1  0.5496090000000  0.5447390000000  0.4357710000000 1.0
C      1  0.5087290000000  0.4429130000000  0.4356020000000 1.0
C      1  0.5105280000000  0.5206710000000  0.4173650000000 1.0
C      1  0.5163000000000  0.4890830000000  0.4170080000000 1.0
C      1  0.4710520000000  0.4906630000000  0.4173650000000 1.0
C      1  0.4615000000000  0.5084620000000  0.5929640000000 1.0
C      1  0.5161000000000  0.5202870000000  0.6029010000000 1.0
C      1  0.5014420000000  0.4590850000000  0.5992480000000 1.0
C      1  0.4289540000000  0.4581120000000  0.4357510000000 1.0
C      1  0.4917490000000  0.5646650000000  0.4413720000000 1.0
C      1  0.5676750000000  0.4679910000000  0.4413200000000 1.0
C      1  0.4333350000000  0.4916230000000  0.4306030000000 1.0
C      1  0.5254380000000  0.5625380000000  0.4362040000000 1.0
C      1  0.5392120000000  0.4506380000000  0.4331120000000 1.0
C      1  0.4620820000000  0.5843720000000  0.5363120000000 1.0
C      1  0.5849650000000  0.5029910000000  0.5360820000000 1.0
C      1  0.4470760000000  0.4252200000000  0.5396360000000 1.0
C      1  0.4809900000000  0.4943680000000  0.5475620000000 1.0
C      1  0.5051570000000  0.5124680000000  0.5536220000000 1.0
C      1  0.5336660000000  0.4859860000000  0.5627390000000 1.0
C      1  0.5119170000000  0.5601400000000  0.5708490000000 1.0
C      1  0.5497280000000  0.4513320000000  0.5740810000000 1.0
C      1  0.4338990000000  0.4810020000000  0.5607780000000 1.0
C      1  0.4657550000000  0.5348130000000  0.5138670000000 1.0
C      1  0.5574400000000  0.5274410000000  0.4894860000000 1.0
C      1  0.4925870000000  0.4512050000000  0.4972230000000 1.0
C      1  0.5595270000000  0.5403120000000  0.5136490000000 1.0
C      1  0.5055120000000  0.4559450000000  0.5283370000000 1.0
C      1  0.4457360000000  0.5309380000000  0.5395990000000 1.0
C      1  0.4704030000000  0.5323520000000  0.5829190000000 1.0
C      1  0.5365430000000  0.5025070000000  0.5984860000000 1.0
C      1  0.4787200000000  0.4588430000000  0.5825100000000 1.0
C      1  0.5257510000000  0.4767350000000  0.5381450000000 1.0
C      1  0.4669870000000  0.5016880000000  0.5220850000000 1.0
C      1  0.5264030000000  0.5178690000000  0.5307810000000 1.0
C      1  0.5817620000000  0.4922830000000  0.4595670000000 1.0
C      1  0.4377250000000  0.4293460000000  0.4505400000000 1.0
C      1  0.4658140000000  0.5639090000000  0.4622100000000 1.0
C      1  0.4617260000000  0.4857980000000  0.4497080000000 1.0
C      1  0.5116110000000  0.5311160000000  0.4494390000000 1.0
C      1  0.5231850000000  0.4778140000000  0.4480530000000 1.0
END
