TITL C-2782238-9940-673 -1.97709867351727e-05 125000 -183.460422043647 0 0 33 (C3) n - 1
REM
REM in /home/nfs/bkarasulu/CARBON/AIRSS/Generating-Clusters/REBO/Higher-Symm/SD-CG/HFTN-CG
REM
REM
REM
REM
REM
REM ./C.cell (12c818d87b63d06a65506943cc24bca4)
REM
REM compiler GCC version 9.2.1 20190827 (Red Hat 9.2.1-1)
REM options -cpp -mtune=generic -march=x86-64 -g -O0 -fpre-include=/usr/include/finclude/math-vector-fortran.h
REM seed -817374121 288397811 607492732 2081413606 308400266 -1403628073 -349748452 -668854607 -1988292164 1970945432 -1070184142 956703022 -90800906 -1221329969 -1019591619 -353990653 1122409499 343666108 395010196 1877216898 -963092054 -528567931 -1221493997 1097258738 1941918069 531463981 1889151378 -117983214 957095592 -1674495860 508977747 2072233453 -1102840450
REM
CELL 1.54180   50.00000   50.00000   50.00000   90.00000   90.00000   90.00000
LATT -1
SFAC C  
C      1  0.4429790000000  0.5580580000000  0.5086850000000 1.0
C      1  0.4773050000000  0.4243780000000  0.5087520000000 1.0
C      1  0.5759120000000  0.5209460000000  0.5089420000000 1.0
C      1  0.4731200000000  0.4343830000000  0.5332390000000 1.0
C      1  0.5692690000000  0.5123590000000  0.5334240000000 1.0
C      1  0.4536650000000  0.5566390000000  0.5332010000000 1.0
C      1  0.5522860000000  0.5065660000000  0.5533500000000 1.0
C      1  0.4671160000000  0.5448610000000  0.5531860000000 1.0
C      1  0.4765360000000  0.4519540000000  0.5532040000000 1.0
C      1  0.4466670000000  0.5279640000000  0.4716700000000 1.0
C      1  0.5016300000000  0.4425570000000  0.4717770000000 1.0
C      1  0.5481130000000  0.5328600000000  0.4718660000000 1.0
C      1  0.5935780000000  0.5480260000000  0.4734450000000 1.0
C      1  0.4107960000000  0.5597570000000  0.4730920000000 1.0
C      1  0.4920270000000  0.3955970000000  0.4732490000000 1.0
C      1  0.4434590000000  0.5015570000000  0.4535710000000 1.0
C      1  0.5261550000000  0.4529520000000  0.4537310000000 1.0
C      1  0.5269010000000  0.5488710000000  0.4537320000000 1.0
C      1  0.5187950000000  0.5205050000000  0.4666780000000 1.0
C      1  0.4720410000000  0.5087430000000  0.4665880000000 1.0
C      1  0.5056040000000  0.4741330000000  0.4666530000000 1.0
C      1  0.4897020000000  0.4205800000000  0.4838740000000 1.0
C      1  0.5730750000000  0.5335380000000  0.4840350000000 1.0
C      1  0.4335640000000  0.5492620000000  0.4837660000000 1.0
C      1  0.5206740000000  0.5698840000000  0.4390200000000 1.0
C      1  0.4284180000000  0.4856340000000  0.4388430000000 1.0
C      1  0.5475090000000  0.4478630000000  0.4390730000000 1.0
C      1  0.5281950000000  0.5032460000000  0.5628970000000 1.0
C      1  0.4820090000000  0.5256730000000  0.5628080000000 1.0
C      1  0.4856800000000  0.4744620000000  0.5628160000000 1.0
C      1  0.4988120000000  0.5011270000000  0.4673870000000 1.0
C      1  0.4986600000000  0.5011270000000  0.5460890000000 1.0
C      1  0.4985950000000  0.5011270000000  0.5798600000000 1.0
END
