TITL C-2782238-9940-290 -2.81491642450881e-05 125000 -363.430441472253 0 0 64 (C1) n - 1
REM
REM in /home/nfs/bkarasulu/CARBON/AIRSS/Generating-Clusters/REBO/Higher-Symm/SD-CG/HFTN-CG
REM
REM
REM
REM
REM
REM ./C.cell (12c818d87b63d06a65506943cc24bca4)
REM
REM compiler GCC version 9.2.1 20190827 (Red Hat 9.2.1-1)
REM options -cpp -mtune=generic -march=x86-64 -g -O0 -fpre-include=/usr/include/finclude/math-vector-fortran.h
REM seed 508573536 1999020653 945344031 -1773998752 -1351748187 567597516 1697329190 1292066243 -677895911 2047618599 -1603049168 949766594 1025684467 1650760884 -944715774 -1041834918 -298883912 -1080120428 -1234530435 -839443956 1043514096 -234381696 -1180555665 -1316499381 1928783449 -444797383 1849087616 -166134237 1131605239 1183776628 1860889147 405930573 -198937815
REM
CELL 1.54180   50.00000   50.00000   50.00000   90.00000   90.00000   90.00000
LATT -1
SFAC C  
C      1  0.5215050000000  0.4984270000000  0.5811740000000 1.0
C      1  0.5255590000000  0.5633740000000  0.5297660000000 1.0
C      1  0.5703400000000  0.5349240000000  0.5004700000000 1.0
C      1  0.5316940000000  0.4978610000000  0.4190060000000 1.0
C      1  0.4622930000000  0.5026980000000  0.4238840000000 1.0
C      1  0.4624930000000  0.4832770000000  0.5663690000000 1.0
C      1  0.5235760000000  0.4360620000000  0.4697690000000 1.0
C      1  0.4962390000000  0.5736290000000  0.4770740000000 1.0
C      1  0.4958740000000  0.4183650000000  0.5314880000000 1.0
C      1  0.5660250000000  0.4721640000000  0.4900520000000 1.0
C      1  0.4223390000000  0.5363640000000  0.4947350000000 1.0
C      1  0.4309250000000  0.4709280000000  0.5179610000000 1.0
C      1  0.5435360000000  0.5644520000000  0.5003760000000 1.0
C      1  0.4992460000000  0.5217260000000  0.5760200000000 1.0
C      1  0.5644550000000  0.5161620000000  0.5291080000000 1.0
C      1  0.5373960000000  0.4306110000000  0.5067760000000 1.0
C      1  0.4862670000000  0.4223070000000  0.5007900000000 1.0
C      1  0.4795210000000  0.5780820000000  0.5053190000000 1.0
C      1  0.5061470000000  0.4786050000000  0.4234700000000 1.0
C      1  0.4871400000000  0.4616950000000  0.5758340000000 1.0
C      1  0.4915500000000  0.5297780000000  0.4217170000000 1.0
C      1  0.5742510000000  0.4962500000000  0.4676400000000 1.0
C      1  0.4274740000000  0.5069500000000  0.5347380000000 1.0
C      1  0.4236910000000  0.5064080000000  0.4830020000000 1.0
C      1  0.5012380000000  0.4592310000000  0.4734760000000 1.0
C      1  0.4573320000000  0.4735490000000  0.4992180000000 1.0
C      1  0.4710930000000  0.4984970000000  0.4544650000000 1.0
C      1  0.4990830000000  0.5440130000000  0.5243410000000 1.0
C      1  0.4965980000000  0.4514160000000  0.5258380000000 1.0
C      1  0.4977500000000  0.5416310000000  0.4708740000000 1.0
C      1  0.4547120000000  0.5270320000000  0.4971260000000 1.0
C      1  0.5363420000000  0.4811610000000  0.5019780000000 1.0
C      1  0.5394850000000  0.5206940000000  0.4985380000000 1.0
C      1  0.4762020000000  0.4991840000000  0.5395800000000 1.0
C      1  0.5152720000000  0.4985910000000  0.5477350000000 1.0
C      1  0.5237560000000  0.5010120000000  0.4512830000000 1.0
C      1  0.4976980000000  0.4804330000000  0.4543090000000 1.0
C      1  0.4544930000000  0.4984600000000  0.4783810000000 1.0
C      1  0.4790630000000  0.4542650000000  0.4969660000000 1.0
C      1  0.4939350000000  0.5246510000000  0.5449990000000 1.0
C      1  0.4970360000000  0.5202650000000  0.4512570000000 1.0
C      1  0.4948390000000  0.4719550000000  0.5461320000000 1.0
C      1  0.4559190000000  0.5019670000000  0.5180970000000 1.0
C      1  0.5422520000000  0.4997510000000  0.4739090000000 1.0
C      1  0.5359580000000  0.5010170000000  0.5265160000000 1.0
C      1  0.4778370000000  0.5451830000000  0.4979420000000 1.0
C      1  0.5176310000000  0.5424830000000  0.4966630000000 1.0
C      1  0.5183850000000  0.4576600000000  0.5028410000000 1.0
C      1  0.5022510000000  0.5871800000000  0.5246680000000 1.0
C      1  0.5202090000000  0.4070150000000  0.5147290000000 1.0
C      1  0.5177570000000  0.5837770000000  0.4964180000000 1.0
C      1  0.5816800000000  0.4974720000000  0.5064850000000 1.0
C      1  0.4824720000000  0.4987840000000  0.5884330000000 1.0
C      1  0.5106350000000  0.4129370000000  0.4830080000000 1.0
C      1  0.5905450000000  0.5183040000000  0.4820450000000 1.0
C      1  0.4103860000000  0.4875120000000  0.5043880000000 1.0
C      1  0.4067160000000  0.5192290000000  0.5165140000000 1.0
C      1  0.4829900000000  0.4906390000000  0.4067010000000 1.0
C      1  0.5083110000000  0.5122850000000  0.4025420000000 1.0
C      1  0.5054440000000  0.4758130000000  0.5965750000000 1.0
C      1  0.4379970000000  0.4798870000000  0.5468750000000 1.0
C      1  0.4610970000000  0.5326050000000  0.4166250000000 1.0
C      1  0.5505340000000  0.4455730000000  0.4823600000000 1.0
C      1  0.5564790000000  0.5492820000000  0.5280850000000 1.0
END
