TITL C-2782227-3064-26 0.00172555404367685 125000 -742.581696830447 0 0 131 (C1) n - 1
REM
REM in /home/nfs/bkarasulu/CARBON/AIRSS/Generating-Clusters/REBO/Higher-Symm/SD-CG/HFTN-CG
REM
REM
REM
REM
REM
REM ./C.cell (12c818d87b63d06a65506943cc24bca4)
REM
REM compiler GCC version 9.2.1 20190827 (Red Hat 9.2.1-1)
REM options -cpp -mtune=generic -march=x86-64 -g -O0 -fpre-include=/usr/include/finclude/math-vector-fortran.h
REM seed -144868850 916024523 629375752 1800029835 -716821712 -319672926 666409893 1801827675 410481247 945947497 -845006846 1063409015 -643737275 -772238603 -1325727342 -1882392930 -1516437567 52905855 -1251484559 -1782143914 -377657912 1376542385 -790178977 -1067388815 1828530820 -2088602921 1408563559 13708633 -396417327 -1946570329 239769354 -2003017088 374937858
REM
CELL 1.54180   50.00000   50.00000   50.00000   90.00000   90.00000   90.00000
LATT -1
SFAC C  
C      1  0.4888930000000  0.4823610000000  0.3961310000000 1.0
C      1  0.4874690000000  0.5163100000000  0.3948040000000 1.0
C      1  0.5176440000000  0.5006180000000  0.3953320000000 1.0
C      1  0.5347580000000  0.5064650000000  0.4604390000000 1.0
C      1  0.4875240000000  0.4699970000000  0.4622030000000 1.0
C      1  0.4784760000000  0.5294130000000  0.4614300000000 1.0
C      1  0.4773930000000  0.4554070000000  0.5056600000000 1.0
C      1  0.4658610000000  0.5376010000000  0.5110710000000 1.0
C      1  0.5515220000000  0.5070620000000  0.5094640000000 1.0
C      1  0.4952740000000  0.4820940000000  0.4358160000000 1.0
C      1  0.4854030000000  0.5144200000000  0.4360960000000 1.0
C      1  0.5181840000000  0.5069450000000  0.4353830000000 1.0
C      1  0.4813470000000  0.4366550000000  0.4586450000000 1.0
C      1  0.4523080000000  0.5503410000000  0.4555540000000 1.0
C      1  0.5669840000000  0.5152990000000  0.4542800000000 1.0
C      1  0.4966450000000  0.4741520000000  0.5227050000000 1.0
C      1  0.4807830000000  0.5164180000000  0.5281420000000 1.0
C      1  0.5248720000000  0.5137170000000  0.5250200000000 1.0
C      1  0.4523010000000  0.4450090000000  0.5263500000000 1.0
C      1  0.4707070000000  0.5662330000000  0.5288900000000 1.0
C      1  0.5720690000000  0.4889820000000  0.5298380000000 1.0
C      1  0.4002320000000  0.5387040000000  0.5166570000000 1.0
C      1  0.5892610000000  0.5615050000000  0.5142240000000 1.0
C      1  0.5175900000000  0.3961830000000  0.5178030000000 1.0
C      1  0.5012570000000  0.5549810000000  0.5049600000000 1.0
C      1  0.5440970000000  0.4666940000000  0.4950710000000 1.0
C      1  0.4494490000000  0.4825290000000  0.4966260000000 1.0
C      1  0.5892510000000  0.4653620000000  0.5225300000000 1.0
C      1  0.4225060000000  0.4424360000000  0.5234870000000 1.0
C      1  0.4888210000000  0.5897350000000  0.5246600000000 1.0
C      1  0.4974890000000  0.4565860000000  0.4131960000000 1.0
C      1  0.4615730000000  0.5223540000000  0.4129590000000 1.0
C      1  0.5369170000000  0.5212700000000  0.4108750000000 1.0
C      1  0.4957570000000  0.5318010000000  0.5884410000000 1.0
C      1  0.5231970000000  0.4896780000000  0.5754750000000 1.0
C      1  0.4746280000000  0.4840940000000  0.5764010000000 1.0
C      1  0.4556440000000  0.4269860000000  0.4723750000000 1.0
C      1  0.4556670000000  0.5766320000000  0.4710400000000 1.0
C      1  0.5872970000000  0.4970840000000  0.4693330000000 1.0
C      1  0.4727720000000  0.4780950000000  0.5435110000000 1.0
C      1  0.4929900000000  0.5257590000000  0.5536630000000 1.0
C      1  0.5323900000000  0.4887280000000  0.5432830000000 1.0
C      1  0.5017240000000  0.5306670000000  0.4853220000000 1.0
C      1  0.5227380000000  0.4876050000000  0.4826530000000 1.0
C      1  0.4769790000000  0.4914600000000  0.4823630000000 1.0
C      1  0.4360250000000  0.4475070000000  0.4532980000000 1.0
C      1  0.4848570000000  0.5785950000000  0.4526320000000 1.0
C      1  0.5762930000000  0.4724960000000  0.4482710000000 1.0
C      1  0.4164760000000  0.5048340000000  0.4544520000000 1.0
C      1  0.5451970000000  0.5681740000000  0.4542890000000 1.0
C      1  0.5385550000000  0.4264050000000  0.4568160000000 1.0
C      1  0.4071620000000  0.4567760000000  0.4792760000000 1.0
C      1  0.5155720000000  0.5806090000000  0.4779160000000 1.0
C      1  0.5870620000000  0.4368470000000  0.4821810000000 1.0
C      1  0.5459660000000  0.5508130000000  0.5520800000000 1.0
C      1  0.5174620000000  0.4406490000000  0.5469500000000 1.0
C      1  0.4371600000000  0.5157270000000  0.5479260000000 1.0
C      1  0.4424500000000  0.4853070000000  0.4633740000000 1.0
C      1  0.5150340000000  0.5530790000000  0.4574080000000 1.0
C      1  0.5414950000000  0.4592160000000  0.4617960000000 1.0
C      1  0.6079580000000  0.5341360000000  0.5170530000000 1.0
C      1  0.4859250000000  0.3946540000000  0.5153220000000 1.0
C      1  0.4119830000000  0.5702580000000  0.5180000000000 1.0
C      1  0.4826110000000  0.6139420000000  0.5333530000000 1.0
C      1  0.6167690000000  0.4687090000000  0.5250780000000 1.0
C      1  0.4098660000000  0.4202660000000  0.5343040000000 1.0
C      1  0.4384310000000  0.5712050000000  0.5396620000000 1.0
C      1  0.5917660000000  0.5153330000000  0.5405610000000 1.0
C      1  0.4684270000000  0.4158210000000  0.5356690000000 1.0
C      1  0.4692240000000  0.5399300000000  0.5955270000000 1.0
C      1  0.5422750000000  0.5040700000000  0.5909330000000 1.0
C      1  0.4794630000000  0.4597020000000  0.5900610000000 1.0
C      1  0.5174960000000  0.5858710000000  0.4446240000000 1.0
C      1  0.5694230000000  0.4397190000000  0.4552540000000 1.0
C      1  0.4122140000000  0.4720990000000  0.4513020000000 1.0
C      1  0.4587330000000  0.5199520000000  0.4862980000000 1.0
C      1  0.5350930000000  0.5253290000000  0.4874270000000 1.0
C      1  0.5059330000000  0.4582320000000  0.4872840000000 1.0
C      1  0.4524490000000  0.4707420000000  0.4342560000000 1.0
C      1  0.4965480000000  0.5550450000000  0.4303360000000 1.0
C      1  0.5464570000000  0.4749500000000  0.4319820000000 1.0
C      1  0.5348020000000  0.4162680000000  0.5096160000000 1.0
C      1  0.4085510000000  0.5141230000000  0.5073510000000 1.0
C      1  0.5631960000000  0.5669200000000  0.5079600000000 1.0
C      1  0.4611490000000  0.4902500000000  0.4119220000000 1.0
C      1  0.5087140000000  0.5373520000000  0.4081420000000 1.0
C      1  0.5248750000000  0.4727550000000  0.4106300000000 1.0
C      1  0.5514730000000  0.5279260000000  0.5749720000000 1.0
C      1  0.4958440000000  0.4421110000000  0.5718830000000 1.0
C      1  0.4489770000000  0.5316760000000  0.5746180000000 1.0
C      1  0.5240550000000  0.4322190000000  0.4867240000000 1.0
C      1  0.4273620000000  0.5158750000000  0.4842200000000 1.0
C      1  0.5513810000000  0.5526560000000  0.4840310000000 1.0
C      1  0.5771890000000  0.5235500000000  0.5110450000000 1.0
C      1  0.4788300000000  0.4250190000000  0.5047670000000 1.0
C      1  0.4381300000000  0.5506670000000  0.5123990000000 1.0
C      1  0.4261030000000  0.5365040000000  0.4581540000000 1.0
C      1  0.5695260000000  0.5451840000000  0.4574400000000 1.0
C      1  0.5059470000000  0.4202630000000  0.4615130000000 1.0
C      1  0.5271350000000  0.4628750000000  0.5229580000000 1.0
C      1  0.4532320000000  0.4969210000000  0.5244710000000 1.0
C      1  0.5214720000000  0.5436810000000  0.5292380000000 1.0
C      1  0.4651890000000  0.3994940000000  0.4881810000000 1.0
C      1  0.4325960000000  0.5763780000000  0.4911650000000 1.0
C      1  0.6010290000000  0.5144020000000  0.4898090000000 1.0
C      1  0.4075550000000  0.4880910000000  0.5204630000000 1.0
C      1  0.5439670000000  0.5815620000000  0.5228810000000 1.0
C      1  0.5573660000000  0.4287510000000  0.5231690000000 1.0
C      1  0.5260490000000  0.4579700000000  0.5742150000000 1.0
C      1  0.4459720000000  0.4976520000000  0.5747400000000 1.0
C      1  0.5224440000000  0.5462230000000  0.5762480000000 1.0
C      1  0.4837230000000  0.5776570000000  0.4869230000000 1.0
C      1  0.5743520000000  0.4684670000000  0.4823700000000 1.0
C      1  0.4397690000000  0.4530890000000  0.4868960000000 1.0
C      1  0.4207000000000  0.4879280000000  0.5456220000000 1.0
C      1  0.5214690000000  0.5732940000000  0.5470550000000 1.0
C      1  0.5499350000000  0.4412210000000  0.5474580000000 1.0
C      1  0.4435050000000  0.4672420000000  0.5582990000000 1.0
C      1  0.4950020000000  0.5592040000000  0.5597540000000 1.0
C      1  0.5555070000000  0.4710270000000  0.5615020000000 1.0
C      1  0.5684660000000  0.5025620000000  0.5609450000000 1.0
C      1  0.4657350000000  0.4413060000000  0.5574360000000 1.0
C      1  0.4614150000000  0.5582150000000  0.5608150000000 1.0
C      1  0.5158990000000  0.5849880000000  0.5093880000000 1.0
C      1  0.5797540000000  0.4409890000000  0.5108940000000 1.0
C      1  0.4075360000000  0.4621440000000  0.5086430000000 1.0
C      1  0.4661630000000  0.5486270000000  0.4286170000000 1.0
C      1  0.5572570000000  0.5041450000000  0.4275710000000 1.0
C      1  0.4741900000000  0.4483930000000  0.4314190000000 1.0
C      1  0.5008760000000  0.5022760000000  0.5043540000000 1.0
C      1  0.4971480000000  0.5024540000000  0.5765420000000 1.0
END
