TITL C-2782234-8014-591 -0.0055900962354817 125000 -1099.10355171563 0 0 189 (C1) n - 1
REM
REM in /home/nfs/bkarasulu/CARBON/AIRSS/Generating-Clusters/REBO/Higher-Symm/SD-CG/HFTN-CG
REM
REM
REM
REM
REM
REM ./C.cell (12c818d87b63d06a65506943cc24bca4)
REM
REM compiler GCC version 9.2.1 20190827 (Red Hat 9.2.1-1)
REM options -cpp -mtune=generic -march=x86-64 -g -O0 -fpre-include=/usr/include/finclude/math-vector-fortran.h
REM seed -202659738 -967319598 838378522 217039028 -1318435747 1454988821 -391751660 1542941377 1699675461 -1509458379 1282093303 -680992582 236363771 -1943815617 312469407 -375254414 949915904 335608719 1132170499 -1219046937 660892140 -1819828930 1226917179 -2016719067 204322715 1092954643 -1999057793 -1177414017 1340869375 978548728 -589241375 -963823008 -1988734967
REM
CELL 1.54180   50.00000   50.00000   50.00000   90.00000   90.00000   90.00000
LATT -1
SFAC C  
C      1  0.4822560000000  0.5971360000000  0.5394700000000 1.0
C      1  0.4606520000000  0.6036150000000  0.4938570000000 1.0
C      1  0.5001900000000  0.5965380000000  0.4599130000000 1.0
C      1  0.5351410000000  0.5990230000000  0.4788140000000 1.0
C      1  0.5206590000000  0.5924380000000  0.5263630000000 1.0
C      1  0.5205610000000  0.3963930000000  0.5311870000000 1.0
C      1  0.5351940000000  0.4020240000000  0.4924480000000 1.0
C      1  0.5068900000000  0.3997380000000  0.4635390000000 1.0
C      1  0.4706360000000  0.4057000000000  0.4828650000000 1.0
C      1  0.4715980000000  0.4024440000000  0.5290970000000 1.0
C      1  0.5307690000000  0.4710950000000  0.4895000000000 1.0
C      1  0.5208650000000  0.4722850000000  0.5281580000000 1.0
C      1  0.4818150000000  0.4660100000000  0.5325080000000 1.0
C      1  0.4643740000000  0.4693970000000  0.4910680000000 1.0
C      1  0.4964140000000  0.4714730000000  0.4662310000000 1.0
C      1  0.4661350000000  0.5362630000000  0.4844070000000 1.0
C      1  0.4768510000000  0.5342130000000  0.5269710000000 1.0
C      1  0.5175990000000  0.5306300000000  0.5313580000000 1.0
C      1  0.5333390000000  0.5304360000000  0.4923330000000 1.0
C      1  0.4996720000000  0.5313040000000  0.4669990000000 1.0
C      1  0.5441760000000  0.4076650000000  0.4411520000000 1.0
C      1  0.5721690000000  0.4055740000000  0.5258800000000 1.0
C      1  0.4981210000000  0.4131830000000  0.5702320000000 1.0
C      1  0.4325550000000  0.4081290000000  0.5231790000000 1.0
C      1  0.4582710000000  0.4076410000000  0.4386540000000 1.0
C      1  0.4584360000000  0.5867400000000  0.4416290000000 1.0
C      1  0.4354360000000  0.5826250000000  0.5226310000000 1.0
C      1  0.4997260000000  0.5911260000000  0.5779480000000 1.0
C      1  0.5639370000000  0.5825460000000  0.5175120000000 1.0
C      1  0.5457730000000  0.5910750000000  0.4375980000000 1.0
C      1  0.4526890000000  0.4667360000000  0.5454690000000 1.0
C      1  0.4464720000000  0.4669290000000  0.4655050000000 1.0
C      1  0.5148230000000  0.4686700000000  0.4407800000000 1.0
C      1  0.5615200000000  0.4686070000000  0.4965140000000 1.0
C      1  0.5244130000000  0.4686490000000  0.5587600000000 1.0
C      1  0.5471430000000  0.5305990000000  0.5428940000000 1.0
C      1  0.5536940000000  0.5313380000000  0.4676820000000 1.0
C      1  0.4854990000000  0.5311830000000  0.4379040000000 1.0
C      1  0.4353670000000  0.5308920000000  0.4915140000000 1.0
C      1  0.4763310000000  0.5320420000000  0.5599380000000 1.0
C      1  0.4862630000000  0.4330750000000  0.4702900000000 1.0
C      1  0.5185630000000  0.4271310000000  0.4664580000000 1.0
C      1  0.5273970000000  0.4278790000000  0.5076800000000 1.0
C      1  0.5043500000000  0.4250590000000  0.5327060000000 1.0
C      1  0.4678800000000  0.4267440000000  0.5165680000000 1.0
C      1  0.5286200000000  0.5712680000000  0.4715910000000 1.0
C      1  0.4842390000000  0.5753560000000  0.4697320000000 1.0
C      1  0.4782770000000  0.5815540000000  0.4966320000000 1.0
C      1  0.4935230000000  0.5698970000000  0.5449160000000 1.0
C      1  0.5292450000000  0.5683930000000  0.5036260000000 1.0
C      1  0.4416000000000  0.4952640000000  0.5361180000000 1.0
C      1  0.4477090000000  0.4911440000000  0.4463870000000 1.0
C      1  0.5339590000000  0.4920120000000  0.4344690000000 1.0
C      1  0.5729640000000  0.4926990000000  0.5119650000000 1.0
C      1  0.5126170000000  0.4923450000000  0.5743620000000 1.0
C      1  0.5656640000000  0.5070710000000  0.5347970000000 1.0
C      1  0.5530390000000  0.5073300000000  0.4481250000000 1.0
C      1  0.4668020000000  0.5067080000000  0.4330680000000 1.0
C      1  0.4324800000000  0.5040590000000  0.5074460000000 1.0
C      1  0.4890650000000  0.5074930000000  0.5746520000000 1.0
C      1  0.5317180000000  0.4085860000000  0.5673060000000 1.0
C      1  0.4427130000000  0.4076250000000  0.5559190000000 1.0
C      1  0.4357780000000  0.4068350000000  0.4642190000000 1.0
C      1  0.5141560000000  0.4068610000000  0.4251900000000 1.0
C      1  0.5743820000000  0.4082510000000  0.4920170000000 1.0
C      1  0.4656270000000  0.5915390000000  0.5749340000000 1.0
C      1  0.5521410000000  0.5890610000000  0.5488570000000 1.0
C      1  0.5699810000000  0.5903520000000  0.4617550000000 1.0
C      1  0.4871640000000  0.5897010000000  0.4231790000000 1.0
C      1  0.4253410000000  0.5856440000000  0.4899780000000 1.0
C      1  0.4368800000000  0.4384730000000  0.4510090000000 1.0
C      1  0.5243720000000  0.4394590000000  0.4280020000000 1.0
C      1  0.5761420000000  0.4394790000000  0.5060070000000 1.0
C      1  0.5258030000000  0.4406500000000  0.5780440000000 1.0
C      1  0.4369130000000  0.4395880000000  0.5470200000000 1.0
C      1  0.5617540000000  0.5584250000000  0.4532880000000 1.0
C      1  0.4747910000000  0.5579370000000  0.4196960000000 1.0
C      1  0.4176650000000  0.5548460000000  0.5006350000000 1.0
C      1  0.4762410000000  0.5593120000000  0.5794000000000 1.0
C      1  0.5663100000000  0.5579170000000  0.5485690000000 1.0
C      1  0.4187230000000  0.4919150000000  0.5575730000000 1.0
C      1  0.4197500000000  0.4921340000000  0.4360690000000 1.0
C      1  0.5357550000000  0.4915870000000  0.4046990000000 1.0
C      1  0.6014810000000  0.4932720000000  0.5033990000000 1.0
C      1  0.5292120000000  0.4910040000000  0.5993060000000 1.0
C      1  0.5852980000000  0.5067520000000  0.5573390000000 1.0
C      1  0.5805610000000  0.5066440000000  0.4370210000000 1.0
C      1  0.4657630000000  0.5061020000000  0.4030840000000 1.0
C      1  0.4014840000000  0.5064040000000  0.5023580000000 1.0
C      1  0.4728190000000  0.5052620000000  0.5995370000000 1.0
C      1  0.4357670000000  0.4615890000000  0.4034270000000 1.0
C      1  0.5708910000000  0.4619530000000  0.4121550000000 1.0
C      1  0.6063310000000  0.4627250000000  0.5390470000000 1.0
C      1  0.4937350000000  0.4627370000000  0.6137940000000 1.0
C      1  0.3934530000000  0.4621060000000  0.5306100000000 1.0
C      1  0.5625210000000  0.5346350000000  0.4051010000000 1.0
C      1  0.4287280000000  0.5352320000000  0.4105120000000 1.0
C      1  0.3929070000000  0.5339760000000  0.5403880000000 1.0
C      1  0.5049900000000  0.5354540000000  0.6168820000000 1.0
C      1  0.6097190000000  0.5351930000000  0.5282230000000 1.0
C      1  0.4014510000000  0.5668360000000  0.4744160000000 1.0
C      1  0.5067650000000  0.5624740000000  0.4249680000000 1.0
C      1  0.5937530000000  0.5660050000000  0.4612910000000 1.0
C      1  0.5400560000000  0.5640180000000  0.5675640000000 1.0
C      1  0.4478910000000  0.5652850000000  0.5638090000000 1.0
C      1  0.5691050000000  0.4363640000000  0.4742380000000 1.0
C      1  0.4925460000000  0.4318330000000  0.4199560000000 1.0
C      1  0.4265420000000  0.4335730000000  0.4817890000000 1.0
C      1  0.4334390000000  0.4305870000000  0.5793270000000 1.0
C      1  0.5484970000000  0.4344330000000  0.5550540000000 1.0
C      1  0.6020360000000  0.4887650000000  0.4749870000000 1.0
C      1  0.5566500000000  0.4864540000000  0.5903130000000 1.0
C      1  0.4314550000000  0.4865580000000  0.5824260000000 1.0
C      1  0.4022940000000  0.4879000000000  0.4586040000000 1.0
C      1  0.5092410000000  0.4864250000000  0.3945220000000 1.0
C      1  0.3976590000000  0.5109090000000  0.4745020000000 1.0
C      1  0.4452510000000  0.5091850000000  0.5924740000000 1.0
C      1  0.5699360000000  0.5101550000000  0.5816930000000 1.0
C      1  0.5984700000000  0.5117250000000  0.4588900000000 1.0
C      1  0.4930910000000  0.5097900000000  0.3939320000000 1.0
C      1  0.4532430000000  0.5992540000000  0.5438270000000 1.0
C      1  0.4447830000000  0.6007160000000  0.4688010000000 1.0
C      1  0.5178640000000  0.5989910000000  0.4359450000000 1.0
C      1  0.5613630000000  0.6002120000000  0.4923780000000 1.0
C      1  0.5200070000000  0.5969640000000  0.5575550000000 1.0
C      1  0.5487800000000  0.3975250000000  0.5399070000000 1.0
C      1  0.5513450000000  0.4012180000000  0.4678210000000 1.0
C      1  0.4851910000000  0.3987660000000  0.4411750000000 1.0
C      1  0.4441430000000  0.4012960000000  0.4969790000000 1.0
C      1  0.4740530000000  0.3985870000000  0.5579120000000 1.0
C      1  0.5779230000000  0.5104940000000  0.4080790000000 1.0
C      1  0.6112000000000  0.5113720000000  0.5441200000000 1.0
C      1  0.4915880000000  0.5106060000000  0.6218040000000 1.0
C      1  0.3872470000000  0.5094190000000  0.5274370000000 1.0
C      1  0.4369910000000  0.5108280000000  0.3978800000000 1.0
C      1  0.4221410000000  0.4866510000000  0.4071430000000 1.0
C      1  0.3934220000000  0.4866260000000  0.5446160000000 1.0
C      1  0.5086630000000  0.4862740000000  0.6200740000000 1.0
C      1  0.6166930000000  0.4869800000000  0.5280150000000 1.0
C      1  0.5639340000000  0.4861580000000  0.3984050000000 1.0
C      1  0.5392530000000  0.4487130000000  0.4678680000000 1.0
C      1  0.5430900000000  0.4493500000000  0.5262230000000 1.0
C      1  0.4922430000000  0.4443850000000  0.5566030000000 1.0
C      1  0.4463950000000  0.4466530000000  0.5054760000000 1.0
C      1  0.4794530000000  0.4506140000000  0.4452950000000 1.0
C      1  0.4607630000000  0.5558510000000  0.4570920000000 1.0
C      1  0.4497250000000  0.5529570000000  0.5323880000000 1.0
C      1  0.5121110000000  0.5496910000000  0.5573070000000 1.0
C      1  0.5554400000000  0.5502360000000  0.5092170000000 1.0
C      1  0.5201790000000  0.5503820000000  0.4520960000000 1.0
C      1  0.4467490000000  0.4350800000000  0.4219320000000 1.0
C      1  0.5561190000000  0.4345800000000  0.4254220000000 1.0
C      1  0.5902960000000  0.4330600000000  0.5344370000000 1.0
C      1  0.5002620000000  0.4364690000000  0.5949300000000 1.0
C      1  0.4140160000000  0.4358980000000  0.5263140000000 1.0
C      1  0.5540880000000  0.5626110000000  0.4221420000000 1.0
C      1  0.4442590000000  0.5628760000000  0.4215160000000 1.0
C      1  0.4106890000000  0.5601130000000  0.5303470000000 1.0
C      1  0.5020110000000  0.5624770000000  0.5963250000000 1.0
C      1  0.5889470000000  0.5613870000000  0.5276820000000 1.0
C      1  0.4329530000000  0.5413130000000  0.4437500000000 1.0
C      1  0.5352550000000  0.5351590000000  0.4252090000000 1.0
C      1  0.5861810000000  0.5384420000000  0.5038570000000 1.0
C      1  0.5204250000000  0.5362390000000  0.5877590000000 1.0
C      1  0.4245710000000  0.5366440000000  0.5494060000000 1.0
C      1  0.5609990000000  0.4612260000000  0.4444900000000 1.0
C      1  0.4661730000000  0.4611820000000  0.4157180000000 1.0
C      1  0.4156000000000  0.4621830000000  0.5065350000000 1.0
C      1  0.4773240000000  0.4573800000000  0.5843930000000 1.0
C      1  0.5724940000000  0.4613690000000  0.5391610000000 1.0
C      1  0.5058610000000  0.5316820000000  0.4109040000000 1.0
C      1  0.5873450000000  0.5363250000000  0.4742380000000 1.0
C      1  0.5501300000000  0.5327170000000  0.5765660000000 1.0
C      1  0.4450260000000  0.5325930000000  0.5731470000000 1.0
C      1  0.4134370000000  0.5366990000000  0.4655200000000 1.0
C      1  0.4976670000000  0.4646040000000  0.4122310000000 1.0
C      1  0.4137860000000  0.4644940000000  0.4746180000000 1.0
C      1  0.4481620000000  0.4604090000000  0.5790170000000 1.0
C      1  0.5565290000000  0.4649320000000  0.5681030000000 1.0
C      1  0.5812570000000  0.4674200000000  0.4688570000000 1.0
C      1  0.4937910000000  0.5012100000000  0.4773680000000 1.0
C      1  0.4747860000000  0.4996360000000  0.5271160000000 1.0
C      1  0.5082140000000  0.5016240000000  0.5233030000000 1.0
C      1  0.5207360000000  0.5010570000000  0.4941270000000 1.0
C      1  0.4647070000000  0.5033610000000  0.4943430000000 1.0
C      1  0.4986810000000  0.5717110000000  0.5137590000000 1.0
C      1  0.4947150000000  0.4316840000000  0.5010200000000 1.0
C      1  0.4974580000000  0.4697920000000  0.5016480000000 1.0
C      1  0.4998130000000  0.5340780000000  0.5014980000000 1.0
END
