TITL C-2782233-7966-480 0.00315890176863089 125000 -300.538700428081 0 0 55 (C1) n - 1
REM
REM in /home/nfs/bkarasulu/CARBON/AIRSS/Generating-Clusters/REBO/Higher-Symm/SD-CG/HFTN-CG
REM
REM
REM
REM
REM
REM ./C.cell (12c818d87b63d06a65506943cc24bca4)
REM
REM compiler GCC version 9.2.1 20190827 (Red Hat 9.2.1-1)
REM options -cpp -mtune=generic -march=x86-64 -g -O0 -fpre-include=/usr/include/finclude/math-vector-fortran.h
REM seed -1081864968 -1994758488 -2030223275 1044700029 1372412693 166318401 226925116 626561392 566485815 1932066346 1772432061 -454735333 266953487 -1269667654 -1299586395 -1159837194 1423550738 -1474852581 1844145858 -250733165 -17888727 -295289734 -1722922622 2140161853 -1259288980 -406758743 269144830 -981544479 1192779756 -598965796 -467361505 1320454794 684884531
REM
CELL 1.54180   50.00000   50.00000   50.00000   90.00000   90.00000   90.00000
LATT -1
SFAC C  
C      1  0.5377770000000  0.5309570000000  0.4635590000000 1.0
C      1  0.5416810000000  0.4539520000000  0.5366660000000 1.0
C      1  0.4602780000000  0.5436720000000  0.4682560000000 1.0
C      1  0.4637830000000  0.4564880000000  0.5303330000000 1.0
C      1  0.5420830000000  0.4683390000000  0.4664930000000 1.0
C      1  0.5403130000000  0.5376720000000  0.5357130000000 1.0
C      1  0.4525320000000  0.4620710000000  0.4691800000000 1.0
C      1  0.4619780000000  0.5414090000000  0.5292590000000 1.0
C      1  0.5599700000000  0.5137500000000  0.5208830000000 1.0
C      1  0.5534050000000  0.4846210000000  0.4942840000000 1.0
C      1  0.4478220000000  0.5162300000000  0.5111790000000 1.0
C      1  0.4365380000000  0.4853690000000  0.4886260000000 1.0
C      1  0.5529950000000  0.4805620000000  0.5268050000000 1.0
C      1  0.5580470000000  0.5178540000000  0.4876020000000 1.0
C      1  0.4497880000000  0.4829220000000  0.5198620000000 1.0
C      1  0.4417980000000  0.5187730000000  0.4797920000000 1.0
C      1  0.4832280000000  0.4613100000000  0.4544940000000 1.0
C      1  0.4828910000000  0.5378990000000  0.5545140000000 1.0
C      1  0.5148690000000  0.4615100000000  0.4470060000000 1.0
C      1  0.5142280000000  0.5365070000000  0.5576640000000 1.0
C      1  0.4799110000000  0.5375510000000  0.4455420000000 1.0
C      1  0.4838700000000  0.4583080000000  0.5541430000000 1.0
C      1  0.5127290000000  0.5353130000000  0.4407910000000 1.0
C      1  0.5168980000000  0.4571350000000  0.5582010000000 1.0
C      1  0.4700810000000  0.5653600000000  0.4842960000000 1.0
C      1  0.4711160000000  0.4349470000000  0.5130510000000 1.0
C      1  0.5277000000000  0.5586890000000  0.4814970000000 1.0
C      1  0.5262070000000  0.4340410000000  0.5138590000000 1.0
C      1  0.4690200000000  0.4379580000000  0.4828380000000 1.0
C      1  0.4717770000000  0.5662920000000  0.5150220000000 1.0
C      1  0.5286470000000  0.4403200000000  0.4810380000000 1.0
C      1  0.5268410000000  0.5617290000000  0.5154870000000 1.0
C      1  0.4637990000000  0.5062350000000  0.5392900000000 1.0
C      1  0.5258710000000  0.4988950000000  0.4558460000000 1.0
C      1  0.4500930000000  0.4937420000000  0.4582710000000 1.0
C      1  0.5375320000000  0.5047790000000  0.5447030000000 1.0
C      1  0.4869100000000  0.4981650000000  0.5544170000000 1.0
C      1  0.4750430000000  0.4981460000000  0.4412550000000 1.0
C      1  0.5112590000000  0.4966830000000  0.5566280000000 1.0
C      1  0.4996210000000  0.4978770000000  0.4414910000000 1.0
C      1  0.4756940000000  0.4879910000000  0.4884310000000 1.0
C      1  0.5241410000000  0.4970100000000  0.4871280000000 1.0
C      1  0.4806360000000  0.5102320000000  0.4789710000000 1.0
C      1  0.5277690000000  0.5261920000000  0.5015190000000 1.0
C      1  0.4995770000000  0.5815800000000  0.5217320000000 1.0
C      1  0.4988070000000  0.4244760000000  0.4864550000000 1.0
C      1  0.4969170000000  0.4171120000000  0.5180020000000 1.0
C      1  0.5005480000000  0.5777840000000  0.4901120000000 1.0
C      1  0.5017440000000  0.5424340000000  0.5265370000000 1.0
C      1  0.5050010000000  0.4629210000000  0.4792140000000 1.0
C      1  0.5007630000000  0.5432060000000  0.4714610000000 1.0
C      1  0.5035560000000  0.4552110000000  0.5269980000000 1.0
C      1  0.4971580000000  0.4737550000000  0.5064850000000 1.0
C      1  0.4886790000000  0.5335480000000  0.4995730000000 1.0
C      1  0.5031160000000  0.5053820000000  0.5116800000000 1.0
END
