TITL C-2782228-2999-486 -0.000796501670983508 125000 -421.845332523422 0 0 75 (C1) n - 1
REM
REM in /home/nfs/bkarasulu/CARBON/AIRSS/Generating-Clusters/REBO/Higher-Symm/SD-CG/HFTN-CG
REM
REM
REM
REM
REM
REM ./C.cell (12c818d87b63d06a65506943cc24bca4)
REM
REM compiler GCC version 9.2.1 20190827 (Red Hat 9.2.1-1)
REM options -cpp -mtune=generic -march=x86-64 -g -O0 -fpre-include=/usr/include/finclude/math-vector-fortran.h
REM seed -1666297958 637699238 2140437743 -1493299787 -1796375324 1422288063 826399473 609179940 939966963 1751423942 -2030646691 624220467 1716838995 2003071261 -1366532003 1444361595 852758199 -1233834265 -202311801 -1101773701 -1315308819 1214352163 294743488 -2054302944 812530433 -1281847930 -1245272656 541644900 -1021288765 651681829 1706630645 1866313256 -1177956307
REM
CELL 1.54180   50.00000   50.00000   50.00000   90.00000   90.00000   90.00000
LATT -1
SFAC C  
C      1  0.5709020000000  0.5461790000000  0.5116740000000 1.0
C      1  0.4553230000000  0.5621860000000  0.5181850000000 1.0
C      1  0.4590180000000  0.5546120000000  0.4492190000000 1.0
C      1  0.5110660000000  0.5050850000000  0.5711490000000 1.0
C      1  0.4761250000000  0.4265310000000  0.5273710000000 1.0
C      1  0.5360850000000  0.4424870000000  0.5019930000000 1.0
C      1  0.5405070000000  0.4579490000000  0.5266210000000 1.0
C      1  0.4506030000000  0.4385280000000  0.5095540000000 1.0
C      1  0.4545330000000  0.4849920000000  0.4815710000000 1.0
C      1  0.5648000000000  0.5415570000000  0.4810970000000 1.0
C      1  0.5672650000000  0.4777050000000  0.4900620000000 1.0
C      1  0.5389550000000  0.5031940000000  0.4550640000000 1.0
C      1  0.5143480000000  0.5066050000000  0.4322770000000 1.0
C      1  0.5198890000000  0.4841370000000  0.4845910000000 1.0
C      1  0.4939830000000  0.5301340000000  0.4297570000000 1.0
C      1  0.5457120000000  0.5663940000000  0.5057410000000 1.0
C      1  0.5480880000000  0.4520240000000  0.4491660000000 1.0
C      1  0.4204790000000  0.5055130000000  0.5054930000000 1.0
C      1  0.4773230000000  0.5402160000000  0.5615160000000 1.0
C      1  0.4772960000000  0.5744590000000  0.5034220000000 1.0
C      1  0.5202390000000  0.4515260000000  0.4293640000000 1.0
C      1  0.4557960000000  0.4941330000000  0.5203870000000 1.0
C      1  0.5492920000000  0.5525920000000  0.4534860000000 1.0
C      1  0.4621910000000  0.5577200000000  0.5453590000000 1.0
C      1  0.5122780000000  0.4335490000000  0.4895070000000 1.0
C      1  0.4670840000000  0.4654050000000  0.5284830000000 1.0
C      1  0.4918440000000  0.5328520000000  0.4899920000000 1.0
C      1  0.5015620000000  0.5640690000000  0.5148550000000 1.0
C      1  0.5904750000000  0.5059650000000  0.5451150000000 1.0
C      1  0.4651390000000  0.5449710000000  0.4795560000000 1.0
C      1  0.4724790000000  0.4657290000000  0.5577310000000 1.0
C      1  0.4804880000000  0.4762550000000  0.4844910000000 1.0
C      1  0.4425520000000  0.5381530000000  0.5005390000000 1.0
C      1  0.4579320000000  0.4496810000000  0.4505140000000 1.0
C      1  0.4687100000000  0.4470230000000  0.5757310000000 1.0
C      1  0.5105710000000  0.5357720000000  0.5602690000000 1.0
C      1  0.5349230000000  0.4891180000000  0.5625150000000 1.0
C      1  0.5365510000000  0.5238450000000  0.4779480000000 1.0
C      1  0.5541860000000  0.4862050000000  0.5172960000000 1.0
C      1  0.5138790000000  0.5467470000000  0.4711410000000 1.0
C      1  0.4835740000000  0.4937930000000  0.5614920000000 1.0
C      1  0.4637330000000  0.5159850000000  0.5677230000000 1.0
C      1  0.4700370000000  0.5770800000000  0.4722570000000 1.0
C      1  0.4996460000000  0.5035440000000  0.5330840000000 1.0
C      1  0.5046150000000  0.5522290000000  0.4424270000000 1.0
C      1  0.5649690000000  0.5040730000000  0.5386990000000 1.0
C      1  0.4659920000000  0.5294220000000  0.4351660000000 1.0
C      1  0.5575670000000  0.4818170000000  0.4602980000000 1.0
C      1  0.5381340000000  0.5310830000000  0.4380130000000 1.0
C      1  0.5234040000000  0.4911470000000  0.5127540000000 1.0
C      1  0.5008610000000  0.4785230000000  0.4372040000000 1.0
C      1  0.5098500000000  0.4062970000000  0.4488320000000 1.0
C      1  0.4249440000000  0.4538500000000  0.5062700000000 1.0
C      1  0.5083590000000  0.5302820000000  0.5180010000000 1.0
C      1  0.4670070000000  0.5147760000000  0.5051610000000 1.0
C      1  0.5237960000000  0.4420800000000  0.5697250000000 1.0
C      1  0.4387080000000  0.5135610000000  0.4770210000000 1.0
C      1  0.4916330000000  0.4785800000000  0.5122000000000 1.0
C      1  0.5362730000000  0.5694800000000  0.4788270000000 1.0
C      1  0.4611860000000  0.4300460000000  0.4785080000000 1.0
C      1  0.4874740000000  0.4268690000000  0.4997810000000 1.0
C      1  0.5560390000000  0.4495230000000  0.4822630000000 1.0
C      1  0.4272770000000  0.4788190000000  0.4930570000000 1.0
C      1  0.5440000000000  0.5517170000000  0.5459360000000 1.0
C      1  0.5335900000000  0.4619470000000  0.5539860000000 1.0
C      1  0.4303990000000  0.5044320000000  0.5344280000000 1.0
C      1  0.4688480000000  0.4793790000000  0.4434910000000 1.0
C      1  0.5142670000000  0.4327320000000  0.4572980000000 1.0
C      1  0.5195030000000  0.4672190000000  0.4635620000000 1.0
C      1  0.5173410000000  0.5623050000000  0.5400870000000 1.0
C      1  0.4363370000000  0.5124330000000  0.5608550000000 1.0
C      1  0.5390490000000  0.5332460000000  0.5105330000000 1.0
C      1  0.5426790000000  0.5211680000000  0.5533510000000 1.0
C      1  0.4830580000000  0.4528720000000  0.4698350000000 1.0
C      1  0.4553830000000  0.5058950000000  0.4480700000000 1.0
END
