TITL C-2782239-8622-568 -0.0092397621154602 125000 -1024.2087280121 0 0 179 (C1) n - 1
REM
REM in /home/nfs/bkarasulu/CARBON/AIRSS/Generating-Clusters/REBO/Higher-Symm/SD-CG/HFTN-CG
REM
REM
REM
REM
REM
REM ./C.cell (12c818d87b63d06a65506943cc24bca4)
REM
REM compiler GCC version 9.2.1 20190827 (Red Hat 9.2.1-1)
REM options -cpp -mtune=generic -march=x86-64 -g -O0 -fpre-include=/usr/include/finclude/math-vector-fortran.h
REM seed -1652222796 -141269661 -1624380574 301343005 1866684880 -1863709686 1099188641 -1847409705 -370826627 -519164406 899037425 -519853628 803357658 -232782554 -1182190404 1862643312 2057407266 1965939613 126221726 1009427971 -1038669649 133131598 -2079799873 -838879152 -329421050 -1381830312 283850528 1470544659 -1080651076 1379447332 897071715 -173525967 -1053656760
REM
CELL 1.54180   50.00000   50.00000   50.00000   90.00000   90.00000   90.00000
LATT -1
SFAC C  
C      1  0.6047700000000  0.4557830000000  0.4831640000000 1.0
C      1  0.5161670000000  0.4542180000000  0.3965000000000 1.0
C      1  0.4045910000000  0.4553290000000  0.4517610000000 1.0
C      1  0.4243520000000  0.4550430000000  0.5755710000000 1.0
C      1  0.5475120000000  0.4544330000000  0.5922940000000 1.0
C      1  0.6003310000000  0.5414200000000  0.5167860000000 1.0
C      1  0.5144560000000  0.5385380000000  0.6009160000000 1.0
C      1  0.4090330000000  0.5405110000000  0.5457390000000 1.0
C      1  0.4287580000000  0.5397350000000  0.4271910000000 1.0
C      1  0.5469340000000  0.5394200000000  0.4100400000000 1.0
C      1  0.5360430000000  0.5426650000000  0.5769120000000 1.0
C      1  0.5828160000000  0.5436240000000  0.4895530000000 1.0
C      1  0.5154020000000  0.5430670000000  0.4169820000000 1.0
C      1  0.4259950000000  0.5431290000000  0.4594250000000 1.0
C      1  0.4392070000000  0.5428150000000  0.5572250000000 1.0
C      1  0.5417150000000  0.4624720000000  0.4165970000000 1.0
C      1  0.5922670000000  0.4636400000000  0.5133750000000 1.0
C      1  0.5147370000000  0.4619460000000  0.5921710000000 1.0
C      1  0.4179620000000  0.4622160000000  0.5430070000000 1.0
C      1  0.4330850000000  0.4630140000000  0.4349050000000 1.0
C      1  0.5159020000000  0.5663320000000  0.4492740000000 1.0
C      1  0.4569710000000  0.5662800000000  0.4685650000000 1.0
C      1  0.4579080000000  0.5672560000000  0.5320350000000 1.0
C      1  0.5161740000000  0.5654470000000  0.5511820000000 1.0
C      1  0.5524620000000  0.5674580000000  0.4991410000000 1.0
C      1  0.5195760000000  0.4260240000000  0.5547040000000 1.0
C      1  0.4544420000000  0.4270580000000  0.5403500000000 1.0
C      1  0.4469890000000  0.4270310000000  0.4678720000000 1.0
C      1  0.5146970000000  0.4251910000000  0.4435840000000 1.0
C      1  0.5569190000000  0.4273510000000  0.4921270000000 1.0
C      1  0.4279590000000  0.5081680000000  0.4776470000000 1.0
C      1  0.4560020000000  0.5073930000000  0.5615050000000 1.0
C      1  0.5441020000000  0.5076000000000  0.5607580000000 1.0
C      1  0.5719860000000  0.5082550000000  0.4757540000000 1.0
C      1  0.4996040000000  0.5078240000000  0.4251200000000 1.0
C      1  0.4321840000000  0.4918800000000  0.5161970000000 1.0
C      1  0.4631260000000  0.4922500000000  0.4403340000000 1.0
C      1  0.5449610000000  0.4926510000000  0.4462810000000 1.0
C      1  0.5647260000000  0.4919580000000  0.5262340000000 1.0
C      1  0.4951090000000  0.4918280000000  0.5700140000000 1.0
C      1  0.5417800000000  0.5224770000000  0.4727040000000 1.0
C      1  0.4867900000000  0.5220940000000  0.4522320000000 1.0
C      1  0.4506970000000  0.5219870000000  0.4976040000000 1.0
C      1  0.4823730000000  0.5218240000000  0.5465480000000 1.0
C      1  0.5388470000000  0.5219820000000  0.5311480000000 1.0
C      1  0.5379960000000  0.4791050000000  0.5339010000000 1.0
C      1  0.4786960000000  0.4782550000000  0.5470220000000 1.0
C      1  0.4489000000000  0.4785580000000  0.4937150000000 1.0
C      1  0.4892080000000  0.4788460000000  0.4501050000000 1.0
C      1  0.5444040000000  0.4797390000000  0.4745950000000 1.0
C      1  0.5873980000000  0.4273880000000  0.4764150000000 1.0
C      1  0.5040730000000  0.4259450000000  0.4111310000000 1.0
C      1  0.4129410000000  0.4266000000000  0.4679240000000 1.0
C      1  0.4420680000000  0.4263000000000  0.5720470000000 1.0
C      1  0.5482970000000  0.4262610000000  0.5731860000000 1.0
C      1  0.5819700000000  0.5706010000000  0.5164250000000 1.0
C      1  0.5093260000000  0.5685470000000  0.5847050000000 1.0
C      1  0.4238340000000  0.5699660000000  0.5354830000000 1.0
C      1  0.4426730000000  0.5694970000000  0.4375600000000 1.0
C      1  0.5412350000000  0.5693540000000  0.4262210000000 1.0
C      1  0.4718600000000  0.4339830000000  0.4850770000000 1.0
C      1  0.4762830000000  0.4324430000000  0.5189070000000 1.0
C      1  0.5097290000000  0.4326670000000  0.5254460000000 1.0
C      1  0.5259250000000  0.4242550000000  0.4967560000000 1.0
C      1  0.5035270000000  0.4320710000000  0.4723580000000 1.0
C      1  0.4786110000000  0.5430160000000  0.5198340000000 1.0
C      1  0.4748990000000  0.5431110000000  0.4859440000000 1.0
C      1  0.5057660000000  0.5428280000000  0.4716860000000 1.0
C      1  0.5287100000000  0.5430700000000  0.4967820000000 1.0
C      1  0.5118910000000  0.5424710000000  0.5264070000000 1.0
C      1  0.4762810000000  0.5513220000000  0.4461740000000 1.0
C      1  0.4418510000000  0.5511970000000  0.5066530000000 1.0
C      1  0.4870180000000  0.5510910000000  0.5579330000000 1.0
C      1  0.5505980000000  0.5514350000000  0.5290920000000 1.0
C      1  0.5436660000000  0.5519430000000  0.4609540000000 1.0
C      1  0.4681560000000  0.4523470000000  0.5579590000000 1.0
C      1  0.4356170000000  0.4528260000000  0.4865390000000 1.0
C      1  0.4924450000000  0.4506950000000  0.4389290000000 1.0
C      1  0.5585840000000  0.4536350000000  0.4715270000000 1.0
C      1  0.5405900000000  0.4503110000000  0.5434950000000 1.0
C      1  0.4664950000000  0.3923240000000  0.4643910000000 1.0
C      1  0.4595140000000  0.3893190000000  0.5281750000000 1.0
C      1  0.5099850000000  0.3885750000000  0.5449150000000 1.0
C      1  0.5466450000000  0.3916650000000  0.5068680000000 1.0
C      1  0.5202120000000  0.3871040000000  0.4584910000000 1.0
C      1  0.4671080000000  0.6186200000000  0.5387740000000 1.0
C      1  0.4589010000000  0.6105460000000  0.4866530000000 1.0
C      1  0.5102820000000  0.6142990000000  0.4483100000000 1.0
C      1  0.5408410000000  0.6163000000000  0.4901570000000 1.0
C      1  0.5205380000000  0.6095640000000  0.5349360000000 1.0
C      1  0.5773770000000  0.4894640000000  0.4409150000000 1.0
C      1  0.4685260000000  0.4890180000000  0.4084790000000 1.0
C      1  0.4029820000000  0.4890100000000  0.5022920000000 1.0
C      1  0.4715610000000  0.4886890000000  0.5931740000000 1.0
C      1  0.5792190000000  0.4894400000000  0.5551940000000 1.0
C      1  0.5803810000000  0.5185080000000  0.5651020000000 1.0
C      1  0.4618570000000  0.5173940000000  0.5976940000000 1.0
C      1  0.3960080000000  0.5184720000000  0.4949290000000 1.0
C      1  0.4733880000000  0.5180020000000  0.3994400000000 1.0
C      1  0.5878230000000  0.5185550000000  0.4431210000000 1.0
C      1  0.4663970000000  0.6264650000000  0.5119350000000 1.0
C      1  0.4955930000000  0.6100400000000  0.5479280000000 1.0
C      1  0.5200370000000  0.6208360000000  0.5083800000000 1.0
C      1  0.5355090000000  0.6125800000000  0.4595990000000 1.0
C      1  0.4852620000000  0.6130070000000  0.4677380000000 1.0
C      1  0.4666830000000  0.3964180000000  0.4975350000000 1.0
C      1  0.4955510000000  0.3897920000000  0.4707490000000 1.0
C      1  0.5454160000000  0.3910310000000  0.4779910000000 1.0
C      1  0.5205870000000  0.3910320000000  0.5193610000000 1.0
C      1  0.4784720000000  0.3879820000000  0.5477850000000 1.0
C      1  0.5635430000000  0.5206870000000  0.5075340000000 1.0
C      1  0.5266890000000  0.5213290000000  0.4420210000000 1.0
C      1  0.4528370000000  0.5208470000000  0.4563100000000 1.0
C      1  0.4447110000000  0.5200770000000  0.5311880000000 1.0
C      1  0.5122380000000  0.5207830000000  0.5632300000000 1.0
C      1  0.5714250000000  0.4826820000000  0.4955080000000 1.0
C      1  0.5266330000000  0.4801820000000  0.5660760000000 1.0
C      1  0.4446880000000  0.4818000000000  0.5449940000000 1.0
C      1  0.4395750000000  0.4829740000000  0.4609290000000 1.0
C      1  0.5174060000000  0.4808400000000  0.4309520000000 1.0
C      1  0.5670870000000  0.4294640000000  0.5447830000000 1.0
C      1  0.5662050000000  0.4294600000000  0.4497790000000 1.0
C      1  0.4720160000000  0.4289080000000  0.4226920000000 1.0
C      1  0.4189400000000  0.4286070000000  0.5014870000000 1.0
C      1  0.4751320000000  0.4285090000000  0.5803930000000 1.0
C      1  0.5655040000000  0.5749940000000  0.4496450000000 1.0
C      1  0.5662270000000  0.5754780000000  0.5463820000000 1.0
C      1  0.4759050000000  0.5740800000000  0.5800320000000 1.0
C      1  0.4187600000000  0.5751290000000  0.5020510000000 1.0
C      1  0.4729020000000  0.5749920000000  0.4226420000000 1.0
C      1  0.5522270000000  0.5879960000000  0.4766820000000 1.0
C      1  0.4946440000000  0.5872480000000  0.4429510000000 1.0
C      1  0.4443350000000  0.5871040000000  0.4860500000000 1.0
C      1  0.4708020000000  0.5873060000000  0.5511470000000 1.0
C      1  0.5359510000000  0.5870390000000  0.5431380000000 1.0
C      1  0.5657460000000  0.4117000000000  0.5200970000000 1.0
C      1  0.4949170000000  0.4097420000000  0.5676640000000 1.0
C      1  0.4384630000000  0.4114590000000  0.5160490000000 1.0
C      1  0.4581170000000  0.4111880000000  0.4429620000000 1.0
C      1  0.5434550000000  0.4103700000000  0.4498390000000 1.0
C      1  0.4110180000000  0.4852770000000  0.5668740000000 1.0
C      1  0.5366460000000  0.4842330000000  0.6050780000000 1.0
C      1  0.6113800000000  0.4862350000000  0.4972720000000 1.0
C      1  0.5314730000000  0.4847150000000  0.3934810000000 1.0
C      1  0.4081040000000  0.4856470000000  0.4363950000000 1.0
C      1  0.4158460000000  0.5133840000000  0.4449290000000 1.0
C      1  0.5263010000000  0.5128730000000  0.4033890000000 1.0
C      1  0.6006050000000  0.5145170000000  0.4955320000000 1.0
C      1  0.5354710000000  0.5123300000000  0.5940810000000 1.0
C      1  0.4215240000000  0.5132780000000  0.5624540000000 1.0
C      1  0.4532730000000  0.4613660000000  0.5868480000000 1.0
C      1  0.5626030000000  0.4626900000000  0.5664240000000 1.0
C      1  0.5879850000000  0.4621230000000  0.4572810000000 1.0
C      1  0.4879000000000  0.4620140000000  0.4071310000000 1.0
C      1  0.4032020000000  0.4619540000000  0.4827280000000 1.0
C      1  0.4583480000000  0.5379060000000  0.4201050000000 1.0
C      1  0.5626530000000  0.5376790000000  0.4360070000000 1.0
C      1  0.5807310000000  0.5389060000000  0.5399060000000 1.0
C      1  0.4863950000000  0.5367640000000  0.5892060000000 1.0
C      1  0.4111950000000  0.5383780000000  0.5155040000000 1.0
C      1  0.5837030000000  0.4588580000000  0.5402090000000 1.0
C      1  0.5650020000000  0.4586740000000  0.4323800000000 1.0
C      1  0.4558260000000  0.4585230000000  0.4179060000000 1.0
C      1  0.4090660000000  0.4579260000000  0.5160040000000 1.0
C      1  0.4866310000000  0.4579720000000  0.5929780000000 1.0
C      1  0.5833680000000  0.5479410000000  0.4602510000000 1.0
C      1  0.5631330000000  0.5481420000000  0.5668290000000 1.0
C      1  0.4552850000000  0.5470160000000  0.5817660000000 1.0
C      1  0.4095220000000  0.5479050000000  0.4834860000000 1.0
C      1  0.4878350000000  0.5478970000000  0.4081230000000 1.0
C      1  0.4886390000000  0.4898050000000  0.5236240000000 1.0
C      1  0.5225970000000  0.4909540000000  0.4876200000000 1.0
C      1  0.4741120000000  0.4895830000000  0.4967920000000 1.0
C      1  0.4950270000000  0.4902570000000  0.4746810000000 1.0
C      1  0.5185720000000  0.4904050000000  0.5178400000000 1.0
C      1  0.4971390000000  0.4513800000000  0.4998030000000 1.0
C      1  0.4991940000000  0.5148240000000  0.5003370000000 1.0
C      1  0.4995510000000  0.4025720000000  0.4990530000000 1.0
C      1  0.4940390000000  0.6257260000000  0.4969840000000 1.0
END
