TITL C-2782229-3092-461 0.00156639817578076 125000 -414.040319804397 0 0 71 (C1) n - 1
REM
REM in /home/nfs/bkarasulu/CARBON/AIRSS/Generating-Clusters/REBO/Higher-Symm/SD-CG/HFTN-CG
REM
REM
REM
REM
REM
REM ./C.cell (12c818d87b63d06a65506943cc24bca4)
REM
REM compiler GCC version 9.2.1 20190827 (Red Hat 9.2.1-1)
REM options -cpp -mtune=generic -march=x86-64 -g -O0 -fpre-include=/usr/include/finclude/math-vector-fortran.h
REM seed 1140326089 -1275175312 -955865875 -1080388947 -898902608 634469845 1104894947 333051832 1357056806 295231758 -1887445941 1150704634 -2045998832 683420988 648082493 -616462175 -1278889102 -1776492116 -1776243950 454704862 900177525 -1776748478 799116737 911311671 1465295254 -706768831 1873933840 -764752363 1844349885 710417104 -1021518564 -826173167 -226288532
REM
CELL 1.54180   50.00000   50.00000   50.00000   90.00000   90.00000   90.00000
LATT -1
SFAC C  
C      1  0.5194680000000  0.4914630000000  0.5578600000000 1.0
C      1  0.4250750000000  0.5210730000000  0.4916140000000 1.0
C      1  0.5212120000000  0.5797730000000  0.5107240000000 1.0
C      1  0.4964150000000  0.4705170000000  0.5717540000000 1.0
C      1  0.4946190000000  0.5216690000000  0.5009060000000 1.0
C      1  0.5431310000000  0.4363260000000  0.5425280000000 1.0
C      1  0.5467180000000  0.5355960000000  0.4729190000000 1.0
C      1  0.5172100000000  0.5265900000000  0.5196500000000 1.0
C      1  0.5562970000000  0.4629440000000  0.5254000000000 1.0
C      1  0.4601360000000  0.5078570000000  0.4487840000000 1.0
C      1  0.5582780000000  0.5120840000000  0.4570540000000 1.0
C      1  0.4453620000000  0.4685650000000  0.5372510000000 1.0
C      1  0.4761370000000  0.5578050000000  0.4461640000000 1.0
C      1  0.4694510000000  0.5767240000000  0.4978810000000 1.0
C      1  0.5516780000000  0.4364810000000  0.5043650000000 1.0
C      1  0.4810890000000  0.5613380000000  0.5503290000000 1.0
C      1  0.4651710000000  0.4960750000000  0.5398370000000 1.0
C      1  0.5309130000000  0.4149500000000  0.4673620000000 1.0
C      1  0.5147230000000  0.4729340000000  0.4927460000000 1.0
C      1  0.4890390000000  0.5746940000000  0.5209490000000 1.0
C      1  0.5037320000000  0.5750630000000  0.4530760000000 1.0
C      1  0.5787980000000  0.5040970000000  0.5073500000000 1.0
C      1  0.4815770000000  0.4307510000000  0.5211020000000 1.0
C      1  0.4899800000000  0.4523850000000  0.5441640000000 1.0
C      1  0.5422770000000  0.5195330000000  0.5023650000000 1.0
C      1  0.4755070000000  0.4793220000000  0.4889680000000 1.0
C      1  0.4377820000000  0.5440580000000  0.4807330000000 1.0
C      1  0.4817520000000  0.5071030000000  0.4729570000000 1.0
C      1  0.5210550000000  0.4533320000000  0.5571560000000 1.0
C      1  0.5392360000000  0.5704430000000  0.4907500000000 1.0
C      1  0.5622150000000  0.4939700000000  0.5273670000000 1.0
C      1  0.4420030000000  0.5174600000000  0.5518030000000 1.0
C      1  0.4691150000000  0.5032480000000  0.5106630000000 1.0
C      1  0.5313460000000  0.5393970000000  0.5544510000000 1.0
C      1  0.4404790000000  0.4978180000000  0.4958700000000 1.0
C      1  0.5071280000000  0.5297500000000  0.4703480000000 1.0
C      1  0.4869290000000  0.5002580000000  0.5615030000000 1.0
C      1  0.4788550000000  0.5796550000000  0.4720810000000 1.0
C      1  0.5327510000000  0.4695960000000  0.4480090000000 1.0
C      1  0.5238080000000  0.5572900000000  0.4657200000000 1.0
C      1  0.5599470000000  0.5486700000000  0.5007620000000 1.0
C      1  0.4259770000000  0.4919670000000  0.5444960000000 1.0
C      1  0.4522430000000  0.5391080000000  0.4568210000000 1.0
C      1  0.5828490000000  0.5028060000000  0.4757910000000 1.0
C      1  0.5629360000000  0.4796910000000  0.4799910000000 1.0
C      1  0.5030090000000  0.4190200000000  0.5066810000000 1.0
C      1  0.5372340000000  0.5091740000000  0.5411710000000 1.0
C      1  0.4904090000000  0.4692910000000  0.5155390000000 1.0
C      1  0.4550110000000  0.4445780000000  0.5265720000000 1.0
C      1  0.4711500000000  0.4395670000000  0.4356100000000 1.0
C      1  0.5042580000000  0.4183760000000  0.4777570000000 1.0
C      1  0.5296480000000  0.4197450000000  0.5193210000000 1.0
C      1  0.5125840000000  0.5142810000000  0.4414980000000 1.0
C      1  0.4437020000000  0.5648930000000  0.4998670000000 1.0
C      1  0.4635330000000  0.4571570000000  0.4706820000000 1.0
C      1  0.4273040000000  0.5694450000000  0.5211140000000 1.0
C      1  0.5056790000000  0.5481700000000  0.5686930000000 1.0
C      1  0.4372280000000  0.4759130000000  0.4782930000000 1.0
C      1  0.4541210000000  0.4576790000000  0.4308930000000 1.0
C      1  0.5225390000000  0.4652420000000  0.5249570000000 1.0
C      1  0.5406220000000  0.4899940000000  0.4941470000000 1.0
C      1  0.4831640000000  0.5283400000000  0.5721020000000 1.0
C      1  0.5363960000000  0.4983800000000  0.4430750000000 1.0
C      1  0.4844990000000  0.5267300000000  0.4377550000000 1.0
C      1  0.4888380000000  0.4396420000000  0.4622590000000 1.0
C      1  0.4572730000000  0.5405270000000  0.5597360000000 1.0
C      1  0.5096400000000  0.4631850000000  0.4644580000000 1.0
C      1  0.5561540000000  0.4578170000000  0.4619090000000 1.0
C      1  0.5154970000000  0.5559600000000  0.5309980000000 1.0
C      1  0.4468900000000  0.4813800000000  0.4483390000000 1.0
C      1  0.5512170000000  0.4332850000000  0.4762020000000 1.0
END
