TITL C-2782230-7391-1266 -0.00204380711713207 125000 -1185.93937950656 0 0 200 (C1) n - 1
REM
REM in /home/nfs/bkarasulu/CARBON/AIRSS/Generating-Clusters/REBO/Higher-Symm/SD-CG/HFTN-CG
REM
REM
REM
REM
REM
REM ./C.cell (12c818d87b63d06a65506943cc24bca4)
REM
REM compiler GCC version 9.2.1 20190827 (Red Hat 9.2.1-1)
REM options -cpp -mtune=generic -march=x86-64 -g -O0 -fpre-include=/usr/include/finclude/math-vector-fortran.h
REM seed 744310133 267228882 -1462536965 -1266942322 -762364622 1896705939 1923101525 -447490090 -423376597 -1184516530 -2040871229 1733058743 729613394 412297485 -1654228239 -1640109656 1511027400 1386331621 -18138017 862583203 649701306 847219952 1288336038 -1741732341 910801774 -1674894998 1963303842 -1216973616 1671372358 -954308652 584791627 1714350001 -535604269
REM
CELL 1.54180   50.00000   50.00000   50.00000   90.00000   90.00000   90.00000
LATT -1
SFAC C  
C      1  0.4890120000000  0.4826340000000  0.5510030000000 1.0
C      1  0.5219500000000  0.4872240000000  0.5487750000000 1.0
C      1  0.5080960000000  0.5177410000000  0.5513880000000 1.0
C      1  0.4755180000000  0.5138240000000  0.5524040000000 1.0
C      1  0.5533280000000  0.4923360000000  0.5480670000000 1.0
C      1  0.5128500000000  0.5513990000000  0.5530740000000 1.0
C      1  0.4441660000000  0.5107590000000  0.5527730000000 1.0
C      1  0.4871220000000  0.4493070000000  0.5509120000000 1.0
C      1  0.4973080000000  0.5624510000000  0.4505400000000 1.0
C      1  0.4265260000000  0.4966100000000  0.4494850000000 1.0
C      1  0.5155060000000  0.4307010000000  0.4535430000000 1.0
C      1  0.5717640000000  0.5080610000000  0.4475990000000 1.0
C      1  0.4625210000000  0.4649190000000  0.3843620000000 1.0
C      1  0.5338680000000  0.4653030000000  0.3847710000000 1.0
C      1  0.5378050000000  0.5335950000000  0.3883900000000 1.0
C      1  0.4674330000000  0.5335100000000  0.3834120000000 1.0
C      1  0.4480840000000  0.5162810000000  0.4651930000000 1.0
C      1  0.4967630000000  0.4574590000000  0.4510840000000 1.0
C      1  0.5419310000000  0.4967340000000  0.4510280000000 1.0
C      1  0.5079080000000  0.5312600000000  0.4454440000000 1.0
C      1  0.4489380000000  0.4676380000000  0.5839290000000 1.0
C      1  0.5308450000000  0.4492200000000  0.5828990000000 1.0
C      1  0.5505130000000  0.5335160000000  0.5795600000000 1.0
C      1  0.4664320000000  0.5524400000000  0.5842730000000 1.0
C      1  0.3874950000000  0.5533020000000  0.4639700000000 1.0
C      1  0.4537870000000  0.3960270000000  0.4620820000000 1.0
C      1  0.6154780000000  0.4508110000000  0.4646290000000 1.0
C      1  0.5499750000000  0.6140370000000  0.4642170000000 1.0
C      1  0.4796080000000  0.5450750000000  0.5563930000000 1.0
C      1  0.4560320000000  0.4792750000000  0.5557250000000 1.0
C      1  0.5191120000000  0.4565510000000  0.5541830000000 1.0
C      1  0.5404120000000  0.5221650000000  0.5526710000000 1.0
C      1  0.4273490000000  0.5171390000000  0.4917070000000 1.0
C      1  0.4832920000000  0.4382250000000  0.4754510000000 1.0
C      1  0.5608930000000  0.4814770000000  0.4749620000000 1.0
C      1  0.5292120000000  0.5633440000000  0.4771480000000 1.0
C      1  0.5486220000000  0.4736520000000  0.5938000000000 1.0
C      1  0.5272700000000  0.5449140000000  0.5961300000000 1.0
C      1  0.4550770000000  0.5274120000000  0.5988220000000 1.0
C      1  0.4730810000000  0.4558480000000  0.5983920000000 1.0
C      1  0.4529300000000  0.5463730000000  0.4633690000000 1.0
C      1  0.4573280000000  0.4716880000000  0.4542190000000 1.0
C      1  0.5562070000000  0.4504460000000  0.4715860000000 1.0
C      1  0.5522350000000  0.5548520000000  0.4666540000000 1.0
C      1  0.4269550000000  0.4470190000000  0.5759810000000 1.0
C      1  0.5520230000000  0.4298130000000  0.5696110000000 1.0
C      1  0.5717110000000  0.5531110000000  0.5676910000000 1.0
C      1  0.4456000000000  0.5738470000000  0.5751440000000 1.0
C      1  0.5094720000000  0.4781330000000  0.5111550000000 1.0
C      1  0.5218970000000  0.5097650000000  0.5096230000000 1.0
C      1  0.4902620000000  0.5185250000000  0.5129180000000 1.0
C      1  0.4780810000000  0.4871090000000  0.5126910000000 1.0
C      1  0.4832110000000  0.5921210000000  0.5477010000000 1.0
C      1  0.4080180000000  0.4843620000000  0.5503620000000 1.0
C      1  0.5141120000000  0.4050930000000  0.5480150000000 1.0
C      1  0.5921750000000  0.5153880000000  0.5429530000000 1.0
C      1  0.5773360000000  0.5213760000000  0.4184380000000 1.0
C      1  0.4804920000000  0.5695250000000  0.4216570000000 1.0
C      1  0.4264120000000  0.4798850000000  0.4196910000000 1.0
C      1  0.5216260000000  0.4263560000000  0.4202450000000 1.0
C      1  0.4929890000000  0.5110890000000  0.4250450000000 1.0
C      1  0.4727800000000  0.4846780000000  0.4324430000000 1.0
C      1  0.5038230000000  0.4728590000000  0.4258810000000 1.0
C      1  0.5250580000000  0.4990830000000  0.4272650000000 1.0
C      1  0.4437130000000  0.5444930000000  0.5158540000000 1.0
C      1  0.4555000000000  0.4409980000000  0.5163920000000 1.0
C      1  0.5578050000000  0.4574010000000  0.5163160000000 1.0
C      1  0.5378610000000  0.5602670000000  0.5158880000000 1.0
C      1  0.4816800000000  0.3974790000000  0.5481990000000 1.0
C      1  0.6020830000000  0.4833650000000  0.5450510000000 1.0
C      1  0.5148750000000  0.6024650000000  0.5472040000000 1.0
C      1  0.3991660000000  0.5164450000000  0.5491120000000 1.0
C      1  0.3950890000000  0.5405620000000  0.4909520000000 1.0
C      1  0.4576000000000  0.3964540000000  0.4936000000000 1.0
C      1  0.6032560000000  0.4598200000000  0.4914570000000 1.0
C      1  0.5408820000000  0.6057550000000  0.4928890000000 1.0
C      1  0.4890490000000  0.6035030000000  0.4965640000000 1.0
C      1  0.3830340000000  0.4857620000000  0.4992030000000 1.0
C      1  0.5092120000000  0.3960040000000  0.4812310000000 1.0
C      1  0.6020770000000  0.5120090000000  0.5018700000000 1.0
C      1  0.5373810000000  0.4407010000000  0.5340230000000 1.0
C      1  0.5526720000000  0.5363120000000  0.5278330000000 1.0
C      1  0.4628240000000  0.5602920000000  0.5346660000000 1.0
C      1  0.4411620000000  0.4619580000000  0.5340910000000 1.0
C      1  0.4122190000000  0.4472340000000  0.4612140000000 1.0
C      1  0.5532250000000  0.4050940000000  0.4576910000000 1.0
C      1  0.5940910000000  0.5484390000000  0.4606290000000 1.0
C      1  0.4544660000000  0.5890940000000  0.4584480000000 1.0
C      1  0.5245390000000  0.5268480000000  0.6204670000000 1.0
C      1  0.4736430000000  0.5241200000000  0.6228060000000 1.0
C      1  0.4782080000000  0.4735210000000  0.6223210000000 1.0
C      1  0.5291350000000  0.4762210000000  0.6194260000000 1.0
C      1  0.5141600000000  0.5914480000000  0.4788500000000 1.0
C      1  0.3975470000000  0.5080400000000  0.4810660000000 1.0
C      1  0.4853550000000  0.4103370000000  0.4819300000000 1.0
C      1  0.5905290000000  0.4886520000000  0.4814970000000 1.0
C      1  0.5713090000000  0.4398790000000  0.4499080000000 1.0
C      1  0.5706970000000  0.5722060000000  0.4487420000000 1.0
C      1  0.4319620000000  0.5639400000000  0.4487250000000 1.0
C      1  0.4441490000000  0.4434610000000  0.4503370000000 1.0
C      1  0.4277390000000  0.4993420000000  0.5274240000000 1.0
C      1  0.4982480000000  0.4277840000000  0.5282770000000 1.0
C      1  0.5716770000000  0.4972450000000  0.5232330000000 1.0
C      1  0.5008910000000  0.5701980000000  0.5284470000000 1.0
C      1  0.5613290000000  0.5784660000000  0.5590440000000 1.0
C      1  0.4232600000000  0.5612900000000  0.5609410000000 1.0
C      1  0.4379110000000  0.4255040000000  0.5587800000000 1.0
C      1  0.5740020000000  0.4448590000000  0.5580620000000 1.0
C      1  0.4205300000000  0.4482250000000  0.4286090000000 1.0
C      1  0.5538260000000  0.4228530000000  0.4308800000000 1.0
C      1  0.5848510000000  0.5518270000000  0.4280290000000 1.0
C      1  0.4494220000000  0.5793380000000  0.4263390000000 1.0
C      1  0.4613730000000  0.4961550000000  0.6220280000000 1.0
C      1  0.5062030000000  0.4608900000000  0.6191930000000 1.0
C      1  0.5408360000000  0.5039060000000  0.6183560000000 1.0
C      1  0.4967740000000  0.5399870000000  0.6205660000000 1.0
C      1  0.4092520000000  0.4438360000000  0.5168500000000 1.0
C      1  0.5596790000000  0.4094090000000  0.5193030000000 1.0
C      1  0.5926320000000  0.5647430000000  0.5191020000000 1.0
C      1  0.4400800000000  0.5885520000000  0.5178220000000 1.0
C      1  0.5851310000000  0.5381300000000  0.4992300000000 1.0
C      1  0.4646880000000  0.5839790000000  0.4967390000000 1.0
C      1  0.4104480000000  0.4678220000000  0.4970010000000 1.0
C      1  0.5353810000000  0.4077020000000  0.4964350000000 1.0
C      1  0.5485220000000  0.5933770000000  0.4461470000000 1.0
C      1  0.4066200000000  0.5493950000000  0.4447530000000 1.0
C      1  0.4608050000000  0.4187490000000  0.4487510000000 1.0
C      1  0.5954480000000  0.4545310000000  0.4444550000000 1.0
C      1  0.6025410000000  0.5186530000000  0.4693290000000 1.0
C      1  0.4836240000000  0.5972470000000  0.4644630000000 1.0
C      1  0.3983160000000  0.4772250000000  0.4662440000000 1.0
C      1  0.5304660000000  0.3898650000000  0.4610130000000 1.0
C      1  0.5110380000000  0.4818460000000  0.3942720000000 1.0
C      1  0.5207630000000  0.5132610000000  0.3964500000000 1.0
C      1  0.4885590000000  0.5154190000000  0.3920120000000 1.0
C      1  0.4778520000000  0.4853690000000  0.3985940000000 1.0
C      1  0.5228610000000  0.5833530000000  0.4408400000000 1.0
C      1  0.4099320000000  0.5233260000000  0.4356350000000 1.0
C      1  0.4868760000000  0.4208610000000  0.4386550000000 1.0
C      1  0.5907780000000  0.4815360000000  0.4375470000000 1.0
C      1  0.5891490000000  0.4991630000000  0.5724710000000 1.0
C      1  0.5029810000000  0.5839030000000  0.5741430000000 1.0
C      1  0.4141140000000  0.5030770000000  0.5778180000000 1.0
C      1  0.4951140000000  0.4164820000000  0.5739800000000 1.0
C      1  0.4335640000000  0.5826870000000  0.4846490000000 1.0
C      1  0.4109330000000  0.4296490000000  0.4858360000000 1.0
C      1  0.5668910000000  0.4134270000000  0.4855260000000 1.0
C      1  0.5842730000000  0.5687810000000  0.4861330000000 1.0
C      1  0.5638410000000  0.5266920000000  0.4749650000000 1.0
C      1  0.4770290000000  0.5599430000000  0.4771920000000 1.0
C      1  0.4360590000000  0.4805400000000  0.4782780000000 1.0
C      1  0.5308570000000  0.4355600000000  0.4792980000000 1.0
C      1  0.4708030000000  0.4113160000000  0.5198700000000 1.0
C      1  0.5891340000000  0.4707610000000  0.5192980000000 1.0
C      1  0.5241180000000  0.5913250000000  0.5175640000000 1.0
C      1  0.4054220000000  0.5222810000000  0.5174240000000 1.0
C      1  0.5188720000000  0.5404000000000  0.4957270000000 1.0
C      1  0.4583940000000  0.5203450000000  0.5031530000000 1.0
C      1  0.4742340000000  0.4570000000000  0.4983700000000 1.0
C      1  0.5409230000000  0.4760260000000  0.4995610000000 1.0
C      1  0.4893900000000  0.4259760000000  0.4093190000000 1.0
C      1  0.5766400000000  0.4900400000000  0.4122950000000 1.0
C      1  0.5110810000000  0.5713350000000  0.4143210000000 1.0
C      1  0.4243880000000  0.5112850000000  0.4125000000000 1.0
C      1  0.5818600000000  0.5425670000000  0.5400970000000 1.0
C      1  0.4534240000000  0.5887480000000  0.5477230000000 1.0
C      1  0.4120010000000  0.4548550000000  0.5481450000000 1.0
C      1  0.5429460000000  0.4103510000000  0.5469660000000 1.0
C      1  0.4903160000000  0.4773500000000  0.4760960000000 1.0
C      1  0.5219670000000  0.4897790000000  0.4752360000000 1.0
C      1  0.5062240000000  0.5186890000000  0.4739800000000 1.0
C      1  0.4763010000000  0.5062760000000  0.4776650000000 1.0
C      1  0.4376430000000  0.4533410000000  0.4014800000000 1.0
C      1  0.5461500000000  0.4412200000000  0.4040020000000 1.0
C      1  0.5565740000000  0.5447630000000  0.4108920000000 1.0
C      1  0.4564600000000  0.5582730000000  0.4020020000000 1.0
C      1  0.4352080000000  0.4170750000000  0.5030330000000 1.0
C      1  0.5806600000000  0.4373160000000  0.5003520000000 1.0
C      1  0.5605340000000  0.5828930000000  0.5041470000000 1.0
C      1  0.4182320000000  0.5588130000000  0.5027610000000 1.0
C      1  0.4973530000000  0.5610710000000  0.5936300000000 1.0
C      1  0.4391740000000  0.4973330000000  0.5960080000000 1.0
C      1  0.5020140000000  0.4386070000000  0.5935190000000 1.0
C      1  0.5624080000000  0.5051250000000  0.5920480000000 1.0
C      1  0.4398920000000  0.5287360000000  0.3985550000000 1.0
C      1  0.4669700000000  0.4361130000000  0.3967890000000 1.0
C      1  0.5614130000000  0.4713830000000  0.3999160000000 1.0
C      1  0.5275460000000  0.5474240000000  0.4244300000000 1.0
C      1  0.4189980000000  0.5696840000000  0.5346650000000 1.0
C      1  0.4259810000000  0.4202060000000  0.5343100000000 1.0
C      1  0.5818220000000  0.4310250000000  0.5338040000000 1.0
C      1  0.5733200000000  0.5871270000000  0.5346070000000 1.0
C      1  0.4832400000000  0.5509920000000  0.5091130000000 1.0
C      1  0.4456370000000  0.4829420000000  0.5083200000000 1.0
C      1  0.5169310000000  0.4451290000000  0.5077080000000 1.0
C      1  0.5537980000000  0.5139210000000  0.5035520000000 1.0
C      1  0.4665980000000  0.4248040000000  0.5591540000000 1.0
C      1  0.5687150000000  0.4736140000000  0.5683660000000 1.0
C      1  0.5325570000000  0.5781030000000  0.5606600000000 1.0
C      1  0.4219990000000  0.5330510000000  0.5657520000000 1.0
END
