TITL C-2782230-7391-891 -0.00138643958465702 125000 -270.687935844748 0 0 45 (Cs) n - 1
REM
REM in /home/nfs/bkarasulu/CARBON/AIRSS/Generating-Clusters/REBO/Higher-Symm/SD-CG/HFTN-CG
REM
REM
REM
REM
REM
REM ./C.cell (12c818d87b63d06a65506943cc24bca4)
REM
REM compiler GCC version 9.2.1 20190827 (Red Hat 9.2.1-1)
REM options -cpp -mtune=generic -march=x86-64 -g -O0 -fpre-include=/usr/include/finclude/math-vector-fortran.h
REM seed -2018039715 1142479494 2093501021 -314750991 -278264733 -2038033100 -771232566 -918459269 -384307555 2055636721 -1405754800 -834697254 -344703037 -64786079 -547122174 1841616885 -611561899 631983176 729671549 -1182826472 -124463932 -134052256 -1626171261 1481725598 868328517 682026803 -178940960 -833112059 1932492959 1736336210 1640664762 -1544980135 -1952551749
REM
CELL 1.54180   50.00000   50.00000   50.00000   90.00000   90.00000   90.00000
LATT -1
SFAC C  
C      1  0.5669020000000  0.4619150000000  0.5218670000000 1.0
C      1  0.5020820000000  0.4635060000000  0.5745310000000 1.0
C      1  0.4367110000000  0.4632390000000  0.5223700000000 1.0
C      1  0.4575570000000  0.4627640000000  0.4393330000000 1.0
C      1  0.5405280000000  0.4625690000000  0.4407080000000 1.0
C      1  0.5545690000000  0.4625800000000  0.5467030000000 1.0
C      1  0.4748170000000  0.4627790000000  0.5696330000000 1.0
C      1  0.4330710000000  0.4632360000000  0.4948870000000 1.0
C      1  0.4826070000000  0.4634900000000  0.4275050000000 1.0
C      1  0.5589020000000  0.4619090000000  0.4614760000000 1.0
C      1  0.4541340000000  0.5104010000000  0.4394390000000 1.0
C      1  0.5405020000000  0.5101040000000  0.4388570000000 1.0
C      1  0.5693380000000  0.5093430000000  0.5193540000000 1.0
C      1  0.5036880000000  0.5112260000000  0.5742610000000 1.0
C      1  0.4389290000000  0.5106300000000  0.5245390000000 1.0
C      1  0.4884450000000  0.5472620000000  0.4776870000000 1.0
C      1  0.5169340000000  0.5471330000000  0.4830580000000 1.0
C      1  0.5207600000000  0.5471360000000  0.5119390000000 1.0
C      1  0.4946520000000  0.5472670000000  0.5245420000000 1.0
C      1  0.4745620000000  0.5483600000000  0.5033640000000 1.0
C      1  0.4346460000000  0.5106260000000  0.4922060000000 1.0
C      1  0.4842260000000  0.5112100000000  0.4273370000000 1.0
C      1  0.5619070000000  0.5093360000000  0.4632580000000 1.0
C      1  0.5550250000000  0.5101160000000  0.5484870000000 1.0
C      1  0.4714830000000  0.5104150000000  0.5704120000000 1.0
C      1  0.5138970000000  0.5073340000000  0.4839780000000 1.0
C      1  0.5175890000000  0.5073370000000  0.5118490000000 1.0
C      1  0.4921880000000  0.5073700000000  0.5243310000000 1.0
C      1  0.4725650000000  0.5030270000000  0.5036340000000 1.0
C      1  0.4861220000000  0.5073650000000  0.4785410000000 1.0
C      1  0.5186900000000  0.4868080000000  0.5727050000000 1.0
C      1  0.4428260000000  0.4860080000000  0.5386480000000 1.0
C      1  0.4445730000000  0.4856730000000  0.4506190000000 1.0
C      1  0.5272190000000  0.4860110000000  0.4309060000000 1.0
C      1  0.5716160000000  0.4846210000000  0.5050120000000 1.0
C      1  0.5332590000000  0.5254410000000  0.4671260000000 1.0
C      1  0.5406700000000  0.5254480000000  0.5230750000000 1.0
C      1  0.4895400000000  0.5271310000000  0.5484630000000 1.0
C      1  0.4496780000000  0.5356320000000  0.5066620000000 1.0
C      1  0.4772820000000  0.5271210000000  0.4559260000000 1.0
C      1  0.4347360000000  0.4860020000000  0.4775740000000 1.0
C      1  0.4991160000000  0.4867920000000  0.4249390000000 1.0
C      1  0.5678420000000  0.4846180000000  0.4765180000000 1.0
C      1  0.5442700000000  0.4860250000000  0.5596270000000 1.0
C      1  0.4593420000000  0.4856850000000  0.5621120000000 1.0
END
