TITL C-2782226-7400-1437 0.00982457259902252 125000 -1023.7337012132 0 0 175 (C1) n - 1
REM
REM in /home/nfs/bkarasulu/CARBON/AIRSS/Generating-Clusters/REBO/Higher-Symm/SD-CG/HFTN-CG
REM
REM
REM
REM
REM
REM ./C.cell (12c818d87b63d06a65506943cc24bca4)
REM
REM compiler GCC version 9.2.1 20190827 (Red Hat 9.2.1-1)
REM options -cpp -mtune=generic -march=x86-64 -g -O0 -fpre-include=/usr/include/finclude/math-vector-fortran.h
REM seed -1604019451 1588392102 2073109624 2098231219 -1387736428 777436668 2044294545 2000920340 -907801400 505725810 -1108597693 1072806005 1981914417 2082939310 1271656613 1986961403 -1616707335 1465753572 976149384 983896442 713031839 -1387800321 1515703986 694700054 -907625616 1478070614 1813591303 805083056 -504892121 1009392465 -504636666 -2058790987 1899359293
REM
CELL 1.54180   50.00000   50.00000   50.00000   90.00000   90.00000   90.00000
LATT -1
SFAC C  
C      1  0.4682550000000  0.4743670000000  0.4259690000000 1.0
C      1  0.4674500000000  0.5746560000000  0.4734610000000 1.0
C      1  0.4719280000000  0.5269960000000  0.5719720000000 1.0
C      1  0.4691700000000  0.4174100000000  0.5274140000000 1.0
C      1  0.5204360000000  0.5239610000000  0.4298820000000 1.0
C      1  0.5262850000000  0.4235300000000  0.4758770000000 1.0
C      1  0.5320940000000  0.4662840000000  0.5820790000000 1.0
C      1  0.5316540000000  0.5863020000000  0.5309060000000 1.0
C      1  0.4571970000000  0.4392150000000  0.4273250000000 1.0
C      1  0.4558720000000  0.5741290000000  0.4384630000000 1.0
C      1  0.4604560000000  0.5616980000000  0.5762350000000 1.0
C      1  0.4551380000000  0.4202500000000  0.5585200000000 1.0
C      1  0.5361130000000  0.5619750000000  0.4254280000000 1.0
C      1  0.5471160000000  0.4075890000000  0.4383910000000 1.0
C      1  0.5467070000000  0.4361110000000  0.5745490000000 1.0
C      1  0.5419520000000  0.5731370000000  0.5636390000000 1.0
C      1  0.4311130000000  0.5446560000000  0.4186610000000 1.0
C      1  0.4336280000000  0.5845270000000  0.5441880000000 1.0
C      1  0.4418450000000  0.4685390000000  0.5579630000000 1.0
C      1  0.4377130000000  0.4199910000000  0.4606050000000 1.0
C      1  0.5565540000000  0.4643420000000  0.4282930000000 1.0
C      1  0.5722620000000  0.4254830000000  0.5374010000000 1.0
C      1  0.5653330000000  0.5372050000000  0.5753850000000 1.0
C      1  0.5639220000000  0.5750070000000  0.4659680000000 1.0
C      1  0.5194320000000  0.4398810000000  0.5541910000000 1.0
C      1  0.5256540000000  0.4246350000000  0.4305760000000 1.0
C      1  0.5153320000000  0.5603090000000  0.4511900000000 1.0
C      1  0.5206000000000  0.5466500000000  0.5577270000000 1.0
C      1  0.4832090000000  0.5590180000000  0.5509730000000 1.0
C      1  0.4775620000000  0.5492840000000  0.4443690000000 1.0
C      1  0.4824550000000  0.4456330000000  0.4495050000000 1.0
C      1  0.4761470000000  0.4465840000000  0.5535620000000 1.0
C      1  0.4458830000000  0.3945470000000  0.4685090000000 1.0
C      1  0.4387230000000  0.5299090000000  0.3931980000000 1.0
C      1  0.4419050000000  0.6105620000000  0.5289720000000 1.0
C      1  0.4460180000000  0.4696440000000  0.5850270000000 1.0
C      1  0.5580960000000  0.6013640000000  0.4709830000000 1.0
C      1  0.5522710000000  0.4715040000000  0.4026730000000 1.0
C      1  0.5625390000000  0.4004890000000  0.5325280000000 1.0
C      1  0.5570660000000  0.5303380000000  0.6004450000000 1.0
C      1  0.4941810000000  0.5576260000000  0.6018500000000 1.0
C      1  0.4911760000000  0.3990650000000  0.5669140000000 1.0
C      1  0.4860510000000  0.4369150000000  0.3997450000000 1.0
C      1  0.4860930000000  0.6002890000000  0.4372000000000 1.0
C      1  0.4967390000000  0.4405350000000  0.6006030000000 1.0
C      1  0.5118990000000  0.5982290000000  0.5726080000000 1.0
C      1  0.5042410000000  0.5601610000000  0.4013330000000 1.0
C      1  0.4990480000000  0.3980180000000  0.4439890000000 1.0
C      1  0.4312360000000  0.4204490000000  0.5394560000000 1.0
C      1  0.4328340000000  0.4570310000000  0.4203670000000 1.0
C      1  0.4324910000000  0.5827740000000  0.4559910000000 1.0
C      1  0.4361090000000  0.5436280000000  0.5775620000000 1.0
C      1  0.5687630000000  0.5826870000000  0.5448850000000 1.0
C      1  0.5561070000000  0.5427220000000  0.4254890000000 1.0
C      1  0.5631480000000  0.4181990000000  0.4592460000000 1.0
C      1  0.5711940000000  0.4584820000000  0.5814070000000 1.0
C      1  0.4057270000000  0.5457120000000  0.4990740000000 1.0
C      1  0.4071590000000  0.4989780000000  0.5258530000000 1.0
C      1  0.4052390000000  0.4545830000000  0.4952610000000 1.0
C      1  0.4074210000000  0.4975870000000  0.4654430000000 1.0
C      1  0.5968650000000  0.4619920000000  0.5027500000000 1.0
C      1  0.5922620000000  0.5018110000000  0.5394720000000 1.0
C      1  0.5885820000000  0.5394390000000  0.5004920000000 1.0
C      1  0.5889100000000  0.4996800000000  0.4624770000000 1.0
C      1  0.5158730000000  0.4995720000000  0.5967410000000 1.0
C      1  0.5175430000000  0.4015310000000  0.5076590000000 1.0
C      1  0.5102490000000  0.4974680000000  0.4021400000000 1.0
C      1  0.5136690000000  0.6023310000000  0.4993180000000 1.0
C      1  0.4878900000000  0.4979000000000  0.5954060000000 1.0
C      1  0.4854440000000  0.6021340000000  0.4998990000000 1.0
C      1  0.4824020000000  0.5000660000000  0.3991990000000 1.0
C      1  0.4895990000000  0.3978170000000  0.4998290000000 1.0
C      1  0.5285740000000  0.4671960000000  0.5090180000000 1.0
C      1  0.5236450000000  0.5070800000000  0.4766720000000 1.0
C      1  0.5185650000000  0.5421840000000  0.5029620000000 1.0
C      1  0.5263230000000  0.4974340000000  0.5348470000000 1.0
C      1  0.4791650000000  0.5439370000000  0.4979460000000 1.0
C      1  0.4806590000000  0.4986030000000  0.4566210000000 1.0
C      1  0.4942860000000  0.4520410000000  0.4966940000000 1.0
C      1  0.4881170000000  0.5023170000000  0.5256490000000 1.0
C      1  0.5737980000000  0.5489690000000  0.5462730000000 1.0
C      1  0.5782980000000  0.4553080000000  0.5490000000000 1.0
C      1  0.5659100000000  0.4503960000000  0.4562880000000 1.0
C      1  0.5662410000000  0.5436700000000  0.4561390000000 1.0
C      1  0.4246850000000  0.4519820000000  0.5381760000000 1.0
C      1  0.4271930000000  0.5512350000000  0.5475400000000 1.0
C      1  0.4253740000000  0.5498940000000  0.4508580000000 1.0
C      1  0.4284180000000  0.4515530000000  0.4524860000000 1.0
C      1  0.5456860000000  0.4616970000000  0.5509160000000 1.0
C      1  0.5336510000000  0.4447690000000  0.4546050000000 1.0
C      1  0.5350940000000  0.5331770000000  0.4580800000000 1.0
C      1  0.5429940000000  0.5542960000000  0.5344920000000 1.0
C      1  0.4570340000000  0.5386050000000  0.5439030000000 1.0
C      1  0.4531900000000  0.5458040000000  0.4664520000000 1.0
C      1  0.4565370000000  0.4667620000000  0.4559050000000 1.0
C      1  0.4559780000000  0.4489050000000  0.5261740000000 1.0
C      1  0.4558880000000  0.3930290000000  0.4967980000000 1.0
C      1  0.4487190000000  0.5023200000000  0.3946110000000 1.0
C      1  0.4520530000000  0.6086110000000  0.5008770000000 1.0
C      1  0.4539030000000  0.4960190000000  0.5954270000000 1.0
C      1  0.5474540000000  0.6070770000000  0.4983340000000 1.0
C      1  0.5420070000000  0.4984510000000  0.3976810000000 1.0
C      1  0.5495060000000  0.3976160000000  0.5065000000000 1.0
C      1  0.5479030000000  0.5025180000000  0.6030130000000 1.0
C      1  0.4800760000000  0.5365390000000  0.6001880000000 1.0
C      1  0.4809670000000  0.3931910000000  0.5444880000000 1.0
C      1  0.4769100000000  0.4606290000000  0.4000110000000 1.0
C      1  0.4755210000000  0.6010620000000  0.4604520000000 1.0
C      1  0.5119230000000  0.4604810000000  0.6041280000000 1.0
C      1  0.5230660000000  0.6061870000000  0.5513890000000 1.0
C      1  0.5148970000000  0.5371330000000  0.4024950000000 1.0
C      1  0.5136540000000  0.4011880000000  0.4669710000000 1.0
C      1  0.5814820000000  0.5699520000000  0.5014210000000 1.0
C      1  0.5832490000000  0.5020900000000  0.5692550000000 1.0
C      1  0.5858270000000  0.4301580000000  0.4993000000000 1.0
C      1  0.5747260000000  0.5007620000000  0.4330070000000 1.0
C      1  0.4212220000000  0.4303920000000  0.4954370000000 1.0
C      1  0.4236720000000  0.5037380000000  0.5552080000000 1.0
C      1  0.4198740000000  0.5714730000000  0.4992190000000 1.0
C      1  0.4194980000000  0.5000760000000  0.4366350000000 1.0
C      1  0.5548100000000  0.4980140000000  0.4832780000000 1.0
C      1  0.5490800000000  0.5275550000000  0.4993430000000 1.0
C      1  0.5552350000000  0.5069790000000  0.5222040000000 1.0
C      1  0.5594050000000  0.4773170000000  0.5082370000000 1.0
C      1  0.4599380000000  0.4917270000000  0.4787820000000 1.0
C      1  0.4631580000000  0.4659290000000  0.4976180000000 1.0
C      1  0.4606970000000  0.5169840000000  0.5208100000000 1.0
C      1  0.4561030000000  0.5212410000000  0.4898470000000 1.0
C      1  0.4780690000000  0.4972220000000  0.5638890000000 1.0
C      1  0.4750440000000  0.4278840000000  0.4975740000000 1.0
C      1  0.4678950000000  0.5063920000000  0.4291520000000 1.0
C      1  0.4689890000000  0.5727850000000  0.5049020000000 1.0
C      1  0.5319800000000  0.4955950000000  0.5670720000000 1.0
C      1  0.5281170000000  0.5725590000000  0.5023300000000 1.0
C      1  0.5246300000000  0.4919390000000  0.4329300000000 1.0
C      1  0.5313850000000  0.4332100000000  0.5053250000000 1.0
C      1  0.5686600000000  0.5924040000000  0.5173260000000 1.0
C      1  0.5696480000000  0.4854830000000  0.5898830000000 1.0
C      1  0.5678100000000  0.4102370000000  0.4860730000000 1.0
C      1  0.5597220000000  0.5169080000000  0.4139260000000 1.0
C      1  0.4331530000000  0.4087750000000  0.5127750000000 1.0
C      1  0.4348230000000  0.5153250000000  0.5810270000000 1.0
C      1  0.4328820000000  0.5923600000000  0.4827670000000 1.0
C      1  0.4317560000000  0.4846400000000  0.4132470000000 1.0
C      1  0.5012960000000  0.5439640000000  0.4760420000000 1.0
C      1  0.5067260000000  0.5201810000000  0.5481990000000 1.0
C      1  0.5064380000000  0.4539730000000  0.5285100000000 1.0
C      1  0.5080820000000  0.4861870000000  0.4592120000000 1.0
C      1  0.5061570000000  0.4569240000000  0.4670790000000 1.0
C      1  0.4870780000000  0.4746830000000  0.5429470000000 1.0
C      1  0.4957250000000  0.5415260000000  0.5264710000000 1.0
C      1  0.4959610000000  0.5254820000000  0.4501940000000 1.0
C      1  0.4079570000000  0.4670470000000  0.4699330000000 1.0
C      1  0.4078270000000  0.5317420000000  0.4685090000000 1.0
C      1  0.4092720000000  0.5329010000000  0.5291140000000 1.0
C      1  0.4065830000000  0.4680760000000  0.5203970000000 1.0
C      1  0.5843950000000  0.5274010000000  0.4746740000000 1.0
C      1  0.5821020000000  0.4677770000000  0.4725650000000 1.0
C      1  0.5927370000000  0.4744790000000  0.5300800000000 1.0
C      1  0.5886550000000  0.5283250000000  0.5273740000000 1.0
C      1  0.4413610000000  0.5189090000000  0.4315150000000 1.0
C      1  0.4424130000000  0.5723860000000  0.5175570000000 1.0
C      1  0.4527770000000  0.4950430000000  0.5429070000000 1.0
C      1  0.4496030000000  0.4389440000000  0.4837850000000 1.0
C      1  0.5519800000000  0.4876280000000  0.4529050000000 1.0
C      1  0.5616790000000  0.4461690000000  0.5139090000000 1.0
C      1  0.5569730000000  0.5136200000000  0.5539290000000 1.0
C      1  0.5535760000000  0.5570520000000  0.4914250000000 1.0
C      1  0.4950980000000  0.5725460000000  0.4281110000000 1.0
C      1  0.5033770000000  0.5691280000000  0.5751340000000 1.0
C      1  0.4956990000000  0.4289330000000  0.5721860000000 1.0
C      1  0.4944020000000  0.4248850000000  0.4265570000000 1.0
C      1  0.6120610000000  0.4818810000000  0.4798740000000 1.0
C      1  0.4042200000000  0.5118710000000  0.4961730000000 1.0
C      1  0.5125040000000  0.4953570000000  0.5038150000000 1.0
END
