TITL C-2782237-5345-1389 -0.00132406456158669 125000 -949.153249613018 0 0 163 (C1) n - 1
REM
REM in /home/nfs/bkarasulu/CARBON/AIRSS/Generating-Clusters/REBO/Higher-Symm/SD-CG/HFTN-CG
REM
REM
REM
REM
REM
REM ./C.cell (12c818d87b63d06a65506943cc24bca4)
REM
REM compiler GCC version 9.2.1 20190827 (Red Hat 9.2.1-1)
REM options -cpp -mtune=generic -march=x86-64 -g -O0 -fpre-include=/usr/include/finclude/math-vector-fortran.h
REM seed -270214278 -2036835842 -1147416590 -6850659 485300746 1629791399 -1609439163 -104024647 879825134 -1056241385 -901522685 -613771832 813621633 -136643856 -1215977021 1142682809 -112243567 -1948135507 -1911396101 -233450754 1880835288 1673982387 1162278932 772575781 -849673640 -641676912 23390328 -1496595634 291708634 -1391044479 -721919656 1639495149 432750986
REM
CELL 1.54180   50.00000   50.00000   50.00000   90.00000   90.00000   90.00000
LATT -1
SFAC C  
C      1  0.5026880000000  0.5941190000000  0.4376230000000 1.0
C      1  0.5103700000000  0.4807070000000  0.5302580000000 1.0
C      1  0.4619240000000  0.4403370000000  0.4320230000000 1.0
C      1  0.5553170000000  0.4286510000000  0.4993760000000 1.0
C      1  0.5424620000000  0.5025230000000  0.3986590000000 1.0
C      1  0.4772820000000  0.4708130000000  0.4524060000000 1.0
C      1  0.4843790000000  0.5522170000000  0.4006660000000 1.0
C      1  0.5278310000000  0.4300610000000  0.5588870000000 1.0
C      1  0.4454730000000  0.4552710000000  0.5778440000000 1.0
C      1  0.4997280000000  0.4860080000000  0.4632320000000 1.0
C      1  0.4429080000000  0.4509630000000  0.5441150000000 1.0
C      1  0.4223270000000  0.5412650000000  0.5527520000000 1.0
C      1  0.4826560000000  0.6137490000000  0.5112030000000 1.0
C      1  0.4021960000000  0.5028850000000  0.4616930000000 1.0
C      1  0.5602440000000  0.5171280000000  0.5503880000000 1.0
C      1  0.5010330000000  0.6017510000000  0.4934710000000 1.0
C      1  0.4514940000000  0.4791840000000  0.5911160000000 1.0
C      1  0.5519240000000  0.5704880000000  0.5614430000000 1.0
C      1  0.6074830000000  0.4760210000000  0.5111620000000 1.0
C      1  0.4123720000000  0.4902750000000  0.5604640000000 1.0
C      1  0.4946230000000  0.6027770000000  0.4668990000000 1.0
C      1  0.5439530000000  0.4321080000000  0.4299490000000 1.0
C      1  0.4734290000000  0.5829930000000  0.4505250000000 1.0
C      1  0.4974310000000  0.5544310000000  0.5159820000000 1.0
C      1  0.5868950000000  0.5507900000000  0.5340920000000 1.0
C      1  0.5510360000000  0.5356970000000  0.5249060000000 1.0
C      1  0.4654520000000  0.5740800000000  0.5726600000000 1.0
C      1  0.5335670000000  0.4648590000000  0.4615740000000 1.0
C      1  0.4076260000000  0.4935520000000  0.4294430000000 1.0
C      1  0.5096210000000  0.5574550000000  0.5810900000000 1.0
C      1  0.5795260000000  0.5033700000000  0.4391920000000 1.0
C      1  0.4407240000000  0.4537150000000  0.4140850000000 1.0
C      1  0.5751540000000  0.4427450000000  0.5480940000000 1.0
C      1  0.5378330000000  0.5671560000000  0.5849570000000 1.0
C      1  0.5059250000000  0.4524340000000  0.5837570000000 1.0
C      1  0.5103970000000  0.5440270000000  0.3965770000000 1.0
C      1  0.5681700000000  0.4985350000000  0.5848760000000 1.0
C      1  0.5019080000000  0.5938360000000  0.5499850000000 1.0
C      1  0.4925360000000  0.5183890000000  0.4214020000000 1.0
C      1  0.5828180000000  0.5238030000000  0.5182440000000 1.0
C      1  0.5381730000000  0.5581360000000  0.4905410000000 1.0
C      1  0.5200600000000  0.5319850000000  0.4776750000000 1.0
C      1  0.4647180000000  0.4304290000000  0.5704160000000 1.0
C      1  0.5307370000000  0.4309810000000  0.5304840000000 1.0
C      1  0.4835100000000  0.4420520000000  0.5371760000000 1.0
C      1  0.5526200000000  0.4797910000000  0.5623750000000 1.0
C      1  0.5430360000000  0.4693900000000  0.3969610000000 1.0
C      1  0.5341110000000  0.4985700000000  0.5924280000000 1.0
C      1  0.4630930000000  0.5299700000000  0.4144590000000 1.0
C      1  0.4924780000000  0.5601810000000  0.4828030000000 1.0
C      1  0.5344720000000  0.4833110000000  0.4985270000000 1.0
C      1  0.4186670000000  0.5637290000000  0.5107320000000 1.0
C      1  0.4218750000000  0.5684330000000  0.5422770000000 1.0
C      1  0.3889790000000  0.4626280000000  0.5070350000000 1.0
C      1  0.4258290000000  0.4110310000000  0.4670470000000 1.0
C      1  0.4284930000000  0.4777170000000  0.4145170000000 1.0
C      1  0.4330060000000  0.4998980000000  0.5842320000000 1.0
C      1  0.5769680000000  0.5316400000000  0.5828900000000 1.0
C      1  0.5190830000000  0.4745410000000  0.5625600000000 1.0
C      1  0.4943380000000  0.4352650000000  0.4363970000000 1.0
C      1  0.4329220000000  0.4666040000000  0.4848660000000 1.0
C      1  0.5486530000000  0.4219010000000  0.4568870000000 1.0
C      1  0.5895160000000  0.4532420000000  0.4946150000000 1.0
C      1  0.5404560000000  0.5349150000000  0.4097890000000 1.0
C      1  0.4811600000000  0.4024800000000  0.4953790000000 1.0
C      1  0.4837490000000  0.4101040000000  0.5421690000000 1.0
C      1  0.4774560000000  0.4102080000000  0.4468030000000 1.0
C      1  0.4506640000000  0.4176970000000  0.5429360000000 1.0
C      1  0.4784030000000  0.6012660000000  0.5356870000000 1.0
C      1  0.4181440000000  0.4470190000000  0.5085490000000 1.0
C      1  0.5119040000000  0.5120150000000  0.3939070000000 1.0
C      1  0.4408780000000  0.5259360000000  0.5360760000000 1.0
C      1  0.5436900000000  0.5117400000000  0.4816110000000 1.0
C      1  0.4643530000000  0.5479060000000  0.4945910000000 1.0
C      1  0.5885360000000  0.5419010000000  0.4618830000000 1.0
C      1  0.4528270000000  0.5825300000000  0.5445260000000 1.0
C      1  0.4441590000000  0.5072430000000  0.4218590000000 1.0
C      1  0.6011240000000  0.5047790000000  0.4986590000000 1.0
C      1  0.5569630000000  0.4553830000000  0.4176520000000 1.0
C      1  0.5061920000000  0.5395330000000  0.5547420000000 1.0
C      1  0.4445670000000  0.4615780000000  0.4530730000000 1.0
C      1  0.5009470000000  0.4877440000000  0.4234460000000 1.0
C      1  0.4735560000000  0.5194960000000  0.5662760000000 1.0
C      1  0.5261400000000  0.4096270000000  0.4790100000000 1.0
C      1  0.5249560000000  0.4881220000000  0.4431000000000 1.0
C      1  0.3972670000000  0.5103660000000  0.4909480000000 1.0
C      1  0.5216610000000  0.5728730000000  0.4381520000000 1.0
C      1  0.5698170000000  0.4259770000000  0.5246670000000 1.0
C      1  0.5424230000000  0.4591320000000  0.5213360000000 1.0
C      1  0.5974010000000  0.5117090000000  0.4655960000000 1.0
C      1  0.4968200000000  0.3981660000000  0.5184440000000 1.0
C      1  0.5703300000000  0.4647220000000  0.5154360000000 1.0
C      1  0.4374390000000  0.5697640000000  0.4398570000000 1.0
C      1  0.5620420000000  0.5022910000000  0.5059710000000 1.0
C      1  0.5049920000000  0.4760360000000  0.4909720000000 1.0
C      1  0.5048010000000  0.5092210000000  0.5123690000000 1.0
C      1  0.5241120000000  0.4408970000000  0.4919210000000 1.0
C      1  0.5114740000000  0.4779500000000  0.3933670000000 1.0
C      1  0.5007030000000  0.5038950000000  0.5964720000000 1.0
C      1  0.4508050000000  0.5144880000000  0.4655300000000 1.0
C      1  0.4446600000000  0.5252580000000  0.5817750000000 1.0
C      1  0.4613700000000  0.5504400000000  0.5877840000000 1.0
C      1  0.5471500000000  0.5010880000000  0.4298220000000 1.0
C      1  0.4740970000000  0.4419700000000  0.4701670000000 1.0
C      1  0.5319750000000  0.5845190000000  0.5376460000000 1.0
C      1  0.4716850000000  0.4869040000000  0.5574960000000 1.0
C      1  0.4942960000000  0.5142710000000  0.4796090000000 1.0
C      1  0.4780550000000  0.5037650000000  0.5301770000000 1.0
C      1  0.5772610000000  0.4881690000000  0.4798130000000 1.0
C      1  0.5749450000000  0.5530580000000  0.5599140000000 1.0
C      1  0.5175070000000  0.5795490000000  0.5070880000000 1.0
C      1  0.4981200000000  0.4236740000000  0.5695080000000 1.0
C      1  0.4929930000000  0.5808580000000  0.5730840000000 1.0
C      1  0.4750040000000  0.4832790000000  0.5054150000000 1.0
C      1  0.4254700000000  0.5138280000000  0.5100190000000 1.0
C      1  0.5533270000000  0.5668630000000  0.5187570000000 1.0
C      1  0.5506540000000  0.4472530000000  0.5706520000000 1.0
C      1  0.5870130000000  0.4981470000000  0.5564120000000 1.0
C      1  0.4502460000000  0.4182060000000  0.4621770000000 1.0
C      1  0.4655980000000  0.5542790000000  0.4357450000000 1.0
C      1  0.4152770000000  0.4664910000000  0.5367630000000 1.0
C      1  0.5445430000000  0.5643020000000  0.4231180000000 1.0
C      1  0.4313450000000  0.5410560000000  0.4669060000000 1.0
C      1  0.5578630000000  0.5403240000000  0.4695910000000 1.0
C      1  0.5072060000000  0.4463580000000  0.4643050000000 1.0
C      1  0.4495130000000  0.5667880000000  0.5145670000000 1.0
C      1  0.5434650000000  0.5282430000000  0.5781340000000 1.0
C      1  0.5217050000000  0.5123710000000  0.5591270000000 1.0
C      1  0.4382120000000  0.4249610000000  0.5141860000000 1.0
C      1  0.5389860000000  0.4962050000000  0.5358760000000 1.0
C      1  0.4789920000000  0.4865910000000  0.5975090000000 1.0
C      1  0.5180110000000  0.4271730000000  0.4190200000000 1.0
C      1  0.4321650000000  0.4906340000000  0.4614900000000 1.0
C      1  0.4140670000000  0.5393940000000  0.4926240000000 1.0
C      1  0.5715410000000  0.5713660000000  0.4280230000000 1.0
C      1  0.5846130000000  0.5751670000000  0.5176130000000 1.0
C      1  0.5652570000000  0.4656280000000  0.4647410000000 1.0
C      1  0.5129120000000  0.5574050000000  0.4598670000000 1.0
C      1  0.4958320000000  0.4005790000000  0.4699350000000 1.0
C      1  0.4206770000000  0.5228870000000  0.4409150000000 1.0
C      1  0.4776410000000  0.5362080000000  0.5368590000000 1.0
C      1  0.4334210000000  0.4832950000000  0.5130440000000 1.0
C      1  0.4787710000000  0.4691190000000  0.3965550000000 1.0
C      1  0.4910720000000  0.5338560000000  0.5912570000000 1.0
C      1  0.5234220000000  0.4076100000000  0.5131900000000 1.0
C      1  0.5728160000000  0.4710490000000  0.4351160000000 1.0
C      1  0.5924490000000  0.5612720000000  0.4429920000000 1.0
C      1  0.4638740000000  0.5138690000000  0.4945810000000 1.0
C      1  0.4650760000000  0.4289280000000  0.4974460000000 1.0
C      1  0.5907390000000  0.4721990000000  0.5406870000000 1.0
C      1  0.4820390000000  0.4597000000000  0.5629560000000 1.0
C      1  0.5583070000000  0.5302480000000  0.4386470000000 1.0
C      1  0.4506220000000  0.5671730000000  0.4701890000000 1.0
C      1  0.4784610000000  0.5268020000000  0.4512130000000 1.0
C      1  0.5339250000000  0.4655290000000  0.5941200000000 1.0
C      1  0.4419450000000  0.4948090000000  0.5440660000000 1.0
C      1  0.5205230000000  0.5325010000000  0.5246370000000 1.0
C      1  0.5024700000000  0.4539070000000  0.5147790000000 1.0
C      1  0.3820870000000  0.4863040000000  0.5032710000000 1.0
C      1  0.4671870000000  0.4822470000000  0.4231460000000 1.0
C      1  0.4050410000000  0.5224920000000  0.5661090000000 1.0
C      1  0.5728860000000  0.4358920000000  0.4732670000000 1.0
C      1  0.4626550000000  0.4563830000000  0.5167770000000 1.0
END
