TITL C-2782239-8622-1122 -0.00161528100242657 125000 -189.009167240944 0 0 32 (C1) n - 1
REM
REM in /home/nfs/bkarasulu/CARBON/AIRSS/Generating-Clusters/REBO/Higher-Symm/SD-CG/HFTN-CG
REM
REM
REM
REM
REM
REM ./C.cell (12c818d87b63d06a65506943cc24bca4)
REM
REM compiler GCC version 9.2.1 20190827 (Red Hat 9.2.1-1)
REM options -cpp -mtune=generic -march=x86-64 -g -O0 -fpre-include=/usr/include/finclude/math-vector-fortran.h
REM seed 673943005 -1131416897 -929247835 998536287 -1777037584 -557629870 -126568812 1379579107 -1966678117 1935275018 1143415668 -1456982618 30976772 20321632 -1948696234 -1097178455 217170117 1908767260 1023476613 475412474 -1524306853 1197677928 1512758028 -1963578533 -1539701325 -155455825 1354210461 -1548919002 647304690 1138343468 1727659962 818348009 306214662
REM
CELL 1.54180   50.00000   50.00000   50.00000   90.00000   90.00000   90.00000
LATT -1
SFAC C  
C      1  0.5262200000000  0.5123880000000  0.5139810000000 1.0
C      1  0.5276310000000  0.5080980000000  0.4805710000000 1.0
C      1  0.5587320000000  0.4667170000000  0.5352090000000 1.0
C      1  0.5568010000000  0.4565060000000  0.4645770000000 1.0
C      1  0.4840960000000  0.4837620000000  0.4858770000000 1.0
C      1  0.4841400000000  0.4862240000000  0.5145030000000 1.0
C      1  0.5710300000000  0.4905510000000  0.5260860000000 1.0
C      1  0.5706090000000  0.4812050000000  0.4635820000000 1.0
C      1  0.5571030000000  0.5067140000000  0.5073880000000 1.0
C      1  0.5601040000000  0.5030600000000  0.4778000000000 1.0
C      1  0.5107790000000  0.4881320000000  0.5253460000000 1.0
C      1  0.5107640000000  0.4823540000000  0.4749430000000 1.0
C      1  0.4921780000000  0.5303380000000  0.4500710000000 1.0
C      1  0.4939330000000  0.5371960000000  0.5411700000000 1.0
C      1  0.5499680000000  0.5815430000000  0.5238130000000 1.0
C      1  0.5345920000000  0.5603890000000  0.5255100000000 1.0
C      1  0.5160820000000  0.5308200000000  0.4630220000000 1.0
C      1  0.5183590000000  0.5380580000000  0.5273010000000 1.0
C      1  0.5439170000000  0.4436130000000  0.5175320000000 1.0
C      1  0.5435150000000  0.4400450000000  0.4895840000000 1.0
C      1  0.4711060000000  0.5223580000000  0.5431030000000 1.0
C      1  0.4698130000000  0.5146610000000  0.4516130000000 1.0
C      1  0.4114340000000  0.4998210000000  0.4723100000000 1.0
C      1  0.4118000000000  0.5047760000000  0.5261150000000 1.0
C      1  0.4368720000000  0.4974040000000  0.4849210000000 1.0
C      1  0.4370610000000  0.5000310000000  0.5138200000000 1.0
C      1  0.5250070000000  0.4586610000000  0.4703380000000 1.0
C      1  0.5263600000000  0.4661600000000  0.5334210000000 1.0
C      1  0.4626400000000  0.5008960000000  0.5266150000000 1.0
C      1  0.4622880000000  0.4961170000000  0.4717530000000 1.0
C      1  0.3876270000000  0.5069740000000  0.5128580000000 1.0
C      1  0.3874390000000  0.5044280000000  0.4852670000000 1.0
END
