TITL C-2782235-7892-513 -0.00157138768652758 125000 -252.585297777 0 0 43 (C1) n - 1
REM
REM in /home/nfs/bkarasulu/CARBON/AIRSS/Generating-Clusters/REBO/Higher-Symm/SD-CG/HFTN-CG
REM
REM
REM
REM
REM
REM ./C.cell (12c818d87b63d06a65506943cc24bca4)
REM
REM compiler GCC version 9.2.1 20190827 (Red Hat 9.2.1-1)
REM options -cpp -mtune=generic -march=x86-64 -g -O0 -fpre-include=/usr/include/finclude/math-vector-fortran.h
REM seed 76196937 865423218 661539104 1240228712 -1303000254 -1714836700 -256825292 1755173262 1732707304 -927440786 -1938566999 -1903702188 702638466 2101221066 1186340793 594478250 273649521 -1820333256 -2039849335 1163688499 1225459416 -630220051 -479182667 -1542842182 1678180521 1554583838 2140530266 -1991158270 427870641 -2040932564 -842202872 2001124901 -1093724264
REM
CELL 1.54180   50.00000   50.00000   50.00000   90.00000   90.00000   90.00000
LATT -1
SFAC C  
C      1  0.4681070000000  0.4540460000000  0.4499320000000 1.0
C      1  0.5399710000000  0.4602840000000  0.4532130000000 1.0
C      1  0.5550470000000  0.4840220000000  0.4954880000000 1.0
C      1  0.4482880000000  0.4812490000000  0.4959040000000 1.0
C      1  0.4838690000000  0.4978900000000  0.4290050000000 1.0
C      1  0.5138610000000  0.4990070000000  0.4369410000000 1.0
C      1  0.5331030000000  0.5509310000000  0.5304020000000 1.0
C      1  0.4696560000000  0.5496630000000  0.5314320000000 1.0
C      1  0.5110030000000  0.4367620000000  0.4830810000000 1.0
C      1  0.4871750000000  0.4369400000000  0.4684310000000 1.0
C      1  0.5228650000000  0.4949560000000  0.4953670000000 1.0
C      1  0.4717630000000  0.5044000000000  0.4997380000000 1.0
C      1  0.5718740000000  0.4876370000000  0.5164880000000 1.0
C      1  0.4301930000000  0.4807190000000  0.5170020000000 1.0
C      1  0.4705950000000  0.5460110000000  0.5583830000000 1.0
C      1  0.5317430000000  0.5409980000000  0.5557470000000 1.0
C      1  0.4676830000000  0.5473550000000  0.4488350000000 1.0
C      1  0.5290330000000  0.5529060000000  0.4590740000000 1.0
C      1  0.4698890000000  0.5185160000000  0.4424430000000 1.0
C      1  0.5271920000000  0.5276890000000  0.4494040000000 1.0
C      1  0.5055190000000  0.4477770000000  0.5096580000000 1.0
C      1  0.4790260000000  0.4569370000000  0.5113080000000 1.0
C      1  0.5100690000000  0.5074610000000  0.4691390000000 1.0
C      1  0.4811990000000  0.5195260000000  0.4738280000000 1.0
C      1  0.5359900000000  0.4589410000000  0.4840380000000 1.0
C      1  0.4617450000000  0.4545470000000  0.4832670000000 1.0
C      1  0.5130650000000  0.5591830000000  0.4820330000000 1.0
C      1  0.4821440000000  0.5535850000000  0.4773700000000 1.0
C      1  0.4372690000000  0.4849970000000  0.5438730000000 1.0
C      1  0.5618690000000  0.4852280000000  0.5423250000000 1.0
C      1  0.5316460000000  0.4744800000000  0.4345830000000 1.0
C      1  0.4720060000000  0.4722600000000  0.4295710000000 1.0
C      1  0.5156940000000  0.5221220000000  0.5692490000000 1.0
C      1  0.4850940000000  0.5277080000000  0.5742370000000 1.0
C      1  0.4774870000000  0.4825310000000  0.5229200000000 1.0
C      1  0.5248490000000  0.4696800000000  0.5169470000000 1.0
C      1  0.5160180000000  0.4915820000000  0.5612660000000 1.0
C      1  0.4848980000000  0.4970170000000  0.5672850000000 1.0
C      1  0.4656090000000  0.4871900000000  0.5485680000000 1.0
C      1  0.5340870000000  0.4789540000000  0.5437860000000 1.0
C      1  0.4798780000000  0.5423880000000  0.5078000000000 1.0
C      1  0.5195900000000  0.5453410000000  0.5065810000000 1.0
C      1  0.5028460000000  0.5172710000000  0.5071820000000 1.0
END
