TITL C-2782230-7391-1258 -0.00192655815819027 125000 -662.692044257611 0 0 115 (C2) n - 1
REM
REM in /home/nfs/bkarasulu/CARBON/AIRSS/Generating-Clusters/REBO/Higher-Symm/SD-CG/HFTN-CG
REM
REM
REM
REM
REM
REM ./C.cell (12c818d87b63d06a65506943cc24bca4)
REM
REM compiler GCC version 9.2.1 20190827 (Red Hat 9.2.1-1)
REM options -cpp -mtune=generic -march=x86-64 -g -O0 -fpre-include=/usr/include/finclude/math-vector-fortran.h
REM seed -2112852760 25448733 -441950598 -1353102638 -1319294607 1648743230 -1500205423 -1358935427 1144849902 2073167601 -273245442 -2047959847 1263344099 1935161689 -945155254 -851234620 -445281818 480300785 -1212030260 -1874328144 1089365863 1587682357 -957472132 873616457 -903815086 923482227 -461547807 -1621664506 -130396523 1072122825 2039110544 1718739871 885449212
REM
CELL 1.54180   50.00000   50.00000   50.00000   90.00000   90.00000   90.00000
LATT -1
SFAC C  
C      1  0.5363150000000  0.4793130000000  0.4554640000000 1.0
C      1  0.4642690000000  0.4793090000000  0.5442600000000 1.0
C      1  0.5382530000000  0.5188890000000  0.4574230000000 1.0
C      1  0.4623270000000  0.5188840000000  0.5423020000000 1.0
C      1  0.5304400000000  0.4819350000000  0.5397550000000 1.0
C      1  0.4701430000000  0.4819330000000  0.4599690000000 1.0
C      1  0.5332440000000  0.5216730000000  0.5392710000000 1.0
C      1  0.4673350000000  0.5216710000000  0.4604540000000 1.0
C      1  0.5783920000000  0.5512140000000  0.4466410000000 1.0
C      1  0.4221840000000  0.5512050000000  0.5530840000000 1.0
C      1  0.5772310000000  0.4485600000000  0.4509760000000 1.0
C      1  0.4233570000000  0.4485510000000  0.5487480000000 1.0
C      1  0.5712270000000  0.5496500000000  0.5441710000000 1.0
C      1  0.4293500000000  0.5496430000000  0.4555540000000 1.0
C      1  0.5709020000000  0.4484160000000  0.5499700000000 1.0
C      1  0.4296850000000  0.4484100000000  0.4497540000000 1.0
C      1  0.4858020000000  0.4479930000000  0.5564060000000 1.0
C      1  0.5147860000000  0.4479960000000  0.4433170000000 1.0
C      1  0.4834950000000  0.5503360000000  0.5548440000000 1.0
C      1  0.5170810000000  0.5503390000000  0.4448810000000 1.0
C      1  0.4870910000000  0.4488870000000  0.4452960000000 1.0
C      1  0.5134960000000  0.4488870000000  0.5544270000000 1.0
C      1  0.4897850000000  0.5510070000000  0.4453740000000 1.0
C      1  0.5107910000000  0.5510070000000  0.5543520000000 1.0
C      1  0.5147000000000  0.4645640000000  0.5146440000000 1.0
C      1  0.4858850000000  0.4645630000000  0.4850800000000 1.0
C      1  0.5130030000000  0.5352380000000  0.5152160000000 1.0
C      1  0.4875750000000  0.5352370000000  0.4845090000000 1.0
C      1  0.5179250000000  0.4644020000000  0.4805200000000 1.0
C      1  0.4826600000000  0.4644000000000  0.5192030000000 1.0
C      1  0.5204290000000  0.5345230000000  0.4819260000000 1.0
C      1  0.4801490000000  0.5345210000000  0.5177990000000 1.0
C      1  0.4113700000000  0.4779790000000  0.5127130000000 1.0
C      1  0.5892140000000  0.4779890000000  0.4870110000000 1.0
C      1  0.4090710000000  0.5161380000000  0.5213670000000 1.0
C      1  0.5915090000000  0.5161470000000  0.4783580000000 1.0
C      1  0.4136950000000  0.4780130000000  0.4838710000000 1.0
C      1  0.5868890000000  0.4780220000000  0.5158530000000 1.0
C      1  0.4159850000000  0.5191770000000  0.4912480000000 1.0
C      1  0.5845950000000  0.5191860000000  0.5084770000000 1.0
C      1  0.4808930000000  0.5873900000000  0.5176840000000 1.0
C      1  0.5196800000000  0.5873920000000  0.4820420000000 1.0
C      1  0.4823910000000  0.4120400000000  0.5188840000000 1.0
C      1  0.5182000000000  0.4120420000000  0.4808390000000 1.0
C      1  0.4881470000000  0.5868310000000  0.4839920000000 1.0
C      1  0.5124250000000  0.5868320000000  0.5157340000000 1.0
C      1  0.4868310000000  0.4131560000000  0.4846810000000 1.0
C      1  0.5137600000000  0.4131570000000  0.5150420000000 1.0
C      1  0.5618660000000  0.5262020000000  0.4764100000000 1.0
C      1  0.4387130000000  0.5261950000000  0.5233150000000 1.0
C      1  0.5556110000000  0.4766730000000  0.4800800000000 1.0
C      1  0.4449740000000  0.4766660000000  0.5196440000000 1.0
C      1  0.5500170000000  0.5208280000000  0.5121480000000 1.0
C      1  0.4505630000000  0.5208230000000  0.4875770000000 1.0
C      1  0.5528820000000  0.4750150000000  0.5187870000000 1.0
C      1  0.4477020000000  0.4750090000000  0.4809370000000 1.0
C      1  0.4737760000000  0.4363940000000  0.4708040000000 1.0
C      1  0.5268120000000  0.4363960000000  0.5289190000000 1.0
C      1  0.4759930000000  0.5634800000000  0.4701110000000 1.0
C      1  0.5245820000000  0.5634820000000  0.5296140000000 1.0
C      1  0.4704540000000  0.4354780000000  0.5323350000000 1.0
C      1  0.5301350000000  0.4354820000000  0.4673880000000 1.0
C      1  0.4685010000000  0.5638060000000  0.5306660000000 1.0
C      1  0.5320750000000  0.5638100000000  0.4690590000000 1.0
C      1  0.5360830000000  0.5139870000000  0.5923330000000 1.0
C      1  0.4644970000000  0.5139850000000  0.4073920000000 1.0
C      1  0.5358660000000  0.4884520000000  0.5929450000000 1.0
C      1  0.4647170000000  0.4884500000000  0.4067790000000 1.0
C      1  0.5366830000000  0.5120250000000  0.4038020000000 1.0
C      1  0.4638970000000  0.5120190000000  0.5959230000000 1.0
C      1  0.5354200000000  0.4865360000000  0.4030540000000 1.0
C      1  0.4651630000000  0.4865310000000  0.5966700000000 1.0
C      1  0.5217800000000  0.5262660000000  0.5691390000000 1.0
C      1  0.4787990000000  0.5262650000000  0.4305860000000 1.0
C      1  0.5202520000000  0.4757950000000  0.5699180000000 1.0
C      1  0.4803320000000  0.4757950000000  0.4298060000000 1.0
C      1  0.5257140000000  0.5251960000000  0.4284720000000 1.0
C      1  0.4748650000000  0.5251920000000  0.5712520000000 1.0
C      1  0.5236630000000  0.4731200000000  0.4270290000000 1.0
C      1  0.4769210000000  0.4731170000000  0.5726950000000 1.0
C      1  0.5792600000000  0.5226820000000  0.5388790000000 1.0
C      1  0.4213200000000  0.5226750000000  0.4608460000000 1.0
C      1  0.5807600000000  0.4757290000000  0.5468650000000 1.0
C      1  0.4198240000000  0.4757220000000  0.4528590000000 1.0
C      1  0.5874620000000  0.5233990000000  0.4466410000000 1.0
C      1  0.4131170000000  0.5233890000000  0.5530840000000 1.0
C      1  0.5867240000000  0.4755610000000  0.4556220000000 1.0
C      1  0.4138600000000  0.4755510000000  0.5441020000000 1.0
C      1  0.4370460000000  0.5643500000000  0.5340030000000 1.0
C      1  0.5635290000000  0.5643570000000  0.4657220000000 1.0
C      1  0.4403920000000  0.4382510000000  0.5296930000000 1.0
C      1  0.5601970000000  0.4382570000000  0.4700310000000 1.0
C      1  0.4462010000000  0.5611160000000  0.4739110000000 1.0
C      1  0.5543750000000  0.5611210000000  0.5258140000000 1.0
C      1  0.4432790000000  0.4367410000000  0.4711310000000 1.0
C      1  0.5573090000000  0.4367460000000  0.5285920000000 1.0
C      1  0.4683440000000  0.3904750000000  0.4992440000000 1.0
C      1  0.5322490000000  0.3904780000000  0.5004790000000 1.0
C      1  0.4682880000000  0.6091690000000  0.4972950000000 1.0
C      1  0.5322820000000  0.6091730000000  0.5024310000000 1.0
C      1  0.4422970000000  0.5002530000000  0.4509150000000 1.0
C      1  0.5582840000000  0.5002580000000  0.5488100000000 1.0
C      1  0.4363970000000  0.4984630000000  0.5517030000000 1.0
C      1  0.5641850000000  0.4984710000000  0.4480220000000 1.0
C      1  0.5580360000000  0.5510000000000  0.4966310000000 1.0
C      1  0.5644430000000  0.4492690000000  0.4994850000000 1.0
C      1  0.4425410000000  0.5509940000000  0.5030950000000 1.0
C      1  0.4361440000000  0.4492620000000  0.5002380000000 1.0
C      1  0.4662260000000  0.4957510000000  0.5008640000000 1.0
C      1  0.5343560000000  0.4957550000000  0.4988600000000 1.0
C      1  0.4958030000000  0.5002280000000  0.5311130000000 1.0
C      1  0.5047790000000  0.5002290000000  0.4686110000000 1.0
C      1  0.5023550000000  0.4998510000000  0.4400170000000 1.0
C      1  0.4982270000000  0.4998500000000  0.5597080000000 1.0
C      1  0.5002910000000  0.4986630000000  0.4998620000000 1.0
END
