TITL C-2782225-7408-395 0.00118235240235349 125000 -894.812126975024 0 0 153 (C1) n - 1
REM
REM in /home/nfs/bkarasulu/CARBON/AIRSS/Generating-Clusters/REBO/Higher-Symm/SD-CG/HFTN-CG
REM
REM
REM
REM
REM
REM ./C.cell (12c818d87b63d06a65506943cc24bca4)
REM
REM compiler GCC version 9.2.1 20190827 (Red Hat 9.2.1-1)
REM options -cpp -mtune=generic -march=x86-64 -g -O0 -fpre-include=/usr/include/finclude/math-vector-fortran.h
REM seed -130443634 1343341821 -1040880716 1437008869 323863490 -831806855 1170924583 -1898452926 -6347036 -1008998617 1732861709 1931031790 -2066335418 -638319015 2010677680 294187696 -143627102 -537459708 1993687001 1887785658 -1611413590 444207917 -863838490 318501868 -1953057027 615317069 1276891991 -1542872873 1765013765 1745335987 576787302 1775181929 -307903352
REM
CELL 1.54180   50.00000   50.00000   50.00000   90.00000   90.00000   90.00000
LATT -1
SFAC C  
C      1  0.4572620000000  0.4075730000000  0.4782230000000 1.0
C      1  0.5307440000000  0.4006940000000  0.5072040000000 1.0
C      1  0.4560220000000  0.4088750000000  0.5123820000000 1.0
C      1  0.5332510000000  0.4096280000000  0.4794810000000 1.0
C      1  0.5533780000000  0.5582560000000  0.4318690000000 1.0
C      1  0.4585990000000  0.5613150000000  0.5660750000000 1.0
C      1  0.5419680000000  0.5647960000000  0.5688880000000 1.0
C      1  0.4493810000000  0.5590950000000  0.4293410000000 1.0
C      1  0.4288200000000  0.4638690000000  0.4484850000000 1.0
C      1  0.5745970000000  0.4638810000000  0.5564210000000 1.0
C      1  0.4288430000000  0.4582470000000  0.5589700000000 1.0
C      1  0.5725570000000  0.4589960000000  0.4493970000000 1.0
C      1  0.5348780000000  0.5678360000000  0.4584670000000 1.0
C      1  0.4880860000000  0.5737450000000  0.5573670000000 1.0
C      1  0.5194770000000  0.5706230000000  0.5440660000000 1.0
C      1  0.4763670000000  0.5659150000000  0.4489830000000 1.0
C      1  0.4414100000000  0.5335120000000  0.4127680000000 1.0
C      1  0.5516350000000  0.5444310000000  0.5861350000000 1.0
C      1  0.4466870000000  0.5390860000000  0.5859490000000 1.0
C      1  0.5575160000000  0.5328830000000  0.4162070000000 1.0
C      1  0.4208870000000  0.4898630000000  0.5220700000000 1.0
C      1  0.5769140000000  0.4844070000000  0.4703160000000 1.0
C      1  0.4314980000000  0.4881130000000  0.4721040000000 1.0
C      1  0.5798030000000  0.4889150000000  0.5213500000000 1.0
C      1  0.5119090000000  0.4062530000000  0.4621590000000 1.0
C      1  0.4799970000000  0.4183610000000  0.5323310000000 1.0
C      1  0.5097080000000  0.4032330000000  0.5288820000000 1.0
C      1  0.4804900000000  0.4010360000000  0.4567990000000 1.0
C      1  0.4838130000000  0.4890720000000  0.4032530000000 1.0
C      1  0.5174790000000  0.4890520000000  0.5920960000000 1.0
C      1  0.4860680000000  0.4868930000000  0.5931030000000 1.0
C      1  0.5158620000000  0.4898640000000  0.4043850000000 1.0
C      1  0.4666950000000  0.5963100000000  0.5150650000000 1.0
C      1  0.5471620000000  0.5929680000000  0.4780600000000 1.0
C      1  0.4647750000000  0.5964440000000  0.4857220000000 1.0
C      1  0.5484690000000  0.5961560000000  0.5082180000000 1.0
C      1  0.4749050000000  0.4598800000000  0.4185730000000 1.0
C      1  0.5260490000000  0.4594020000000  0.5802150000000 1.0
C      1  0.4781630000000  0.4562030000000  0.5804340000000 1.0
C      1  0.5245910000000  0.4600180000000  0.4189640000000 1.0
C      1  0.5128300000000  0.4648850000000  0.4610410000000 1.0
C      1  0.4846610000000  0.4516700000000  0.5355770000000 1.0
C      1  0.5218730000000  0.4594480000000  0.5384980000000 1.0
C      1  0.4819310000000  0.4645280000000  0.4703090000000 1.0
C      1  0.4837680000000  0.5902500000000  0.4648850000000 1.0
C      1  0.5215010000000  0.5953270000000  0.5223160000000 1.0
C      1  0.4891030000000  0.5935640000000  0.5324990000000 1.0
C      1  0.5154490000000  0.5942590000000  0.4675870000000 1.0
C      1  0.4499940000000  0.5369670000000  0.4554600000000 1.0
C      1  0.5446020000000  0.5281060000000  0.5411420000000 1.0
C      1  0.4517920000000  0.5373130000000  0.5428720000000 1.0
C      1  0.5481920000000  0.5291330000000  0.4585400000000 1.0
C      1  0.5228570000000  0.5426570000000  0.4745870000000 1.0
C      1  0.4729100000000  0.5260690000000  0.5194570000000 1.0
C      1  0.5194430000000  0.5436420000000  0.5269930000000 1.0
C      1  0.4782080000000  0.5403990000000  0.4715950000000 1.0
C      1  0.4431970000000  0.4322490000000  0.4676660000000 1.0
C      1  0.5477380000000  0.4152630000000  0.5267400000000 1.0
C      1  0.4391580000000  0.4287390000000  0.5341350000000 1.0
C      1  0.5515890000000  0.4341700000000  0.4727000000000 1.0
C      1  0.4018660000000  0.4625440000000  0.5191140000000 1.0
C      1  0.6002000000000  0.4327590000000  0.4902560000000 1.0
C      1  0.3964150000000  0.4538640000000  0.4870930000000 1.0
C      1  0.6010840000000  0.4383720000000  0.5166470000000 1.0
C      1  0.5774080000000  0.5355470000000  0.4704290000000 1.0
C      1  0.4232800000000  0.5414680000000  0.5299130000000 1.0
C      1  0.5738290000000  0.5347510000000  0.5256970000000 1.0
C      1  0.4242190000000  0.5415000000000  0.4730960000000 1.0
C      1  0.5910900000000  0.4490900000000  0.5391580000000 1.0
C      1  0.4121010000000  0.4426210000000  0.4668890000000 1.0
C      1  0.5845180000000  0.4351140000000  0.4687800000000 1.0
C      1  0.4107650000000  0.4433410000000  0.5394930000000 1.0
C      1  0.4749740000000  0.5290690000000  0.4336190000000 1.0
C      1  0.5213990000000  0.5308010000000  0.5646470000000 1.0
C      1  0.4755890000000  0.5256200000000  0.5624050000000 1.0
C      1  0.5230110000000  0.5327630000000  0.4359480000000 1.0
C      1  0.5324900000000  0.4822470000000  0.5156000000000 1.0
C      1  0.4944890000000  0.4804930000000  0.4979740000000 1.0
C      1  0.5284080000000  0.4864670000000  0.4766570000000 1.0
C      1  0.4805950000000  0.4806730000000  0.5243700000000 1.0
C      1  0.5729920000000  0.5106170000000  0.4241510000000 1.0
C      1  0.4347610000000  0.5131570000000  0.5744150000000 1.0
C      1  0.5627850000000  0.5160930000000  0.5746470000000 1.0
C      1  0.4201750000000  0.5183800000000  0.4239540000000 1.0
C      1  0.5578740000000  0.4519380000000  0.4992740000000 1.0
C      1  0.4557270000000  0.4504890000000  0.5173830000000 1.0
C      1  0.5465560000000  0.4431190000000  0.5233080000000 1.0
C      1  0.4579220000000  0.4528770000000  0.4860050000000 1.0
C      1  0.4411910000000  0.5906970000000  0.5269340000000 1.0
C      1  0.5756500000000  0.5861410000000  0.4666710000000 1.0
C      1  0.4376350000000  0.5921670000000  0.4773160000000 1.0
C      1  0.5707380000000  0.5875190000000  0.5206280000000 1.0
C      1  0.5306130000000  0.4892030000000  0.4351010000000 1.0
C      1  0.4640850000000  0.4841070000000  0.5669660000000 1.0
C      1  0.5381380000000  0.4946370000000  0.5656610000000 1.0
C      1  0.4750210000000  0.4891630000000  0.4356240000000 1.0
C      1  0.4167470000000  0.5150880000000  0.4574340000000 1.0
C      1  0.5843630000000  0.5190050000000  0.5500360000000 1.0
C      1  0.4198630000000  0.5133870000000  0.5445360000000 1.0
C      1  0.5879940000000  0.5111030000000  0.4538770000000 1.0
C      1  0.5815950000000  0.4899460000000  0.5636180000000 1.0
C      1  0.4154920000000  0.4889090000000  0.4356480000000 1.0
C      1  0.5888150000000  0.4838670000000  0.4328020000000 1.0
C      1  0.4242810000000  0.4851510000000  0.5633050000000 1.0
C      1  0.4200330000000  0.5719750000000  0.4735500000000 1.0
C      1  0.5824050000000  0.5639980000000  0.5259260000000 1.0
C      1  0.4214940000000  0.5724110000000  0.5304720000000 1.0
C      1  0.5867320000000  0.5639250000000  0.4663620000000 1.0
C      1  0.5541070000000  0.4972760000000  0.5355730000000 1.0
C      1  0.4529540000000  0.4955770000000  0.4510850000000 1.0
C      1  0.5502140000000  0.4986520000000  0.4571230000000 1.0
C      1  0.4642950000000  0.4934790000000  0.5417190000000 1.0
C      1  0.4703030000000  0.5148920000000  0.5906950000000 1.0
C      1  0.5297860000000  0.5194920000000  0.4091780000000 1.0
C      1  0.4670150000000  0.5163160000000  0.4075340000000 1.0
C      1  0.5281880000000  0.5209060000000  0.5934700000000 1.0
C      1  0.5401620000000  0.4524220000000  0.4475300000000 1.0
C      1  0.4582710000000  0.4458190000000  0.5569810000000 1.0
C      1  0.5478620000000  0.4561870000000  0.5609630000000 1.0
C      1  0.4599180000000  0.4537980000000  0.4463500000000 1.0
C      1  0.4387730000000  0.4751830000000  0.5004030000000 1.0
C      1  0.5745010000000  0.4740190000000  0.4977890000000 1.0
C      1  0.5043240000000  0.4230000000000  0.5552150000000 1.0
C      1  0.4978210000000  0.4198290000000  0.4362760000000 1.0
C      1  0.4996030000000  0.4419120000000  0.4196710000000 1.0
C      1  0.5044520000000  0.4419890000000  0.5754030000000 1.0
C      1  0.6310410000000  0.4970440000000  0.5359500000000 1.0
C      1  0.3942100000000  0.5099700000000  0.4975560000000 1.0
C      1  0.5148180000000  0.4928720000000  0.5410820000000 1.0
C      1  0.5010420000000  0.4947170000000  0.4487320000000 1.0
C      1  0.5007680000000  0.5181270000000  0.4664230000000 1.0
C      1  0.5004250000000  0.5171350000000  0.5323800000000 1.0
C      1  0.6061170000000  0.4931090000000  0.5288660000000 1.0
C      1  0.3895430000000  0.4839250000000  0.4968090000000 1.0
C      1  0.4970130000000  0.5432330000000  0.5623260000000 1.0
C      1  0.4992940000000  0.5455720000000  0.4375170000000 1.0
C      1  0.4185460000000  0.5287690000000  0.5001890000000 1.0
C      1  0.5667030000000  0.5239450000000  0.4978800000000 1.0
C      1  0.5488670000000  0.5046370000000  0.4966490000000 1.0
C      1  0.4446420000000  0.5125190000000  0.5126050000000 1.0
C      1  0.4738070000000  0.6524200000000  0.4989750000000 1.0
C      1  0.4986060000000  0.5399750000000  0.4997450000000 1.0
C      1  0.4945150000000  0.5723330000000  0.4992730000000 1.0
C      1  0.5222430000000  0.3283680000000  0.4976470000000 1.0
C      1  0.5090800000000  0.5071360000000  0.4948110000000 1.0
C      1  0.4852420000000  0.4022000000000  0.4963350000000 1.0
C      1  0.5105030000000  0.3517950000000  0.4972300000000 1.0
C      1  0.4602340000000  0.6748150000000  0.5000100000000 1.0
C      1  0.4986800000000  0.3753860000000  0.4968110000000 1.0
C      1  0.5029570000000  0.6043220000000  0.4967520000000 1.0
C      1  0.5073860000000  0.4510870000000  0.4980260000000 1.0
C      1  0.4874750000000  0.6298680000000  0.4979330000000 1.0
C      1  0.5024560000000  0.4272990000000  0.4977770000000 1.0
END
