TITL C-2782225-7408-576 0.00774210351718519 125000 -687.22310502767 0 0 126 (C1) n - 1
REM
REM in /home/nfs/bkarasulu/CARBON/AIRSS/Generating-Clusters/REBO/Higher-Symm/SD-CG/HFTN-CG
REM
REM
REM
REM
REM
REM ./C.cell (12c818d87b63d06a65506943cc24bca4)
REM
REM compiler GCC version 9.2.1 20190827 (Red Hat 9.2.1-1)
REM options -cpp -mtune=generic -march=x86-64 -g -O0 -fpre-include=/usr/include/finclude/math-vector-fortran.h
REM seed -1682753577 1735090695 950448039 -1698808454 -2018816386 1370990589 2061662920 -2084222593 565014628 266895970 108414718 1062591542 -2048199616 820072965 -1209671174 -1579573398 -739364721 -589985725 -1390947542 692048831 -245182585 -1048345540 -162989111 -1840133991 1186017386 -888510128 1079161119 -1826709281 50984750 -1528192837 1160033153 -927584173 1699248696
REM
CELL 1.54180   50.00000   50.00000   50.00000   90.00000   90.00000   90.00000
LATT -1
SFAC C  
C      1  0.5240820000000  0.5374030000000  0.5181140000000 1.0
C      1  0.5315270000000  0.4609170000000  0.4827790000000 1.0
C      1  0.4762130000000  0.4576980000000  0.5223630000000 1.0
C      1  0.4688460000000  0.5339090000000  0.4794420000000 1.0
C      1  0.5235820000000  0.5200330000000  0.5420900000000 1.0
C      1  0.5350400000000  0.4785400000000  0.4583450000000 1.0
C      1  0.4705540000000  0.5155980000000  0.4547460000000 1.0
C      1  0.4738470000000  0.4785840000000  0.5424320000000 1.0
C      1  0.4170410000000  0.4788020000000  0.4965350000000 1.0
C      1  0.4117370000000  0.5236280000000  0.5028540000000 1.0
C      1  0.5821560000000  0.5228350000000  0.4951610000000 1.0
C      1  0.5819050000000  0.4765670000000  0.4987220000000 1.0
C      1  0.4142060000000  0.5046240000000  0.4742280000000 1.0
C      1  0.4176040000000  0.4987330000000  0.5244440000000 1.0
C      1  0.5783660000000  0.5016910000000  0.5217160000000 1.0
C      1  0.5860980000000  0.4980880000000  0.4721810000000 1.0
C      1  0.5366350000000  0.5184210000000  0.4573350000000 1.0
C      1  0.5458650000000  0.4871740000000  0.5402180000000 1.0
C      1  0.4525100000000  0.4872480000000  0.4763370000000 1.0
C      1  0.4560210000000  0.5138740000000  0.5444030000000 1.0
C      1  0.5416510000000  0.4882740000000  0.5097490000000 1.0
C      1  0.5434240000000  0.5376630000000  0.4834880000000 1.0
C      1  0.4525650000000  0.4599260000000  0.4908920000000 1.0
C      1  0.4575180000000  0.5247500000000  0.5144440000000 1.0
C      1  0.4869140000000  0.3713490000000  0.5188790000000 1.0
C      1  0.5209470000000  0.6002150000000  0.4683420000000 1.0
C      1  0.4933910000000  0.6224510000000  0.5257080000000 1.0
C      1  0.4758180000000  0.3991220000000  0.4618260000000 1.0
C      1  0.5057090000000  0.5244860000000  0.3706640000000 1.0
C      1  0.5050590000000  0.4767600000000  0.6346770000000 1.0
C      1  0.4738090000000  0.5311570000000  0.6119770000000 1.0
C      1  0.4761010000000  0.4672910000000  0.3957120000000 1.0
C      1  0.5421490000000  0.5148780000000  0.4236100000000 1.0
C      1  0.5352890000000  0.4888610000000  0.5724410000000 1.0
C      1  0.4710540000000  0.4896260000000  0.4243920000000 1.0
C      1  0.4642670000000  0.5133140000000  0.5774870000000 1.0
C      1  0.5404180000000  0.4222660000000  0.5105760000000 1.0
C      1  0.5291140000000  0.5670580000000  0.4911020000000 1.0
C      1  0.4679550000000  0.4301910000000  0.4946030000000 1.0
C      1  0.4589420000000  0.5741450000000  0.5104670000000 1.0
C      1  0.5006920000000  0.4839570000000  0.3981480000000 1.0
C      1  0.4964160000000  0.5160910000000  0.6064020000000 1.0
C      1  0.4943190000000  0.5137790000000  0.3933480000000 1.0
C      1  0.4927220000000  0.4861310000000  0.6119370000000 1.0
C      1  0.4968110000000  0.4036530000000  0.4798260000000 1.0
C      1  0.5052280000000  0.6000600000000  0.5147900000000 1.0
C      1  0.4857470000000  0.3979680000000  0.5114740000000 1.0
C      1  0.4988660000000  0.5953940000000  0.4845330000000 1.0
C      1  0.5341760000000  0.4313100000000  0.5396070000000 1.0
C      1  0.5255650000000  0.5620310000000  0.4576460000000 1.0
C      1  0.4652030000000  0.5664030000000  0.5393890000000 1.0
C      1  0.4727220000000  0.4389590000000  0.4636380000000 1.0
C      1  0.5307500000000  0.5452710000000  0.4285510000000 1.0
C      1  0.5305440000000  0.4571470000000  0.5615210000000 1.0
C      1  0.4677490000000  0.5451420000000  0.5657760000000 1.0
C      1  0.4748480000000  0.4606200000000  0.4375430000000 1.0
C      1  0.4342860000000  0.4795680000000  0.5474710000000 1.0
C      1  0.4320590000000  0.5261800000000  0.4544190000000 1.0
C      1  0.5634240000000  0.5221820000000  0.5449130000000 1.0
C      1  0.5730180000000  0.4803240000000  0.4461570000000 1.0
C      1  0.4295060000000  0.5410270000000  0.4804970000000 1.0
C      1  0.4294300000000  0.4610090000000  0.5228520000000 1.0
C      1  0.5645590000000  0.5390170000000  0.5191840000000 1.0
C      1  0.5692580000000  0.4619880000000  0.4705430000000 1.0
C      1  0.5726540000000  0.5106560000000  0.4208140000000 1.0
C      1  0.5655950000000  0.4932970000000  0.5743320000000 1.0
C      1  0.4440070000000  0.4986950000000  0.4280720000000 1.0
C      1  0.4346390000000  0.5061950000000  0.5772400000000 1.0
C      1  0.5664990000000  0.4282000000000  0.5037610000000 1.0
C      1  0.5592090000000  0.5721400000000  0.4956980000000 1.0
C      1  0.4362240000000  0.4239900000000  0.4935120000000 1.0
C      1  0.4320180000000  0.5716890000000  0.5056950000000 1.0
C      1  0.4960120000000  0.4362570000000  0.5102290000000 1.0
C      1  0.4800270000000  0.5611810000000  0.4930570000000 1.0
C      1  0.5041240000000  0.5605720000000  0.5090120000000 1.0
C      1  0.5185700000000  0.4344030000000  0.4929460000000 1.0
C      1  0.4955600000000  0.5072810000000  0.4344350000000 1.0
C      1  0.4867860000000  0.4923200000000  0.5689060000000 1.0
C      1  0.5112950000000  0.5082100000000  0.5701440000000 1.0
C      1  0.5211030000000  0.4922820000000  0.4314900000000 1.0
C      1  0.5125580000000  0.4724560000000  0.5064350000000 1.0
C      1  0.5169410000000  0.5201230000000  0.4919480000000 1.0
C      1  0.4891270000000  0.5239510000000  0.5043220000000 1.0
C      1  0.4843330000000  0.4705680000000  0.4934950000000 1.0
C      1  0.5130760000000  0.4994770000000  0.4697920000000 1.0
C      1  0.5119870000000  0.4883580000000  0.5356060000000 1.0
C      1  0.4868060000000  0.5079100000000  0.5321510000000 1.0
C      1  0.4848220000000  0.4898570000000  0.4686110000000 1.0
C      1  0.4320840000000  0.4864910000000  0.4514750000000 1.0
C      1  0.4232720000000  0.5177970000000  0.5513350000000 1.0
C      1  0.5703480000000  0.5198480000000  0.4513080000000 1.0
C      1  0.5775930000000  0.4808890000000  0.5486370000000 1.0
C      1  0.4234880000000  0.4501340000000  0.4791160000000 1.0
C      1  0.4204600000000  0.5506430000000  0.5199510000000 1.0
C      1  0.5764720000000  0.4506650000000  0.5169340000000 1.0
C      1  0.5740640000000  0.5505350000000  0.4788720000000 1.0
C      1  0.5013800000000  0.4359600000000  0.5443290000000 1.0
C      1  0.4920330000000  0.5607350000000  0.4609670000000 1.0
C      1  0.4976290000000  0.5603160000000  0.5427210000000 1.0
C      1  0.5051740000000  0.4402750000000  0.4610970000000 1.0
C      1  0.4988690000000  0.5412560000000  0.4363820000000 1.0
C      1  0.4972520000000  0.4593380000000  0.5681320000000 1.0
C      1  0.5014210000000  0.5408910000000  0.5679560000000 1.0
C      1  0.5081040000000  0.4604730000000  0.4353000000000 1.0
C      1  0.5247760000000  0.4125050000000  0.4622800000000 1.0
C      1  0.5222830000000  0.5827850000000  0.5355830000000 1.0
C      1  0.4715630000000  0.5875960000000  0.4657460000000 1.0
C      1  0.4734510000000  0.4182240000000  0.5358760000000 1.0
C      1  0.5265810000000  0.4636700000000  0.4067910000000 1.0
C      1  0.5215420000000  0.5353450000000  0.5950080000000 1.0
C      1  0.4779760000000  0.4653750000000  0.5955670000000 1.0
C      1  0.4785630000000  0.5333080000000  0.4102520000000 1.0
C      1  0.5451270000000  0.4399140000000  0.4601750000000 1.0
C      1  0.5421630000000  0.5553160000000  0.5393230000000 1.0
C      1  0.4521680000000  0.5597050000000  0.4628360000000 1.0
C      1  0.4527210000000  0.4447070000000  0.5417000000000 1.0
C      1  0.5480090000000  0.4610580000000  0.4331150000000 1.0
C      1  0.5409350000000  0.5351160000000  0.5670450000000 1.0
C      1  0.4570490000000  0.4655950000000  0.5686980000000 1.0
C      1  0.4565400000000  0.5389400000000  0.4356270000000 1.0
C      1  0.5572760000000  0.5514660000000  0.4491020000000 1.0
C      1  0.5609650000000  0.4512120000000  0.5465150000000 1.0
C      1  0.4377130000000  0.5486200000000  0.5490530000000 1.0
C      1  0.4445370000000  0.4548380000000  0.4524580000000 1.0
C      1  0.4465840000000  0.5057360000000  0.4968780000000 1.0
C      1  0.5508180000000  0.4992940000000  0.4885140000000 1.0
END
