TITL C-2782233-7966-1370 0.000819920792869267 125000 -896.468262835476 0 0 156 (C1) n - 1
REM
REM in /home/nfs/bkarasulu/CARBON/AIRSS/Generating-Clusters/REBO/Higher-Symm/SD-CG/HFTN-CG
REM
REM
REM
REM
REM
REM ./C.cell (12c818d87b63d06a65506943cc24bca4)
REM
REM compiler GCC version 9.2.1 20190827 (Red Hat 9.2.1-1)
REM options -cpp -mtune=generic -march=x86-64 -g -O0 -fpre-include=/usr/include/finclude/math-vector-fortran.h
REM seed -162594347 2121545651 221636113 1653032468 -1039976870 2032484804 364018908 -483275202 455426093 -1025140710 1899800649 1799584149 1674485334 751520960 -1217081755 -2057867918 142865029 1217127115 -1482979425 1769845857 954099075 -1654331524 -1598220380 1643918943 -372765499 -483935305 172903919 1239794066 304138207 -101236776 1644735709 -1456948211 -1815012829
REM
CELL 1.54180   50.00000   50.00000   50.00000   90.00000   90.00000   90.00000
LATT -1
SFAC C  
C      1  0.4557470000000  0.3967370000000  0.4728130000000 1.0
C      1  0.4604870000000  0.5282980000000  0.3932720000000 1.0
C      1  0.4557540000000  0.6061260000000  0.5264350000000 1.0
C      1  0.4617540000000  0.4732060000000  0.6064230000000 1.0
C      1  0.5386560000000  0.6060320000000  0.4701130000000 1.0
C      1  0.5445280000000  0.4747490000000  0.3931210000000 1.0
C      1  0.5392550000000  0.3881870000000  0.5255360000000 1.0
C      1  0.5425810000000  0.5276690000000  0.6017550000000 1.0
C      1  0.5178950000000  0.5908870000000  0.4601510000000 1.0
C      1  0.5225250000000  0.5395140000000  0.5872930000000 1.0
C      1  0.5234940000000  0.4027990000000  0.5468110000000 1.0
C      1  0.5292070000000  0.4537190000000  0.4063960000000 1.0
C      1  0.4763650000000  0.4102030000000  0.4605020000000 1.0
C      1  0.4804010000000  0.4586120000000  0.5923910000000 1.0
C      1  0.4721390000000  0.5935860000000  0.5470530000000 1.0
C      1  0.4796010000000  0.5418200000000  0.4075340000000 1.0
C      1  0.4130860000000  0.4781420000000  0.5003250000000 1.0
C      1  0.4107020000000  0.4994680000000  0.4735620000000 1.0
C      1  0.4127310000000  0.5213960000000  0.4997470000000 1.0
C      1  0.4100250000000  0.5001350000000  0.5264130000000 1.0
C      1  0.5888680000000  0.5274290000000  0.5000860000000 1.0
C      1  0.5872200000000  0.5012210000000  0.4780930000000 1.0
C      1  0.5875340000000  0.4740990000000  0.4988430000000 1.0
C      1  0.5864260000000  0.5002230000000  0.5208880000000 1.0
C      1  0.4067030000000  0.5296160000000  0.5380070000000 1.0
C      1  0.4101350000000  0.4612630000000  0.5297470000000 1.0
C      1  0.4091440000000  0.4701550000000  0.4617570000000 1.0
C      1  0.4116420000000  0.5384460000000  0.4703560000000 1.0
C      1  0.5888410000000  0.4705500000000  0.5375680000000 1.0
C      1  0.5905710000000  0.5386740000000  0.5296450000000 1.0
C      1  0.5877800000000  0.5306400000000  0.4610990000000 1.0
C      1  0.5938800000000  0.4629160000000  0.4696360000000 1.0
C      1  0.5175250000000  0.5392370000000  0.5590740000000 1.0
C      1  0.5193000000000  0.4360920000000  0.5398380000000 1.0
C      1  0.5215290000000  0.4617090000000  0.4413300000000 1.0
C      1  0.5173480000000  0.5622670000000  0.4609050000000 1.0
C      1  0.4835020000000  0.4574090000000  0.5638720000000 1.0
C      1  0.4783080000000  0.5583630000000  0.5388450000000 1.0
C      1  0.4830000000000  0.5414880000000  0.4360310000000 1.0
C      1  0.4814190000000  0.4384470000000  0.4630610000000 1.0
C      1  0.5182150000000  0.4900450000000  0.4480170000000 1.0
C      1  0.5158430000000  0.5522850000000  0.4893930000000 1.0
C      1  0.5160240000000  0.5104320000000  0.5488650000000 1.0
C      1  0.5137640000000  0.4424760000000  0.5125840000000 1.0
C      1  0.4864410000000  0.5137390000000  0.4454860000000 1.0
C      1  0.4797090000000  0.4461960000000  0.4925390000000 1.0
C      1  0.4860000000000  0.4850000000000  0.5535130000000 1.0
C      1  0.4815530000000  0.5532350000000  0.5096950000000 1.0
C      1  0.4796490000000  0.4867200000000  0.4036840000000 1.0
C      1  0.4780870000000  0.5959000000000  0.4865040000000 1.0
C      1  0.4794940000000  0.5156070000000  0.5958270000000 1.0
C      1  0.4755420000000  0.4017080000000  0.5148900000000 1.0
C      1  0.5221720000000  0.5146340000000  0.4039980000000 1.0
C      1  0.5174450000000  0.4002120000000  0.4855190000000 1.0
C      1  0.5213360000000  0.4868770000000  0.5954220000000 1.0
C      1  0.5213900000000  0.5983720000000  0.5123120000000 1.0
C      1  0.5575360000000  0.4468980000000  0.5441270000000 1.0
C      1  0.5570610000000  0.4556570000000  0.4578190000000 1.0
C      1  0.5574600000000  0.5558350000000  0.4553810000000 1.0
C      1  0.5542420000000  0.5442530000000  0.5441000000000 1.0
C      1  0.4420910000000  0.5444600000000  0.5467840000000 1.0
C      1  0.4428810000000  0.5432800000000  0.4461400000000 1.0
C      1  0.4439800000000  0.4531470000000  0.4540830000000 1.0
C      1  0.4407830000000  0.4558760000000  0.5546090000000 1.0
C      1  0.4363270000000  0.4972900000000  0.4265710000000 1.0
C      1  0.4413220000000  0.5666050000000  0.4977710000000 1.0
C      1  0.4343840000000  0.5024290000000  0.5738520000000 1.0
C      1  0.4397300000000  0.4320810000000  0.5039120000000 1.0
C      1  0.5596480000000  0.5030340000000  0.4320310000000 1.0
C      1  0.5613890000000  0.4249360000000  0.4968360000000 1.0
C      1  0.5604000000000  0.4960830000000  0.5678750000000 1.0
C      1  0.5651160000000  0.5759370000000  0.5023810000000 1.0
C      1  0.4760880000000  0.4102140000000  0.5416610000000 1.0
C      1  0.4764030000000  0.4615150000000  0.4147990000000 1.0
C      1  0.4769570000000  0.5877220000000  0.4597110000000 1.0
C      1  0.4790500000000  0.5448860000000  0.5894800000000 1.0
C      1  0.5238340000000  0.5892630000000  0.5384840000000 1.0
C      1  0.5227960000000  0.5411330000000  0.4137580000000 1.0
C      1  0.5180150000000  0.4119560000000  0.4595470000000 1.0
C      1  0.5210130000000  0.4603890000000  0.5857830000000 1.0
C      1  0.5130850000000  0.5787890000000  0.4225530000000 1.0
C      1  0.5181750000000  0.5774600000000  0.5761010000000 1.0
C      1  0.5077100000000  0.4178270000000  0.5731190000000 1.0
C      1  0.5120300000000  0.4289560000000  0.4218780000000 1.0
C      1  0.4850180000000  0.4237600000000  0.4240540000000 1.0
C      1  0.4808850000000  0.4208330000000  0.5798000000000 1.0
C      1  0.4909530000000  0.5783670000000  0.5705770000000 1.0
C      1  0.4838150000000  0.5787400000000  0.4215500000000 1.0
C      1  0.4579980000000  0.5691870000000  0.5641220000000 1.0
C      1  0.4543800000000  0.4330940000000  0.5761240000000 1.0
C      1  0.4576040000000  0.4308320000000  0.4320320000000 1.0
C      1  0.4550900000000  0.5677300000000  0.4254070000000 1.0
C      1  0.5405450000000  0.4253810000000  0.5645080000000 1.0
C      1  0.5449570000000  0.5666050000000  0.5684440000000 1.0
C      1  0.5416250000000  0.5753810000000  0.4321360000000 1.0
C      1  0.5442770000000  0.4381990000000  0.4313640000000 1.0
C      1  0.5212670000000  0.4389440000000  0.4633600000000 1.0
C      1  0.5224070000000  0.5420840000000  0.4421560000000 1.0
C      1  0.5178570000000  0.5598480000000  0.5402500000000 1.0
C      1  0.5229270000000  0.4603780000000  0.5586400000000 1.0
C      1  0.4777230000000  0.5594990000000  0.4569870000000 1.0
C      1  0.4819860000000  0.4596600000000  0.4445100000000 1.0
C      1  0.4774020000000  0.4385230000000  0.5441350000000 1.0
C      1  0.4780420000000  0.5354500000000  0.5613160000000 1.0
C      1  0.4560240000000  0.4995710000000  0.5977950000000 1.0
C      1  0.4513750000000  0.4042150000000  0.4996890000000 1.0
C      1  0.4557480000000  0.5018790000000  0.4015700000000 1.0
C      1  0.4542890000000  0.5940940000000  0.5019950000000 1.0
C      1  0.5465630000000  0.5006390000000  0.5948980000000 1.0
C      1  0.5451350000000  0.6002400000000  0.4969060000000 1.0
C      1  0.5462640000000  0.4993950000000  0.4047480000000 1.0
C      1  0.5420680000000  0.3990710000000  0.5004720000000 1.0
C      1  0.4621640000000  0.4509710000000  0.5212170000000 1.0
C      1  0.4662280000000  0.4898220000000  0.4411440000000 1.0
C      1  0.4636390000000  0.5468410000000  0.4812210000000 1.0
C      1  0.4646030000000  0.5077220000000  0.5595910000000 1.0
C      1  0.5363020000000  0.5613240000000  0.5127370000000 1.0
C      1  0.5373440000000  0.5177240000000  0.4531440000000 1.0
C      1  0.5355520000000  0.4439370000000  0.4897210000000 1.0
C      1  0.5370090000000  0.4856820000000  0.5476640000000 1.0
C      1  0.5471880000000  0.4729670000000  0.4861330000000 1.0
C      1  0.5491220000000  0.5324810000000  0.4798460000000 1.0
C      1  0.5447110000000  0.5297040000000  0.5135820000000 1.0
C      1  0.5448590000000  0.4680430000000  0.5201810000000 1.0
C      1  0.4532060000000  0.5175400000000  0.4671570000000 1.0
C      1  0.4531980000000  0.4831560000000  0.4699110000000 1.0
C      1  0.4519090000000  0.4806600000000  0.5331960000000 1.0
C      1  0.4516560000000  0.5151960000000  0.5308630000000 1.0
C      1  0.4201910000000  0.5171090000000  0.4456600000000 1.0
C      1  0.4262610000000  0.5478550000000  0.5168140000000 1.0
C      1  0.4187880000000  0.4825590000000  0.5545700000000 1.0
C      1  0.4271220000000  0.4515070000000  0.4838010000000 1.0
C      1  0.5744840000000  0.4841480000000  0.4512940000000 1.0
C      1  0.5777430000000  0.4463270000000  0.5163050000000 1.0
C      1  0.5731610000000  0.5161730000000  0.5481640000000 1.0
C      1  0.5793600000000  0.5554930000000  0.4823730000000 1.0
C      1  0.5213860000000  0.4934710000000  0.4802590000000 1.0
C      1  0.5118980000000  0.5234360000000  0.4908780000000 1.0
C      1  0.5212370000000  0.5070670000000  0.5178710000000 1.0
C      1  0.5140020000000  0.4753690000000  0.5078780000000 1.0
C      1  0.4850250000000  0.5133490000000  0.4774430000000 1.0
C      1  0.4725990000000  0.4765310000000  0.4927640000000 1.0
C      1  0.4813590000000  0.4909000000000  0.5203210000000 1.0
C      1  0.4763320000000  0.5212770000000  0.5088560000000 1.0
C      1  0.4266290000000  0.4360840000000  0.5317170000000 1.0
C      1  0.4238160000000  0.4698350000000  0.4338600000000 1.0
C      1  0.4291170000000  0.5630310000000  0.4693940000000 1.0
C      1  0.4209650000000  0.5296240000000  0.5668920000000 1.0
C      1  0.5751700000000  0.5663570000000  0.5304800000000 1.0
C      1  0.5708530000000  0.5316030000000  0.4363990000000 1.0
C      1  0.5781950000000  0.4340180000000  0.4710190000000 1.0
C      1  0.5733110000000  0.4685330000000  0.5636970000000 1.0
C      1  0.5002050000000  0.5800990000000  0.5001230000000 1.0
C      1  0.5013610000000  0.4999220000000  0.4201390000000 1.0
C      1  0.4967520000000  0.4176760000000  0.5001180000000 1.0
C      1  0.5007160000000  0.5024050000000  0.5783330000000 1.0
END
