TITL C-2782232-2968-652 -0.000580401453809687 125000 -621.440737361202 0 0 109 (C1) n - 1
REM
REM in /home/nfs/bkarasulu/CARBON/AIRSS/Generating-Clusters/REBO/Higher-Symm/SD-CG/HFTN-CG
REM
REM
REM
REM
REM
REM ./C.cell (12c818d87b63d06a65506943cc24bca4)
REM
REM compiler GCC version 9.2.1 20190827 (Red Hat 9.2.1-1)
REM options -cpp -mtune=generic -march=x86-64 -g -O0 -fpre-include=/usr/include/finclude/math-vector-fortran.h
REM seed -2033978542 -1873187422 -200836851 -262336935 1173392009 1718950726 -433809895 -189370562 -2144889293 1446623679 -1997404046 2121153821 1933734528 -1345521559 1813658089 509166440 -211172411 -1376839185 -556073538 -1173254166 423671271 2002918348 1202828902 -468974631 1746116335 1386541251 -290027623 -994049941 358052491 1303740015 2044971606 -1567487004 -1383728481
REM
CELL 1.54180   50.00000   50.00000   50.00000   90.00000   90.00000   90.00000
LATT -1
SFAC C  
C      1  0.4247630000000  0.5027050000000  0.5409480000000 1.0
C      1  0.4722350000000  0.4258560000000  0.5406340000000 1.0
C      1  0.5596380000000  0.4494460000000  0.5425660000000 1.0
C      1  0.5685970000000  0.5440590000000  0.5385970000000 1.0
C      1  0.4802340000000  0.5716490000000  0.5371770000000 1.0
C      1  0.4883270000000  0.5469690000000  0.4246840000000 1.0
C      1  0.4517660000000  0.5089020000000  0.4162320000000 1.0
C      1  0.4715170000000  0.4513920000000  0.4196420000000 1.0
C      1  0.5316490000000  0.4591300000000  0.4185720000000 1.0
C      1  0.5465260000000  0.5208830000000  0.4272530000000 1.0
C      1  0.5809710000000  0.4987000000000  0.5389420000000 1.0
C      1  0.5275580000000  0.5748720000000  0.5356290000000 1.0
C      1  0.4400750000000  0.5472520000000  0.5376290000000 1.0
C      1  0.4312250000000  0.4485560000000  0.5343540000000 1.0
C      1  0.5166070000000  0.4259370000000  0.5388560000000 1.0
C      1  0.5147710000000  0.5327560000000  0.5308390000000 1.0
C      1  0.4798080000000  0.5144590000000  0.5338140000000 1.0
C      1  0.4578050000000  0.4685310000000  0.5356480000000 1.0
C      1  0.5112250000000  0.4678390000000  0.5341060000000 1.0
C      1  0.5404020000000  0.5029030000000  0.5328230000000 1.0
C      1  0.5376670000000  0.4568770000000  0.5186310000000 1.0
C      1  0.5458680000000  0.5308630000000  0.5182260000000 1.0
C      1  0.4871190000000  0.5450160000000  0.5208030000000 1.0
C      1  0.4540600000000  0.4964380000000  0.5275210000000 1.0
C      1  0.4841620000000  0.4539440000000  0.5280270000000 1.0
C      1  0.4996290000000  0.4697000000000  0.4163080000000 1.0
C      1  0.5320650000000  0.4929750000000  0.4139470000000 1.0
C      1  0.5130960000000  0.5260110000000  0.4255580000000 1.0
C      1  0.4763970000000  0.5227350000000  0.4103010000000 1.0
C      1  0.4610950000000  0.4795050000000  0.4179060000000 1.0
C      1  0.4166890000000  0.5039980000000  0.4666900000000 1.0
C      1  0.4696710000000  0.4185470000000  0.4628110000000 1.0
C      1  0.5599970000000  0.4502800000000  0.4736960000000 1.0
C      1  0.5743210000000  0.5474150000000  0.4698350000000 1.0
C      1  0.4770340000000  0.5800730000000  0.4693650000000 1.0
C      1  0.4437000000000  0.4213010000000  0.5287260000000 1.0
C      1  0.5451190000000  0.4218690000000  0.5407120000000 1.0
C      1  0.5918520000000  0.5244500000000  0.5401200000000 1.0
C      1  0.5042540000000  0.5905430000000  0.5355340000000 1.0
C      1  0.4174830000000  0.5318530000000  0.5418730000000 1.0
C      1  0.4956190000000  0.4218890000000  0.4739160000000 1.0
C      1  0.5752690000000  0.4747730000000  0.4778470000000 1.0
C      1  0.5554450000000  0.5686990000000  0.4741940000000 1.0
C      1  0.4514170000000  0.5672450000000  0.4741270000000 1.0
C      1  0.4208780000000  0.4753390000000  0.4761910000000 1.0
C      1  0.5206480000000  0.4783680000000  0.5714110000000 1.0
C      1  0.5280930000000  0.5116200000000  0.5698470000000 1.0
C      1  0.4989870000000  0.5284880000000  0.5711550000000 1.0
C      1  0.4719550000000  0.5076150000000  0.5720400000000 1.0
C      1  0.4868480000000  0.4789820000000  0.5745010000000 1.0
C      1  0.4920440000000  0.5967180000000  0.4861210000000 1.0
C      1  0.4064280000000  0.5229760000000  0.4829020000000 1.0
C      1  0.4504210000000  0.4065990000000  0.4798970000000 1.0
C      1  0.5488980000000  0.4376660000000  0.4965270000000 1.0
C      1  0.5917710000000  0.5386080000000  0.4902460000000 1.0
C      1  0.4856300000000  0.5298470000000  0.4605080000000 1.0
C      1  0.4603410000000  0.4888950000000  0.4493260000000 1.0
C      1  0.5084470000000  0.4771130000000  0.4466380000000 1.0
C      1  0.5400280000000  0.4862160000000  0.4458080000000 1.0
C      1  0.5300640000000  0.5345820000000  0.4538520000000 1.0
C      1  0.4432730000000  0.4598760000000  0.5642550000000 1.0
C      1  0.5069780000000  0.4486110000000  0.5603010000000 1.0
C      1  0.5559510000000  0.4947970000000  0.5592920000000 1.0
C      1  0.5226790000000  0.5490640000000  0.5571210000000 1.0
C      1  0.4641320000000  0.5356430000000  0.5533090000000 1.0
C      1  0.5770100000000  0.4866400000000  0.5086630000000 1.0
C      1  0.5421130000000  0.5741490000000  0.5051350000000 1.0
C      1  0.4431910000000  0.5586000000000  0.5059770000000 1.0
C      1  0.4185950000000  0.4643580000000  0.5083880000000 1.0
C      1  0.5055520000000  0.4228670000000  0.5065690000000 1.0
C      1  0.4906880000000  0.4022730000000  0.5292020000000 1.0
C      1  0.5843050000000  0.4608180000000  0.5274360000000 1.0
C      1  0.5662920000000  0.5725880000000  0.5266060000000 1.0
C      1  0.4540150000000  0.5823010000000  0.5253700000000 1.0
C      1  0.4053770000000  0.4842960000000  0.5256450000000 1.0
C      1  0.4086040000000  0.5443040000000  0.4985180000000 1.0
C      1  0.4412650000000  0.4079590000000  0.5054110000000 1.0
C      1  0.5407130000000  0.4108880000000  0.4976810000000 1.0
C      1  0.6001790000000  0.5162410000000  0.5019930000000 1.0
C      1  0.5153060000000  0.6005050000000  0.4984650000000 1.0
C      1  0.5060520000000  0.4538080000000  0.4945770000000 1.0
C      1  0.5488570000000  0.4993200000000  0.4939800000000 1.0
C      1  0.5206110000000  0.5552290000000  0.4867130000000 1.0
C      1  0.4616970000000  0.5336120000000  0.4921280000000 1.0
C      1  0.4480140000000  0.4615120000000  0.4914370000000 1.0
C      1  0.5689630000000  0.5270160000000  0.4508450000000 1.0
C      1  0.4945160000000  0.5619110000000  0.4523190000000 1.0
C      1  0.4390950000000  0.5137970000000  0.4474470000000 1.0
C      1  0.4612380000000  0.4393730000000  0.4443270000000 1.0
C      1  0.5398380000000  0.4527630000000  0.4502800000000 1.0
C      1  0.4831680000000  0.5582370000000  0.5663820000000 1.0
C      1  0.4430430000000  0.4919440000000  0.5656010000000 1.0
C      1  0.4742020000000  0.4484310000000  0.5662610000000 1.0
C      1  0.5516390000000  0.4650270000000  0.5671490000000 1.0
C      1  0.5507590000000  0.5363920000000  0.5637160000000 1.0
C      1  0.5604010000000  0.4991570000000  0.4623090000000 1.0
C      1  0.5266330000000  0.5677130000000  0.4561050000000 1.0
C      1  0.4527570000000  0.5374730000000  0.4597760000000 1.0
C      1  0.4468730000000  0.4621510000000  0.4592010000000 1.0
C      1  0.5105160000000  0.4486190000000  0.4630120000000 1.0
C      1  0.4749350000000  0.4645520000000  0.4997680000000 1.0
C      1  0.5245400000000  0.4820020000000  0.4994420000000 1.0
C      1  0.5414160000000  0.5295410000000  0.4855080000000 1.0
C      1  0.4928250000000  0.5460670000000  0.4896410000000 1.0
C      1  0.4640550000000  0.5043530000000  0.4988300000000 1.0
C      1  0.5005680000000  0.5012600000000  0.4062910000000 1.0
C      1  0.4928730000000  0.4909910000000  0.4904720000000 1.0
C      1  0.4886790000000  0.4980900000000  0.4599100000000 1.0
C      1  0.5085680000000  0.4990440000000  0.5347770000000 1.0
END
