TITL C-2782235-7892-269 -0.00339793108108451 125000 -691.270522698293 0 0 120 (C1) n - 1
REM
REM in /home/nfs/bkarasulu/CARBON/AIRSS/Generating-Clusters/REBO/Higher-Symm/SD-CG/HFTN-CG
REM
REM
REM
REM
REM
REM ./C.cell (12c818d87b63d06a65506943cc24bca4)
REM
REM compiler GCC version 9.2.1 20190827 (Red Hat 9.2.1-1)
REM options -cpp -mtune=generic -march=x86-64 -g -O0 -fpre-include=/usr/include/finclude/math-vector-fortran.h
REM seed -166491411 1628162222 315593344 275651330 -1033575995 1347031156 -1561025410 -643403923 -398925294 1314266082 116376751 1828187312 -247840831 -529144571 -704876878 485136424 1715581192 -180708581 -1554696256 260797886 2101049754 1648671475 -1623178678 252508594 348192355 257385187 1827920014 401346265 -1978891694 1058821337 1333203702 -1620455643 1371495389
REM
CELL 1.54180   50.00000   50.00000   50.00000   90.00000   90.00000   90.00000
LATT -1
SFAC C  
C      1  0.5903310000000  0.5567520000000  0.5015220000000 1.0
C      1  0.5826000000000  0.4317320000000  0.5020660000000 1.0
C      1  0.4611110000000  0.4018210000000  0.4993470000000 1.0
C      1  0.3950060000000  0.5075510000000  0.4993120000000 1.0
C      1  0.4746700000000  0.6025520000000  0.5000000000000 1.0
C      1  0.4022710000000  0.5132470000000  0.4516770000000 1.0
C      1  0.4823240000000  0.5949770000000  0.4507950000000 1.0
C      1  0.5835670000000  0.5446640000000  0.4478980000000 1.0
C      1  0.5741540000000  0.4318270000000  0.4541700000000 1.0
C      1  0.4585280000000  0.4134660000000  0.4507230000000 1.0
C      1  0.4193870000000  0.4901290000000  0.4430870000000 1.0
C      1  0.4646210000000  0.5722430000000  0.4422560000000 1.0
C      1  0.5559510000000  0.5536120000000  0.4402970000000 1.0
C      1  0.5646000000000  0.4606070000000  0.4457520000000 1.0
C      1  0.4854970000000  0.4240530000000  0.4435490000000 1.0
C      1  0.5484660000000  0.4371210000000  0.5472070000000 1.0
C      1  0.4562020000000  0.4354580000000  0.5450630000000 1.0
C      1  0.4259000000000  0.5215950000000  0.5443170000000 1.0
C      1  0.4976580000000  0.5775750000000  0.5450790000000 1.0
C      1  0.5746090000000  0.5265070000000  0.5471050000000 1.0
C      1  0.5802020000000  0.5271940000000  0.5135070000000 1.0
C      1  0.5513330000000  0.4316320000000  0.5137250000000 1.0
C      1  0.4509100000000  0.4310450000000  0.5118200000000 1.0
C      1  0.4198740000000  0.5258850000000  0.5116400000000 1.0
C      1  0.4995330000000  0.5837110000000  0.5119450000000 1.0
C      1  0.5244610000000  0.4189340000000  0.5450580000000 1.0
C      1  0.4310710000000  0.4521230000000  0.5441440000000 1.0
C      1  0.4328780000000  0.5509060000000  0.5444780000000 1.0
C      1  0.5275990000000  0.5799920000000  0.5451210000000 1.0
C      1  0.5849200000000  0.4982900000000  0.5458360000000 1.0
C      1  0.5324840000000  0.4193100000000  0.4903660000000 1.0
C      1  0.4312350000000  0.4443080000000  0.4900990000000 1.0
C      1  0.4258110000000  0.5486670000000  0.4901480000000 1.0
C      1  0.5227750000000  0.5837260000000  0.4899450000000 1.0
C      1  0.5866020000000  0.5049160000000  0.4906660000000 1.0
C      1  0.4346660000000  0.5622890000000  0.5186230000000 1.0
C      1  0.5387600000000  0.5817300000000  0.5191290000000 1.0
C      1  0.5890720000000  0.4887370000000  0.5195750000000 1.0
C      1  0.5167240000000  0.4124800000000  0.5186800000000 1.0
C      1  0.4217780000000  0.4576290000000  0.5181080000000 1.0
C      1  0.5177130000000  0.4261340000000  0.4383720000000 1.0
C      1  0.4331080000000  0.4602630000000  0.4386960000000 1.0
C      1  0.4402570000000  0.5504760000000  0.4383910000000 1.0
C      1  0.5273470000000  0.5684570000000  0.4385330000000 1.0
C      1  0.5727460000000  0.4921690000000  0.4394910000000 1.0
C      1  0.4230160000000  0.4977660000000  0.4821720000000 1.0
C      1  0.4734060000000  0.5725210000000  0.4835660000000 1.0
C      1  0.5608840000000  0.5487510000000  0.4859380000000 1.0
C      1  0.5654090000000  0.4564610000000  0.4857410000000 1.0
C      1  0.4800410000000  0.4253210000000  0.4831390000000 1.0
C      1  0.5208150000000  0.5194310000000  0.5328590000000 1.0
C      1  0.5248860000000  0.4856120000000  0.5332620000000 1.0
C      1  0.4938990000000  0.4717900000000  0.5318500000000 1.0
C      1  0.4715530000000  0.4971070000000  0.5305640000000 1.0
C      1  0.4879260000000  0.5257070000000  0.5309840000000 1.0
C      1  0.4942670000000  0.5234700000000  0.5702920000000 1.0
C      1  0.5216190000000  0.5130200000000  0.5721070000000 1.0
C      1  0.5199650000000  0.4836660000000  0.5726800000000 1.0
C      1  0.4916330000000  0.4762610000000  0.5713540000000 1.0
C      1  0.4759070000000  0.5008100000000  0.5700180000000 1.0
C      1  0.5601460000000  0.5615610000000  0.5164690000000 1.0
C      1  0.5769720000000  0.4620320000000  0.5165440000000 1.0
C      1  0.4878660000000  0.4163460000000  0.5145650000000 1.0
C      1  0.4173060000000  0.4862190000000  0.5137020000000 1.0
C      1  0.4607270000000  0.5752190000000  0.5147440000000 1.0
C      1  0.5726950000000  0.4483890000000  0.5664540000000 1.0
C      1  0.4731570000000  0.4156940000000  0.5651660000000 1.0
C      1  0.4126510000000  0.4996330000000  0.5649010000000 1.0
C      1  0.4724440000000  0.5829580000000  0.5654690000000 1.0
C      1  0.5709860000000  0.5529840000000  0.5663080000000 1.0
C      1  0.4457220000000  0.5044860000000  0.5141780000000 1.0
C      1  0.4860490000000  0.5529660000000  0.5159260000000 1.0
C      1  0.5469810000000  0.5307280000000  0.5188080000000 1.0
C      1  0.5434010000000  0.4639480000000  0.5182470000000 1.0
C      1  0.4792830000000  0.4488010000000  0.5154040000000 1.0
C      1  0.4821550000000  0.4489150000000  0.5630330000000 1.0
C      1  0.4469990000000  0.5011990000000  0.5620360000000 1.0
C      1  0.4849560000000  0.5509390000000  0.5625240000000 1.0
C      1  0.5450160000000  0.5304460000000  0.5640900000000 1.0
C      1  0.5433830000000  0.4663680000000  0.5644960000000 1.0
C      1  0.4931920000000  0.5282980000000  0.4298720000000 1.0
C      1  0.5221520000000  0.5110770000000  0.4324100000000 1.0
C      1  0.5146410000000  0.4788480000000  0.4308450000000 1.0
C      1  0.4811980000000  0.4771420000000  0.4304550000000 1.0
C      1  0.4676010000000  0.5074390000000  0.4281810000000 1.0
C      1  0.4800800000000  0.5179300000000  0.4979470000000 1.0
C      1  0.5123860000000  0.5258460000000  0.4999360000000 1.0
C      1  0.5298350000000  0.4971850000000  0.5015010000000 1.0
C      1  0.5076040000000  0.4722490000000  0.5002450000000 1.0
C      1  0.4768430000000  0.4850580000000  0.4987240000000 1.0
C      1  0.5347760000000  0.4611630000000  0.4850900000000 1.0
C      1  0.4758070000000  0.4564130000000  0.4821430000000 1.0
C      1  0.4521730000000  0.5108560000000  0.4810350000000 1.0
C      1  0.4966940000000  0.5510610000000  0.4833640000000 1.0
C      1  0.5494640000000  0.5198600000000  0.4864700000000 1.0
C      1  0.4194210000000  0.5359310000000  0.4600230000000 1.0
C      1  0.5083030000000  0.5842640000000  0.4604320000000 1.0
C      1  0.5818700000000  0.5175520000000  0.4595060000000 1.0
C      1  0.5437300000000  0.4296910000000  0.4599950000000 1.0
C      1  0.4411970000000  0.4354940000000  0.4599260000000 1.0
C      1  0.4650790000000  0.4508810000000  0.4386280000000 1.0
C      1  0.4391040000000  0.5172100000000  0.4370620000000 1.0
C      1  0.4954660000000  0.5595710000000  0.4381380000000 1.0
C      1  0.5546040000000  0.5198380000000  0.4364160000000 1.0
C      1  0.5338850000000  0.4543360000000  0.4371800000000 1.0
C      1  0.4219330000000  0.4687040000000  0.4694100000000 1.0
C      1  0.4468480000000  0.5629480000000  0.4693360000000 1.0
C      1  0.5432210000000  0.5673510000000  0.4687170000000 1.0
C      1  0.5793220000000  0.4796090000000  0.4701900000000 1.0
C      1  0.5071750000000  0.4172850000000  0.4690980000000 1.0
C      1  0.5746150000000  0.4803240000000  0.5640950000000 1.0
C      1  0.5043040000000  0.4228900000000  0.5634690000000 1.0
C      1  0.4289590000000  0.4721960000000  0.5629330000000 1.0
C      1  0.4516640000000  0.5587750000000  0.5631050000000 1.0
C      1  0.5411960000000  0.5644590000000  0.5634800000000 1.0
C      1  0.5219960000000  0.4810750000000  0.4642040000000 1.0
C      1  0.4903210000000  0.4764660000000  0.4623290000000 1.0
C      1  0.4767610000000  0.5059630000000  0.4599930000000 1.0
C      1  0.5007980000000  0.5280730000000  0.4620460000000 1.0
C      1  0.5283520000000  0.5126740000000  0.4651610000000 1.0
END
