TITL C-2782238-9940-930 0.00505740263465578 125000 -1000.82835021484 0 0 173 (C1) n - 1
REM
REM in /home/nfs/bkarasulu/CARBON/AIRSS/Generating-Clusters/REBO/Higher-Symm/SD-CG/HFTN-CG
REM
REM
REM
REM
REM
REM ./C.cell (12c818d87b63d06a65506943cc24bca4)
REM
REM compiler GCC version 9.2.1 20190827 (Red Hat 9.2.1-1)
REM options -cpp -mtune=generic -march=x86-64 -g -O0 -fpre-include=/usr/include/finclude/math-vector-fortran.h
REM seed 1683544702 -894724775 -2134420741 1884467609 137661390 -1242266070 438530934 531048119 -589654846 579043314 1775508599 -1781653992 331122056 -200142760 -534599694 21728548 -1677767525 -1393324809 -1599725024 228953915 1029928923 -337961297 450472244 532545077 -228349181 1920968591 -1321394310 1404737314 1857659617 862282899 -889110434 -223225386 534679584
REM
CELL 1.54180   50.00000   50.00000   50.00000   90.00000   90.00000   90.00000
LATT -1
SFAC C  
C      1  0.4020360000000  0.4843900000000  0.4260830000000 1.0
C      1  0.5239550000000  0.4959380000000  0.3873130000000 1.0
C      1  0.6087020000000  0.4917580000000  0.4878940000000 1.0
C      1  0.5364100000000  0.4909030000000  0.6145470000000 1.0
C      1  0.4075060000000  0.4947880000000  0.5753130000000 1.0
C      1  0.4523690000000  0.4964600000000  0.5666830000000 1.0
C      1  0.4305830000000  0.4992060000000  0.4754710000000 1.0
C      1  0.5009650000000  0.4935060000000  0.4211210000000 1.0
C      1  0.5665640000000  0.5005140000000  0.4757230000000 1.0
C      1  0.5421000000000  0.5013140000000  0.5578540000000 1.0
C      1  0.4923830000000  0.5218180000000  0.6000840000000 1.0
C      1  0.4085110000000  0.5250440000000  0.5234240000000 1.0
C      1  0.4493370000000  0.5216850000000  0.4214260000000 1.0
C      1  0.5651820000000  0.5272620000000  0.4160710000000 1.0
C      1  0.6032260000000  0.5280280000000  0.5328280000000 1.0
C      1  0.4572800000000  0.5416920000000  0.5863290000000 1.0
C      1  0.4121130000000  0.5332950000000  0.4845310000000 1.0
C      1  0.4866950000000  0.5391630000000  0.4099910000000 1.0
C      1  0.5727390000000  0.5422900000000  0.4543230000000 1.0
C      1  0.5588090000000  0.5382560000000  0.5567920000000 1.0
C      1  0.4755880000000  0.4196170000000  0.5504130000000 1.0
C      1  0.4436880000000  0.4215300000000  0.4943900000000 1.0
C      1  0.4878040000000  0.4175780000000  0.4465950000000 1.0
C      1  0.5476750000000  0.4204210000000  0.4723900000000 1.0
C      1  0.5401290000000  0.4197620000000  0.5384420000000 1.0
C      1  0.5113090000000  0.4554290000000  0.4191490000000 1.0
C      1  0.5760500000000  0.4628800000000  0.4848640000000 1.0
C      1  0.5290060000000  0.4543600000000  0.5787940000000 1.0
C      1  0.4414320000000  0.4590070000000  0.5586470000000 1.0
C      1  0.4277460000000  0.4611510000000  0.4638610000000 1.0
C      1  0.4861800000000  0.4870330000000  0.3965500000000 1.0
C      1  0.5931240000000  0.4907500000000  0.4601400000000 1.0
C      1  0.5686190000000  0.4974110000000  0.5658540000000 1.0
C      1  0.4468700000000  0.4886960000000  0.5945440000000 1.0
C      1  0.4025360000000  0.4930970000000  0.4770000000000 1.0
C      1  0.5193210000000  0.5150360000000  0.5876800000000 1.0
C      1  0.4316380000000  0.5217740000000  0.5438090000000 1.0
C      1  0.4253320000000  0.5239420000000  0.4409640000000 1.0
C      1  0.5347250000000  0.5277120000000  0.4227990000000 1.0
C      1  0.5917820000000  0.5256540000000  0.5052000000000 1.0
C      1  0.4761780000000  0.5572240000000  0.5621470000000 1.0
C      1  0.4483850000000  0.5572010000000  0.5014120000000 1.0
C      1  0.4889180000000  0.5562420000000  0.4394610000000 1.0
C      1  0.5498000000000  0.5658200000000  0.4469170000000 1.0
C      1  0.5659530000000  0.5633630000000  0.5409320000000 1.0
C      1  0.4599250000000  0.4656520000000  0.6078010000000 1.0
C      1  0.3899670000000  0.4746000000000  0.4981430000000 1.0
C      1  0.4657270000000  0.4657150000000  0.3922750000000 1.0
C      1  0.5868960000000  0.4741990000000  0.4337340000000 1.0
C      1  0.5896930000000  0.4757350000000  0.5660380000000 1.0
C      1  0.5518200000000  0.4931880000000  0.5199670000000 1.0
C      1  0.4925660000000  0.4816610000000  0.5596030000000 1.0
C      1  0.4473100000000  0.4831800000000  0.5116220000000 1.0
C      1  0.4715480000000  0.4832690000000  0.4461670000000 1.0
C      1  0.5345750000000  0.4853300000000  0.4574060000000 1.0
C      1  0.4475810000000  0.4971560000000  0.4521720000000 1.0
C      1  0.5258320000000  0.5012420000000  0.4359560000000 1.0
C      1  0.5696680000000  0.5057740000000  0.5030350000000 1.0
C      1  0.5169500000000  0.4910190000000  0.5685870000000 1.0
C      1  0.4445360000000  0.4928090000000  0.5376170000000 1.0
C      1  0.5409850000000  0.5858220000000  0.5377210000000 1.0
C      1  0.4757240000000  0.5876920000000  0.5499760000000 1.0
C      1  0.4461030000000  0.5881540000000  0.4914960000000 1.0
C      1  0.4908850000000  0.5880640000000  0.4452140000000 1.0
C      1  0.5502960000000  0.5887720000000  0.4721200000000 1.0
C      1  0.5784620000000  0.4558120000000  0.5334240000000 1.0
C      1  0.4925980000000  0.4474970000000  0.5937850000000 1.0
C      1  0.4113960000000  0.4534520000000  0.5243050000000 1.0
C      1  0.4497240000000  0.4459810000000  0.4230910000000 1.0
C      1  0.5538720000000  0.4527980000000  0.4267820000000 1.0
C      1  0.4535490000000  0.4448320000000  0.4748110000000 1.0
C      1  0.5079480000000  0.4416800000000  0.4488950000000 1.0
C      1  0.5506670000000  0.4440070000000  0.4935230000000 1.0
C      1  0.5199030000000  0.4422360000000  0.5481790000000 1.0
C      1  0.4609260000000  0.4441290000000  0.5363270000000 1.0
C      1  0.5512970000000  0.4298760000000  0.5691410000000 1.0
C      1  0.4515770000000  0.4298220000000  0.5722980000000 1.0
C      1  0.4155990000000  0.4336960000000  0.4792850000000 1.0
C      1  0.4935820000000  0.4275160000000  0.4145110000000 1.0
C      1  0.5779480000000  0.4348490000000  0.4660210000000 1.0
C      1  0.5076940000000  0.5406970000000  0.5399230000000 1.0
C      1  0.4674940000000  0.5542710000000  0.5296150000000 1.0
C      1  0.4730380000000  0.5430740000000  0.4822840000000 1.0
C      1  0.5194000000000  0.5555360000000  0.4545850000000 1.0
C      1  0.5520550000000  0.5557060000000  0.5131280000000 1.0
C      1  0.4629640000000  0.5909350000000  0.4618970000000 1.0
C      1  0.5234190000000  0.5952280000000  0.4529660000000 1.0
C      1  0.5508790000000  0.5946700000000  0.5061130000000 1.0
C      1  0.5096950000000  0.5908650000000  0.5511480000000 1.0
C      1  0.4533840000000  0.5929050000000  0.5243950000000 1.0
C      1  0.5241700000000  0.4902110000000  0.4846130000000 1.0
C      1  0.5258520000000  0.4875160000000  0.5242040000000 1.0
C      1  0.4867470000000  0.4896920000000  0.5311770000000 1.0
C      1  0.4707920000000  0.4962770000000  0.4954440000000 1.0
C      1  0.4937100000000  0.4904760000000  0.4637730000000 1.0
C      1  0.5053260000000  0.5707910000000  0.5261620000000 1.0
C      1  0.4798360000000  0.5794770000000  0.5111590000000 1.0
C      1  0.4822800000000  0.5743960000000  0.4818340000000 1.0
C      1  0.5113870000000  0.5762540000000  0.4774380000000 1.0
C      1  0.5251610000000  0.5737420000000  0.5032400000000 1.0
C      1  0.4854260000000  0.5209320000000  0.5413850000000 1.0
C      1  0.4640740000000  0.5232560000000  0.5155780000000 1.0
C      1  0.4946210000000  0.5226570000000  0.4656420000000 1.0
C      1  0.5250040000000  0.5300050000000  0.4733440000000 1.0
C      1  0.5280360000000  0.5340290000000  0.5058180000000 1.0
C      1  0.4494850000000  0.4886670000000  0.4118870000000 1.0
C      1  0.5645200000000  0.4928650000000  0.4176870000000 1.0
C      1  0.5979330000000  0.4946600000000  0.5390070000000 1.0
C      1  0.4848410000000  0.4889700000000  0.6068040000000 1.0
C      1  0.3981270000000  0.4923330000000  0.5250930000000 1.0
C      1  0.5162890000000  0.5531030000000  0.4104900000000 1.0
C      1  0.5894140000000  0.5487610000000  0.4801580000000 1.0
C      1  0.5397570000000  0.5409770000000  0.5818150000000 1.0
C      1  0.4357460000000  0.5490910000000  0.5633640000000 1.0
C      1  0.4219130000000  0.5460350000000  0.4607860000000 1.0
C      1  0.4289750000000  0.4691300000000  0.4311230000000 1.0
C      1  0.5371490000000  0.4747380000000  0.4082910000000 1.0
C      1  0.5934970000000  0.4750480000000  0.5115330000000 1.0
C      1  0.5137860000000  0.4713350000000  0.6030880000000 1.0
C      1  0.4119720000000  0.4738670000000  0.5502330000000 1.0
C      1  0.5460520000000  0.5181790000000  0.6065100000000 1.0
C      1  0.4186380000000  0.5204760000000  0.5731260000000 1.0
C      1  0.4007070000000  0.5090500000000  0.4316150000000 1.0
C      1  0.5195800000000  0.5225410000000  0.3944520000000 1.0
C      1  0.6135820000000  0.5246040000000  0.4805390000000 1.0
C      1  0.5558720000000  0.4667210000000  0.4574010000000 1.0
C      1  0.5536980000000  0.4617750000000  0.5563460000000 1.0
C      1  0.4734890000000  0.4628590000000  0.5703160000000 1.0
C      1  0.4289200000000  0.4661590000000  0.4978440000000 1.0
C      1  0.4790150000000  0.4613090000000  0.4295150000000 1.0
C      1  0.5250750000000  0.4592290000000  0.4961100000000 1.0
C      1  0.5113790000000  0.4588140000000  0.5254450000000 1.0
C      1  0.4794680000000  0.4608310000000  0.5193830000000 1.0
C      1  0.4743250000000  0.4632420000000  0.4872840000000 1.0
C      1  0.5025550000000  0.4592480000000  0.4724750000000 1.0
C      1  0.4381220000000  0.5191690000000  0.4972630000000 1.0
C      1  0.4892040000000  0.5170500000000  0.4343030000000 1.0
C      1  0.5517120000000  0.5208170000000  0.4630180000000 1.0
C      1  0.5364510000000  0.5256520000000  0.5373630000000 1.0
C      1  0.4701190000000  0.5183840000000  0.5671970000000 1.0
C      1  0.4619010000000  0.4374490000000  0.5988460000000 1.0
C      1  0.3951020000000  0.4449620000000  0.4974400000000 1.0
C      1  0.4696720000000  0.4368250000000  0.3993740000000 1.0
C      1  0.5829620000000  0.4442570000000  0.4385550000000 1.0
C      1  0.5821290000000  0.4441620000000  0.5654160000000 1.0
C      1  0.4876790000000  0.4051460000000  0.5264000000000 1.0
C      1  0.4696620000000  0.4049490000000  0.4971880000000 1.0
C      1  0.4935690000000  0.4030610000000  0.4725800000000 1.0
C      1  0.5245360000000  0.4053810000000  0.4872140000000 1.0
C      1  0.5212720000000  0.4018350000000  0.5210380000000 1.0
C      1  0.4365340000000  0.5694180000000  0.4644830000000 1.0
C      1  0.5162520000000  0.5802710000000  0.4233530000000 1.0
C      1  0.5710460000000  0.5706540000000  0.4914850000000 1.0
C      1  0.5268600000000  0.5620990000000  0.5585010000000 1.0
C      1  0.4430100000000  0.5765370000000  0.5517750000000 1.0
C      1  0.4602760000000  0.4310310000000  0.4484690000000 1.0
C      1  0.5371120000000  0.4330400000000  0.4457830000000 1.0
C      1  0.5604960000000  0.4340100000000  0.5201020000000 1.0
C      1  0.4986120000000  0.4311370000000  0.5673240000000 1.0
C      1  0.4364090000000  0.4343250000000  0.5214190000000 1.0
C      1  0.4604300000000  0.5440820000000  0.4394800000000 1.0
C      1  0.5611000000000  0.5574460000000  0.4194080000000 1.0
C      1  0.5951590000000  0.5567820000000  0.5414210000000 1.0
C      1  0.4964150000000  0.5472180000000  0.5827100000000 1.0
C      1  0.4239960000000  0.5509020000000  0.5178660000000 1.0
C      1  0.4694220000000  0.5138970000000  0.3977470000000 1.0
C      1  0.5827790000000  0.5132930000000  0.4393100000000 1.0
C      1  0.5847470000000  0.5220930000000  0.5583930000000 1.0
C      1  0.4611240000000  0.5150780000000  0.6059940000000 1.0
C      1  0.3885870000000  0.5141850000000  0.4994890000000 1.0
C      1  0.4981510000000  0.4232540000000  0.4994210000000 1.0
C      1  0.4982990000000  0.5406290000000  0.5010540000000 1.0
C      1  0.5027180000000  0.5028550000000  0.5049300000000 1.0
END
