TITL C-2782231-7322-582 0.00467369536302056 125000 -954.429460056294 0 0 171 (C1) n - 1
REM
REM in /home/nfs/bkarasulu/CARBON/AIRSS/Generating-Clusters/REBO/Higher-Symm/SD-CG/HFTN-CG
REM
REM
REM
REM
REM
REM ./C.cell (12c818d87b63d06a65506943cc24bca4)
REM
REM compiler GCC version 9.2.1 20190827 (Red Hat 9.2.1-1)
REM options -cpp -mtune=generic -march=x86-64 -g -O0 -fpre-include=/usr/include/finclude/math-vector-fortran.h
REM seed 2045867220 1588281457 692193645 1918268943 -1965484258 1841078385 -1691155007 1582072284 1351035556 1008074780 -1917731842 676501272 -1032426461 375749619 -1418426289 -74737114 -1522886069 6802150 1793746609 -721180807 -410867586 2059447234 233992244 395822415 -423957410 -1884340232 165482014 -1033943060 396619647 -347114638 -1094949295 -1460007546 1462111506
REM
CELL 1.54180   50.00000   50.00000   50.00000   90.00000   90.00000   90.00000
LATT -1
SFAC C  
C      1  0.4066540000000  0.4760490000000  0.5426960000000 1.0
C      1  0.5571000000000  0.4309730000000  0.5457630000000 1.0
C      1  0.5317840000000  0.5834100000000  0.5431210000000 1.0
C      1  0.4059550000000  0.5103150000000  0.5433250000000 1.0
C      1  0.5632210000000  0.5696330000000  0.5430490000000 1.0
C      1  0.5276530000000  0.4131890000000  0.5464210000000 1.0
C      1  0.3924860000000  0.5550760000000  0.5150150000000 1.0
C      1  0.5091300000000  0.3812480000000  0.5100760000000 1.0
C      1  0.5925550000000  0.5689320000000  0.5125140000000 1.0
C      1  0.3932460000000  0.4548860000000  0.5117320000000 1.0
C      1  0.5108990000000  0.6153820000000  0.5167530000000 1.0
C      1  0.5942180000000  0.4333230000000  0.5100140000000 1.0
C      1  0.6056120000000  0.5193430000000  0.4897180000000 1.0
C      1  0.4400400000000  0.5756250000000  0.4929720000000 1.0
C      1  0.4614670000000  0.4041230000000  0.4915890000000 1.0
C      1  0.6027720000000  0.4856870000000  0.4938990000000 1.0
C      1  0.4315380000000  0.4188430000000  0.4876390000000 1.0
C      1  0.4658950000000  0.5962200000000  0.4907630000000 1.0
C      1  0.5421040000000  0.5473990000000  0.5568760000000 1.0
C      1  0.4329110000000  0.5186200000000  0.5624670000000 1.0
C      1  0.5143820000000  0.4409130000000  0.5611180000000 1.0
C      1  0.5413800000000  0.4581020000000  0.5589580000000 1.0
C      1  0.4324280000000  0.4862510000000  0.5611040000000 1.0
C      1  0.5123200000000  0.5591930000000  0.5572260000000 1.0
C      1  0.4365460000000  0.5093770000000  0.5288970000000 1.0
C      1  0.5229160000000  0.4407680000000  0.5280060000000 1.0
C      1  0.5431060000000  0.5507170000000  0.5231860000000 1.0
C      1  0.4376810000000  0.4751840000000  0.5281100000000 1.0
C      1  0.5116960000000  0.5635450000000  0.5236070000000 1.0
C      1  0.5507860000000  0.4591460000000  0.5264600000000 1.0
C      1  0.5996210000000  0.5314070000000  0.4584870000000 1.0
C      1  0.4328410000000  0.5638210000000  0.4657880000000 1.0
C      1  0.4769420000000  0.4045540000000  0.4611380000000 1.0
C      1  0.5977260000000  0.4702210000000  0.4638780000000 1.0
C      1  0.4277410000000  0.4296490000000  0.4556050000000 1.0
C      1  0.4781740000000  0.5928200000000  0.4633350000000 1.0
C      1  0.4986840000000  0.5324720000000  0.5308800000000 1.0
C      1  0.4714920000000  0.4812790000000  0.5301920000000 1.0
C      1  0.5291040000000  0.4855700000000  0.5326890000000 1.0
C      1  0.5009690000000  0.4662540000000  0.5332710000000 1.0
C      1  0.4697890000000  0.5153940000000  0.5288000000000 1.0
C      1  0.5302880000000  0.5196400000000  0.5306220000000 1.0
C      1  0.4514920000000  0.4477180000000  0.4686790000000 1.0
C      1  0.5719560000000  0.4894570000000  0.4688510000000 1.0
C      1  0.4817670000000  0.5591570000000  0.4588730000000 1.0
C      1  0.4580570000000  0.5424490000000  0.4567140000000 1.0
C      1  0.5726330000000  0.5156290000000  0.4675210000000 1.0
C      1  0.4745670000000  0.4355090000000  0.4707900000000 1.0
C      1  0.4520320000000  0.5512260000000  0.5139760000000 1.0
C      1  0.4738350000000  0.4280630000000  0.5130170000000 1.0
C      1  0.5773230000000  0.5190620000000  0.5087420000000 1.0
C      1  0.4438940000000  0.4428990000000  0.5088450000000 1.0
C      1  0.4771600000000  0.5710140000000  0.5091200000000 1.0
C      1  0.5745010000000  0.4860100000000  0.5135460000000 1.0
C      1  0.5032910000000  0.5260140000000  0.4409400000000 1.0
C      1  0.4782120000000  0.4833090000000  0.4418270000000 1.0
C      1  0.5274250000000  0.4834410000000  0.4379210000000 1.0
C      1  0.5024530000000  0.4696340000000  0.4398650000000 1.0
C      1  0.4792470000000  0.5111510000000  0.4437860000000 1.0
C      1  0.5283230000000  0.5119350000000  0.4381480000000 1.0
C      1  0.4846960000000  0.5823990000000  0.5737690000000 1.0
C      1  0.4453400000000  0.4433270000000  0.5739320000000 1.0
C      1  0.5726920000000  0.4755690000000  0.5775590000000 1.0
C      1  0.4872130000000  0.4148520000000  0.5743010000000 1.0
C      1  0.4446030000000  0.5531400000000  0.5784500000000 1.0
C      1  0.5771750000000  0.5266570000000  0.5728820000000 1.0
C      1  0.5393000000000  0.5181990000000  0.5634160000000 1.0
C      1  0.4638320000000  0.5225080000000  0.5615720000000 1.0
C      1  0.4909610000000  0.4613470000000  0.5655810000000 1.0
C      1  0.5338070000000  0.4870070000000  0.5668450000000 1.0
C      1  0.4624030000000  0.4776320000000  0.5628590000000 1.0
C      1  0.4926120000000  0.5366350000000  0.5644830000000 1.0
C      1  0.5375170000000  0.3835080000000  0.4965800000000 1.0
C      1  0.5783340000000  0.5945160000000  0.4963140000000 1.0
C      1  0.3784990000000  0.5311890000000  0.4978850000000 1.0
C      1  0.5370800000000  0.6183880000000  0.4975760000000 1.0
C      1  0.5763800000000  0.4095660000000  0.4976490000000 1.0
C      1  0.3785100000000  0.4829760000000  0.4999040000000 1.0
C      1  0.5741320000000  0.5432060000000  0.4387670000000 1.0
C      1  0.4215410000000  0.5430250000000  0.4410630000000 1.0
C      1  0.5052280000000  0.4125800000000  0.4453680000000 1.0
C      1  0.5728030000000  0.4580170000000  0.4437740000000 1.0
C      1  0.4225140000000  0.4588420000000  0.4409520000000 1.0
C      1  0.5013990000000  0.5852320000000  0.4391950000000 1.0
C      1  0.5005510000000  0.5318430000000  0.4953110000000 1.0
C      1  0.4711920000000  0.4842560000000  0.4958300000000 1.0
C      1  0.5272700000000  0.4855440000000  0.4975180000000 1.0
C      1  0.4998910000000  0.4686420000000  0.4987020000000 1.0
C      1  0.4722210000000  0.5156110000000  0.4946540000000 1.0
C      1  0.5281600000000  0.5172790000000  0.4958320000000 1.0
C      1  0.5902520000000  0.4849940000000  0.4336030000000 1.0
C      1  0.4677040000000  0.5840320000000  0.4319400000000 1.0
C      1  0.4487630000000  0.4389160000000  0.4299790000000 1.0
C      1  0.5894360000000  0.5136620000000  0.4313180000000 1.0
C      1  0.4753480000000  0.4240020000000  0.4326040000000 1.0
C      1  0.4414820000000  0.5698950000000  0.4331120000000 1.0
C      1  0.5799340000000  0.4796020000000  0.5463840000000 1.0
C      1  0.4725730000000  0.5754090000000  0.5425940000000 1.0
C      1  0.4464750000000  0.4350440000000  0.5421000000000 1.0
C      1  0.5803170000000  0.5133660000000  0.5421780000000 1.0
C      1  0.4754750000000  0.4171660000000  0.5434060000000 1.0
C      1  0.4438220000000  0.5572250000000  0.5464510000000 1.0
C      1  0.3954350000000  0.4920070000000  0.4718490000000 1.0
C      1  0.5598790000000  0.4220190000000  0.4714270000000 1.0
C      1  0.5350120000000  0.6024450000000  0.4680980000000 1.0
C      1  0.3928490000000  0.5236560000000  0.4689110000000 1.0
C      1  0.5607900000000  0.5838460000000  0.4690820000000 1.0
C      1  0.5344030000000  0.4018750000000  0.4703170000000 1.0
C      1  0.5463780000000  0.5251040000000  0.4164060000000 1.0
C      1  0.4551760000000  0.5257300000000  0.4283020000000 1.0
C      1  0.5001910000000  0.4434170000000  0.4210130000000 1.0
C      1  0.5460160000000  0.4705590000000  0.4168670000000 1.0
C      1  0.4549040000000  0.4706860000000  0.4216430000000 1.0
C      1  0.5017430000000  0.5498250000000  0.4208550000000 1.0
C      1  0.5255940000000  0.4817180000000  0.5987840000000 1.0
C      1  0.5032800000000  0.5320310000000  0.5955060000000 1.0
C      1  0.4733730000000  0.4838600000000  0.5934410000000 1.0
C      1  0.5290810000000  0.5153030000000  0.5947210000000 1.0
C      1  0.5008600000000  0.4651860000000  0.5978270000000 1.0
C      1  0.4753170000000  0.5133940000000  0.5919970000000 1.0
C      1  0.5245480000000  0.5120540000000  0.3983570000000 1.0
C      1  0.4750770000000  0.5124990000000  0.4041080000000 1.0
C      1  0.4994030000000  0.4690920000000  0.4000580000000 1.0
C      1  0.5245760000000  0.4829810000000  0.3980870000000 1.0
C      1  0.4755160000000  0.4841930000000  0.4020170000000 1.0
C      1  0.4994230000000  0.5264990000000  0.4011520000000 1.0
C      1  0.5022000000000  0.3968090000000  0.5381060000000 1.0
C      1  0.5874270000000  0.5462860000000  0.5371480000000 1.0
C      1  0.4144120000000  0.5427580000000  0.5369570000000 1.0
C      1  0.4998190000000  0.5966680000000  0.5419830000000 1.0
C      1  0.5863540000000  0.4470180000000  0.5390080000000 1.0
C      1  0.4144650000000  0.4435720000000  0.5356850000000 1.0
C      1  0.5462290000000  0.4521050000000  0.4624550000000 1.0
C      1  0.5239400000000  0.5710290000000  0.4608330000000 1.0
C      1  0.4266890000000  0.4836680000000  0.4614040000000 1.0
C      1  0.5506930000000  0.5527620000000  0.4594710000000 1.0
C      1  0.5220120000000  0.4334250000000  0.4660770000000 1.0
C      1  0.4254550000000  0.5163340000000  0.4623300000000 1.0
C      1  0.4636230000000  0.4515710000000  0.5930030000000 1.0
C      1  0.5589110000000  0.4888840000000  0.5975860000000 1.0
C      1  0.4887740000000  0.5632770000000  0.5938020000000 1.0
C      1  0.4654200000000  0.5447720000000  0.5946260000000 1.0
C      1  0.5630720000000  0.5187700000000  0.5953550000000 1.0
C      1  0.4877300000000  0.4337710000000  0.5941750000000 1.0
C      1  0.5516450000000  0.4420840000000  0.4239560000000 1.0
C      1  0.5251040000000  0.5687970000000  0.4210660000000 1.0
C      1  0.4259160000000  0.4861140000000  0.4215710000000 1.0
C      1  0.5494990000000  0.5551710000000  0.4196370000000 1.0
C      1  0.5282530000000  0.4267140000000  0.4253600000000 1.0
C      1  0.4262510000000  0.5150410000000  0.4226060000000 1.0
C      1  0.4079350000000  0.4254480000000  0.5076910000000 1.0
C      1  0.6070620000000  0.4634030000000  0.5170960000000 1.0
C      1  0.4784490000000  0.6097420000000  0.5179660000000 1.0
C      1  0.4206220000000  0.5720460000000  0.5200040000000 1.0
C      1  0.6103770000000  0.5412110000000  0.5124160000000 1.0
C      1  0.4773230000000  0.3886320000000  0.5155830000000 1.0
C      1  0.4446450000000  0.5319000000000  0.4866240000000 1.0
C      1  0.4987000000000  0.4377590000000  0.4911480000000 1.0
C      1  0.5540710000000  0.5326070000000  0.4874520000000 1.0
C      1  0.4434300000000  0.4708980000000  0.4887780000000 1.0
C      1  0.5005110000000  0.5628390000000  0.4854170000000 1.0
C      1  0.5543560000000  0.4723870000000  0.4890190000000 1.0
C      1  0.4117540000000  0.5400530000000  0.4913520000000 1.0
C      1  0.5052590000000  0.4041430000000  0.4867010000000 1.0
C      1  0.5656620000000  0.5631270000000  0.4949540000000 1.0
C      1  0.4119450000000  0.4779650000000  0.4979660000000 1.0
C      1  0.5128860000000  0.5940670000000  0.4914430000000 1.0
C      1  0.5773650000000  0.4469270000000  0.4861520000000 1.0
C      1  0.3666990000000  0.5075610000000  0.5090060000000 1.0
C      1  0.5626290000000  0.3876720000000  0.5074000000000 1.0
C      1  0.5641490000000  0.6171960000000  0.5065190000000 1.0
END
