TITL C-2782235-7892-899 0.0016030867416307 125000 -348.318761512315 0 0 59 (C1) n - 1
REM
REM in /home/nfs/bkarasulu/CARBON/AIRSS/Generating-Clusters/REBO/Higher-Symm/SD-CG/HFTN-CG
REM
REM
REM
REM
REM
REM ./C.cell (12c818d87b63d06a65506943cc24bca4)
REM
REM compiler GCC version 9.2.1 20190827 (Red Hat 9.2.1-1)
REM options -cpp -mtune=generic -march=x86-64 -g -O0 -fpre-include=/usr/include/finclude/math-vector-fortran.h
REM seed 1046147454 -2034283305 898176428 1326774119 982671895 -120902561 1695240864 -325033270 1138034322 -2112565408 -103278775 324814797 -1535920810 1222099536 -2087987141 1958321665 742424695 1930476968 -1373557857 -1307936042 -2002497027 688809511 1846113434 1651359551 -1273461375 -2123067105 -69518108 1507765607 -1708773460 842301735 1541698957 -390926049 -29182800
REM
CELL 1.54180   50.00000   50.00000   50.00000   90.00000   90.00000   90.00000
LATT -1
SFAC C  
C      1  0.4380800000000  0.4431710000000  0.5125480000000 1.0
C      1  0.5578940000000  0.5557380000000  0.4950210000000 1.0
C      1  0.4348540000000  0.4976420000000  0.5312940000000 1.0
C      1  0.5763080000000  0.5149620000000  0.4688660000000 1.0
C      1  0.4967340000000  0.4860910000000  0.5217550000000 1.0
C      1  0.5022340000000  0.5179980000000  0.4664990000000 1.0
C      1  0.4729380000000  0.4438060000000  0.4827490000000 1.0
C      1  0.5229030000000  0.5533980000000  0.5248990000000 1.0
C      1  0.4844330000000  0.4356900000000  0.5095050000000 1.0
C      1  0.5113270000000  0.5568630000000  0.4985010000000 1.0
C      1  0.4400650000000  0.4782520000000  0.4692780000000 1.0
C      1  0.5573420000000  0.5189560000000  0.5379120000000 1.0
C      1  0.5335060000000  0.4658970000000  0.5471980000000 1.0
C      1  0.4639000000000  0.5316230000000  0.4425820000000 1.0
C      1  0.5513590000000  0.5463330000000  0.5217180000000 1.0
C      1  0.4455600000000  0.4525610000000  0.4861220000000 1.0
C      1  0.5105370000000  0.5442920000000  0.4321360000000 1.0
C      1  0.4924360000000  0.4513460000000  0.5665860000000 1.0
C      1  0.5562060000000  0.5280280000000  0.4477900000000 1.0
C      1  0.4520700000000  0.4779700000000  0.5519010000000 1.0
C      1  0.5339060000000  0.5155590000000  0.4696740000000 1.0
C      1  0.4674330000000  0.4945970000000  0.5270280000000 1.0
C      1  0.5119180000000  0.5388420000000  0.5466330000000 1.0
C      1  0.4909550000000  0.4647430000000  0.4683270000000 1.0
C      1  0.4737260000000  0.5084690000000  0.4981080000000 1.0
C      1  0.5390310000000  0.5044860000000  0.4948170000000 1.0
C      1  0.5042150000000  0.4616180000000  0.4997980000000 1.0
C      1  0.4898090000000  0.5378510000000  0.4901020000000 1.0
C      1  0.4239810000000  0.5078010000000  0.5079610000000 1.0
C      1  0.5787510000000  0.5041300000000  0.4909520000000 1.0
C      1  0.4842460000000  0.4840720000000  0.5620640000000 1.0
C      1  0.5293450000000  0.5186190000000  0.4301490000000 1.0
C      1  0.5099200000000  0.4659500000000  0.4453920000000 1.0
C      1  0.4851990000000  0.5375820000000  0.5539820000000 1.0
C      1  0.4581120000000  0.5443720000000  0.4907460000000 1.0
C      1  0.5352540000000  0.4575420000000  0.5000780000000 1.0
C      1  0.5197080000000  0.4452610000000  0.5615590000000 1.0
C      1  0.4826060000000  0.5495900000000  0.4298690000000 1.0
C      1  0.4554900000000  0.5343550000000  0.5421060000000 1.0
C      1  0.5409420000000  0.4669220000000  0.4502180000000 1.0
C      1  0.5484070000000  0.4681490000000  0.5231220000000 1.0
C      1  0.4455140000000  0.5343440000000  0.4650360000000 1.0
C      1  0.4620290000000  0.4360010000000  0.5284490000000 1.0
C      1  0.5332600000000  0.5603570000000  0.4792380000000 1.0
C      1  0.5142040000000  0.4893930000000  0.5480310000000 1.0
C      1  0.4796160000000  0.5085980000000  0.4500240000000 1.0
C      1  0.4473530000000  0.5430820000000  0.5168830000000 1.0
C      1  0.5488760000000  0.4574220000000  0.4752890000000 1.0
C      1  0.4186410000000  0.4767170000000  0.4515270000000 1.0
C      1  0.5784680000000  0.5204030000000  0.5563190000000 1.0
C      1  0.5258020000000  0.4908980000000  0.4324560000000 1.0
C      1  0.4688430000000  0.5121140000000  0.5629480000000 1.0
C      1  0.5281800000000  0.5158520000000  0.5508180000000 1.0
C      1  0.4693070000000  0.4846120000000  0.4594020000000 1.0
C      1  0.4658160000000  0.4497760000000  0.5530140000000 1.0
C      1  0.5330070000000  0.5514750000000  0.4522690000000 1.0
C      1  0.4446450000000  0.5071720000000  0.4838340000000 1.0
C      1  0.5600650000000  0.4964950000000  0.5166890000000 1.0
C      1  0.5073320000000  0.5024770000000  0.4963620000000 1.0
END
