TITL C-2782235-7892-31 6.7085126174603e-05 125000 -1096.29679727573 0 0 194 (C1) n - 1
REM
REM in /home/nfs/bkarasulu/CARBON/AIRSS/Generating-Clusters/REBO/Higher-Symm/SD-CG/HFTN-CG
REM
REM
REM
REM
REM
REM ./C.cell (12c818d87b63d06a65506943cc24bca4)
REM
REM compiler GCC version 9.2.1 20190827 (Red Hat 9.2.1-1)
REM options -cpp -mtune=generic -march=x86-64 -g -O0 -fpre-include=/usr/include/finclude/math-vector-fortran.h
REM seed -1036645843 -1395357897 545161096 162319972 2099156352 -1931683382 -10541259 -110473004 -1400175008 918870814 285799180 965852931 1060414356 169183014 -2049288947 -285642698 840906674 612609328 -1338019784 1538780199 -621387132 941404087 1078443852 -950746537 -851153111 1397572876 1223306694 2036259847 762510890 -1038517617 1606629833 1753542349 -1706078491
REM
CELL 1.54180   50.00000   50.00000   50.00000   90.00000   90.00000   90.00000
LATT -1
SFAC C  
C      1  0.4208280000000  0.4778600000000  0.4878820000000 1.0
C      1  0.4327260000000  0.5458560000000  0.4896110000000 1.0
C      1  0.4948660000000  0.5828240000000  0.4903440000000 1.0
C      1  0.5597490000000  0.5537180000000  0.4904650000000 1.0
C      1  0.5825820000000  0.4859180000000  0.4900360000000 1.0
C      1  0.5381160000000  0.4307320000000  0.4898040000000 1.0
C      1  0.4671490000000  0.4249410000000  0.4879910000000 1.0
C      1  0.5756120000000  0.4354340000000  0.5372020000000 1.0
C      1  0.4970840000000  0.4037340000000  0.5359810000000 1.0
C      1  0.4219410000000  0.4454140000000  0.5360270000000 1.0
C      1  0.4083590000000  0.5237860000000  0.5377910000000 1.0
C      1  0.4587000000000  0.5886330000000  0.5372840000000 1.0
C      1  0.5469840000000  0.5887100000000  0.5362020000000 1.0
C      1  0.5956570000000  0.5195100000000  0.5373630000000 1.0
C      1  0.5793340000000  0.4279950000000  0.5045450000000 1.0
C      1  0.4895350000000  0.3958340000000  0.5037370000000 1.0
C      1  0.4122100000000  0.4424460000000  0.5035680000000 1.0
C      1  0.3996930000000  0.5298050000000  0.5054470000000 1.0
C      1  0.4592540000000  0.5969350000000  0.5050970000000 1.0
C      1  0.5523510000000  0.5938520000000  0.5031520000000 1.0
C      1  0.6050660000000  0.5153990000000  0.5048510000000 1.0
C      1  0.4628030000000  0.5011980000000  0.4796250000000 1.0
C      1  0.4780660000000  0.5293340000000  0.4817140000000 1.0
C      1  0.5111670000000  0.5348230000000  0.4829660000000 1.0
C      1  0.5346200000000  0.5140240000000  0.4813020000000 1.0
C      1  0.5321540000000  0.4803150000000  0.4798670000000 1.0
C      1  0.5068600000000  0.4622880000000  0.4790100000000 1.0
C      1  0.4747720000000  0.4719300000000  0.4769980000000 1.0
C      1  0.5382680000000  0.3998300000000  0.5045970000000 1.0
C      1  0.4438450000000  0.4070680000000  0.5060060000000 1.0
C      1  0.3932540000000  0.4821850000000  0.5080950000000 1.0
C      1  0.4182070000000  0.5714460000000  0.5068860000000 1.0
C      1  0.5077910000000  0.6113370000000  0.5045130000000 1.0
C      1  0.5898040000000  0.5615930000000  0.5049380000000 1.0
C      1  0.6067650000000  0.4673130000000  0.5061560000000 1.0
C      1  0.4837610000000  0.4348490000000  0.4192470000000 1.0
C      1  0.4383450000000  0.4723260000000  0.4186800000000 1.0
C      1  0.4405960000000  0.5296720000000  0.4205370000000 1.0
C      1  0.4865540000000  0.5654440000000  0.4221070000000 1.0
C      1  0.5430610000000  0.5511290000000  0.4222180000000 1.0
C      1  0.5680080000000  0.4980210000000  0.4214000000000 1.0
C      1  0.5419650000000  0.4452400000000  0.4208840000000 1.0
C      1  0.4846330000000  0.5337530000000  0.5449450000000 1.0
C      1  0.5139090000000  0.5342940000000  0.5403880000000 1.0
C      1  0.5333550000000  0.5103110000000  0.5491990000000 1.0
C      1  0.5335220000000  0.4792390000000  0.5433280000000 1.0
C      1  0.5039780000000  0.4655470000000  0.5489100000000 1.0
C      1  0.4734490000000  0.4744400000000  0.5430350000000 1.0
C      1  0.4681410000000  0.5049870000000  0.5502450000000 1.0
C      1  0.5726820000000  0.5256960000000  0.5055720000000 1.0
C      1  0.5677820000000  0.4599410000000  0.5068850000000 1.0
C      1  0.5072540000000  0.4248770000000  0.5038190000000 1.0
C      1  0.4460750000000  0.4468080000000  0.5043130000000 1.0
C      1  0.4246010000000  0.5066370000000  0.5057780000000 1.0
C      1  0.4570110000000  0.5627840000000  0.5069180000000 1.0
C      1  0.5240740000000  0.5751960000000  0.5066900000000 1.0
C      1  0.4347350000000  0.4987880000000  0.4677910000000 1.0
C      1  0.4580060000000  0.5490200000000  0.4694910000000 1.0
C      1  0.5123320000000  0.5634950000000  0.4703140000000 1.0
C      1  0.5589140000000  0.5287460000000  0.4682830000000 1.0
C      1  0.5601040000000  0.4728330000000  0.4698160000000 1.0
C      1  0.5149360000000  0.4352150000000  0.4660850000000 1.0
C      1  0.4592030000000  0.4483830000000  0.4666770000000 1.0
C      1  0.4908080000000  0.5802850000000  0.4508020000000 1.0
C      1  0.5572940000000  0.5565710000000  0.4508140000000 1.0
C      1  0.5809490000000  0.4894780000000  0.4503280000000 1.0
C      1  0.5435790000000  0.4309810000000  0.4502970000000 1.0
C      1  0.4714970000000  0.4242370000000  0.4482880000000 1.0
C      1  0.4231740000000  0.4746460000000  0.4481400000000 1.0
C      1  0.4324650000000  0.5422860000000  0.4498240000000 1.0
C      1  0.5875320000000  0.5649870000000  0.4642280000000 1.0
C      1  0.6069590000000  0.4710120000000  0.4622790000000 1.0
C      1  0.5434170000000  0.4001010000000  0.4649270000000 1.0
C      1  0.4464580000000  0.4046570000000  0.4605690000000 1.0
C      1  0.3919810000000  0.4807080000000  0.4604540000000 1.0
C      1  0.4164710000000  0.5697410000000  0.4621150000000 1.0
C      1  0.5018010000000  0.6103650000000  0.4626180000000 1.0
C      1  0.4966860000000  0.5395880000000  0.5854450000000 1.0
C      1  0.5288260000000  0.5280060000000  0.5849890000000 1.0
C      1  0.5399950000000  0.4957110000000  0.5856010000000 1.0
C      1  0.5212890000000  0.4672190000000  0.5849180000000 1.0
C      1  0.4873330000000  0.4637570000000  0.5851890000000 1.0
C      1  0.4631890000000  0.4878270000000  0.5859510000000 1.0
C      1  0.4677150000000  0.5216720000000  0.5862410000000 1.0
C      1  0.5507840000000  0.5371260000000  0.5257330000000 1.0
C      1  0.5693780000000  0.4869770000000  0.5276760000000 1.0
C      1  0.5252450000000  0.4430710000000  0.5236570000000 1.0
C      1  0.4705130000000  0.4391600000000  0.5251490000000 1.0
C      1  0.4343410000000  0.4794750000000  0.5239760000000 1.0
C      1  0.4559930000000  0.5354560000000  0.5276100000000 1.0
C      1  0.4988750000000  0.5687830000000  0.5274160000000 1.0
C      1  0.5106300000000  0.4671310000000  0.6173340000000 1.0
C      1  0.4812260000000  0.4719880000000  0.6177440000000 1.0
C      1  0.4668890000000  0.4981560000000  0.6183560000000 1.0
C      1  0.4784120000000  0.5258160000000  0.6181300000000 1.0
C      1  0.5068280000000  0.5347070000000  0.6175740000000 1.0
C      1  0.5310710000000  0.5175410000000  0.6176100000000 1.0
C      1  0.5322340000000  0.4875310000000  0.6174980000000 1.0
C      1  0.4900830000000  0.5898070000000  0.5504980000000 1.0
C      1  0.5661510000000  0.5645100000000  0.5501450000000 1.0
C      1  0.5903000000000  0.4896250000000  0.5523710000000 1.0
C      1  0.5475330000000  0.4228400000000  0.5496980000000 1.0
C      1  0.4703480000000  0.4174040000000  0.5501060000000 1.0
C      1  0.4114110000000  0.4706340000000  0.5543410000000 1.0
C      1  0.4253960000000  0.5481550000000  0.5504930000000 1.0
C      1  0.5156290000000  0.4234540000000  0.4229180000000 1.0
C      1  0.4500520000000  0.4403900000000  0.4188930000000 1.0
C      1  0.4217130000000  0.5021040000000  0.4193710000000 1.0
C      1  0.4529020000000  0.5615070000000  0.4215720000000 1.0
C      1  0.5192510000000  0.5753750000000  0.4233660000000 1.0
C      1  0.5713240000000  0.5318350000000  0.4229580000000 1.0
C      1  0.5703800000000  0.4639560000000  0.4216290000000 1.0
C      1  0.5380260000000  0.4396080000000  0.5740240000000 1.0
C      1  0.4762690000000  0.4331250000000  0.5753330000000 1.0
C      1  0.4321110000000  0.4773370000000  0.5763630000000 1.0
C      1  0.4405300000000  0.5391590000000  0.5755970000000 1.0
C      1  0.4928440000000  0.5721360000000  0.5759990000000 1.0
C      1  0.5519060000000  0.5508100000000  0.5743200000000 1.0
C      1  0.5727160000000  0.4916840000000  0.5771940000000 1.0
C      1  0.4290160000000  0.4515710000000  0.4686460000000 1.0
C      1  0.4172720000000  0.5236060000000  0.4704110000000 1.0
C      1  0.4670770000000  0.5777840000000  0.4712660000000 1.0
C      1  0.5408540000000  0.5740120000000  0.4706310000000 1.0
C      1  0.5855620000000  0.5134230000000  0.4700870000000 1.0
C      1  0.5638120000000  0.4428500000000  0.4710790000000 1.0
C      1  0.4929750000000  0.4139590000000  0.4684320000000 1.0
C      1  0.5643800000000  0.5208490000000  0.5511290000000 1.0
C      1  0.5609450000000  0.4626220000000  0.5502140000000 1.0
C      1  0.5069880000000  0.4333690000000  0.5497290000000 1.0
C      1  0.4514370000000  0.4524720000000  0.5505700000000 1.0
C      1  0.4349300000000  0.5043650000000  0.5470180000000 1.0
C      1  0.4646370000000  0.5590950000000  0.5508310000000 1.0
C      1  0.5262750000000  0.5652290000000  0.5472400000000 1.0
C      1  0.4630550000000  0.5611780000000  0.5841780000000 1.0
C      1  0.5244810000000  0.5674010000000  0.5803830000000 1.0
C      1  0.5682160000000  0.5237380000000  0.5842500000000 1.0
C      1  0.5607870000000  0.4617170000000  0.5834480000000 1.0
C      1  0.5080330000000  0.4297190000000  0.5832580000000 1.0
C      1  0.4497460000000  0.4504570000000  0.5835440000000 1.0
C      1  0.4304620000000  0.5092740000000  0.5804660000000 1.0
C      1  0.6013950000000  0.5398130000000  0.4818560000000 1.0
C      1  0.5954580000000  0.4464710000000  0.4816840000000 1.0
C      1  0.5147950000000  0.3928340000000  0.4814250000000 1.0
C      1  0.4262690000000  0.4213140000000  0.4809520000000 1.0
C      1  0.3920850000000  0.5052380000000  0.4829850000000 1.0
C      1  0.4365860000000  0.5865230000000  0.4824140000000 1.0
C      1  0.5302920000000  0.6041540000000  0.4800290000000 1.0
C      1  0.5219240000000  0.3999560000000  0.4382580000000 1.0
C      1  0.4358490000000  0.4189780000000  0.4314930000000 1.0
C      1  0.3963060000000  0.4992290000000  0.4321570000000 1.0
C      1  0.4344090000000  0.5789810000000  0.4345860000000 1.0
C      1  0.5221060000000  0.6004630000000  0.4369140000000 1.0
C      1  0.5926740000000  0.5447850000000  0.4370980000000 1.0
C      1  0.5944600000000  0.4555690000000  0.4345240000000 1.0
C      1  0.4650000000000  0.4758360000000  0.5103400000000 1.0
C      1  0.4563420000000  0.5098310000000  0.5108040000000 1.0
C      1  0.4859900000000  0.5489170000000  0.5079980000000 1.0
C      1  0.5253620000000  0.5442060000000  0.5107780000000 1.0
C      1  0.5504620000000  0.5023830000000  0.5072760000000 1.0
C      1  0.5368810000000  0.4698920000000  0.5121980000000 1.0
C      1  0.4922780000000  0.4541270000000  0.5077700000000 1.0
C      1  0.5317510000000  0.4782580000000  0.4402140000000 1.0
C      1  0.5034110000000  0.4626720000000  0.4395350000000 1.0
C      1  0.4731720000000  0.4713410000000  0.4373590000000 1.0
C      1  0.4626670000000  0.5028550000000  0.4399200000000 1.0
C      1  0.4805510000000  0.5314410000000  0.4419660000000 1.0
C      1  0.5140650000000  0.5334320000000  0.4431710000000 1.0
C      1  0.5360190000000  0.5096480000000  0.4418250000000 1.0
C      1  0.3877100000000  0.4575410000000  0.4852600000000 1.0
C      1  0.3955170000000  0.5575190000000  0.4861510000000 1.0
C      1  0.4794520000000  0.6178850000000  0.4874630000000 1.0
C      1  0.5795210000000  0.5878120000000  0.4883630000000 1.0
C      1  0.6202630000000  0.4911050000000  0.4865270000000 1.0
C      1  0.5668080000000  0.4034600000000  0.4896230000000 1.0
C      1  0.4621580000000  0.3872110000000  0.4854480000000 1.0
C      1  0.4932310000000  0.4631320000000  0.4042930000000 1.0
C      1  0.4674440000000  0.4838450000000  0.4053710000000 1.0
C      1  0.4681040000000  0.5161680000000  0.4073640000000 1.0
C      1  0.4932790000000  0.5356340000000  0.4092460000000 1.0
C      1  0.5238620000000  0.5282410000000  0.4089080000000 1.0
C      1  0.5379670000000  0.4997360000000  0.4075220000000 1.0
C      1  0.5242940000000  0.4702330000000  0.4066560000000 1.0
C      1  0.4398560000000  0.4164410000000  0.5349870000000 1.0
C      1  0.3986310000000  0.4911930000000  0.5368730000000 1.0
C      1  0.4298790000000  0.5706340000000  0.5350170000000 1.0
C      1  0.5164080000000  0.6037520000000  0.5339740000000 1.0
C      1  0.5865600000000  0.5521660000000  0.5344850000000 1.0
C      1  0.5981180000000  0.4610070000000  0.5356060000000 1.0
C      1  0.5308070000000  0.4052500000000  0.5342570000000 1.0
C      1  0.5016070000000  0.4993330000000  0.5551570000000 1.0
C      1  0.5004520000000  0.5001860000000  0.4663710000000 1.0
C      1  0.4997030000000  0.4988380000000  0.5211200000000 1.0
C      1  0.4996010000000  0.4994920000000  0.4362760000000 1.0
C      1  0.4997490000000  0.4983730000000  0.4943930000000 1.0
END
