TITL C-2782228-2999-564 -0.00180545728090809 125000 -783.617598985759 0 0 135 (C1) n - 1
REM
REM in /home/nfs/bkarasulu/CARBON/AIRSS/Generating-Clusters/REBO/Higher-Symm/SD-CG/HFTN-CG
REM
REM
REM
REM
REM
REM ./C.cell (12c818d87b63d06a65506943cc24bca4)
REM
REM compiler GCC version 9.2.1 20190827 (Red Hat 9.2.1-1)
REM options -cpp -mtune=generic -march=x86-64 -g -O0 -fpre-include=/usr/include/finclude/math-vector-fortran.h
REM seed 1088543799 -886054930 -1924679514 1970682010 823825717 -663215266 1316478928 -1491239879 -1954136853 -1385166901 -196083972 687348016 -526307651 1477639638 1199117635 632717331 89819702 978916304 2054272633 1082504878 -743155299 1831422870 889456547 236646484 -1266547957 -201490241 1083984999 1201038403 -504344536 -993639886 1833689958 1608918367 -1524578176
REM
CELL 1.54180   50.00000   50.00000   50.00000   90.00000   90.00000   90.00000
LATT -1
SFAC C  
C      1  0.5325920000000  0.4852940000000  0.4363580000000 1.0
C      1  0.4665920000000  0.5091300000000  0.4393790000000 1.0
C      1  0.5254690000000  0.4814330000000  0.6033040000000 1.0
C      1  0.4701550000000  0.5153270000000  0.5903350000000 1.0
C      1  0.4382410000000  0.4396080000000  0.4712380000000 1.0
C      1  0.5618740000000  0.5557810000000  0.4748040000000 1.0
C      1  0.4833910000000  0.4078640000000  0.4946320000000 1.0
C      1  0.5207510000000  0.5947000000000  0.4927620000000 1.0
C      1  0.5452940000000  0.4607410000000  0.4081940000000 1.0
C      1  0.4538490000000  0.5395980000000  0.4169700000000 1.0
C      1  0.4470400000000  0.5980840000000  0.5169450000000 1.0
C      1  0.5603840000000  0.4114220000000  0.5213330000000 1.0
C      1  0.4897650000000  0.4466530000000  0.5010610000000 1.0
C      1  0.5121060000000  0.5522960000000  0.4903670000000 1.0
C      1  0.5533890000000  0.4895220000000  0.5162970000000 1.0
C      1  0.4508230000000  0.5143770000000  0.5292010000000 1.0
C      1  0.5849300000000  0.4885900000000  0.5235000000000 1.0
C      1  0.4200920000000  0.5256770000000  0.5314020000000 1.0
C      1  0.4423560000000  0.5111610000000  0.4219330000000 1.0
C      1  0.5587570000000  0.4896880000000  0.4149060000000 1.0
C      1  0.4814540000000  0.5326400000000  0.4106800000000 1.0
C      1  0.5172160000000  0.4698550000000  0.4030360000000 1.0
C      1  0.4723720000000  0.4201280000000  0.4645060000000 1.0
C      1  0.5339030000000  0.5820320000000  0.4640390000000 1.0
C      1  0.4632410000000  0.4698180000000  0.5917240000000 1.0
C      1  0.5322070000000  0.5319730000000  0.5875970000000 1.0
C      1  0.5556330000000  0.4601730000000  0.4409410000000 1.0
C      1  0.4375270000000  0.5450140000000  0.4426490000000 1.0
C      1  0.5143290000000  0.4990820000000  0.3979340000000 1.0
C      1  0.4859360000000  0.5061510000000  0.3999080000000 1.0
C      1  0.4221340000000  0.5551360000000  0.5387860000000 1.0
C      1  0.5753000000000  0.4580310000000  0.5327680000000 1.0
C      1  0.5199580000000  0.4819520000000  0.4958200000000 1.0
C      1  0.4829780000000  0.5101640000000  0.4938360000000 1.0
C      1  0.5670970000000  0.4870390000000  0.5680850000000 1.0
C      1  0.4277450000000  0.5165350000000  0.5694300000000 1.0
C      1  0.3811260000000  0.4950590000000  0.5524810000000 1.0
C      1  0.6042020000000  0.5207570000000  0.5595370000000 1.0
C      1  0.5050250000000  0.5495610000000  0.5982520000000 1.0
C      1  0.4941410000000  0.4572240000000  0.6008310000000 1.0
C      1  0.5510510000000  0.4856290000000  0.4716020000000 1.0
C      1  0.4559930000000  0.5205110000000  0.4868420000000 1.0
C      1  0.5874410000000  0.5001670000000  0.5525580000000 1.0
C      1  0.4033620000000  0.5096940000000  0.5516950000000 1.0
C      1  0.4829040000000  0.5384920000000  0.5344320000000 1.0
C      1  0.5198370000000  0.4581450000000  0.5379850000000 1.0
C      1  0.4085070000000  0.4904640000000  0.4627370000000 1.0
C      1  0.5905900000000  0.5099680000000  0.4616850000000 1.0
C      1  0.5354000000000  0.4444390000000  0.5652900000000 1.0
C      1  0.4678420000000  0.5523540000000  0.5618340000000 1.0
C      1  0.5754020000000  0.4810720000000  0.4843920000000 1.0
C      1  0.4288930000000  0.5191490000000  0.4937100000000 1.0
C      1  0.4547220000000  0.5455390000000  0.5178050000000 1.0
C      1  0.5396840000000  0.4619580000000  0.5122950000000 1.0
C      1  0.5018310000000  0.4215440000000  0.4490250000000 1.0
C      1  0.5019950000000  0.5829330000000  0.4518750000000 1.0
C      1  0.5511280000000  0.5361160000000  0.5296380000000 1.0
C      1  0.4481490000000  0.4606030000000  0.5276410000000 1.0
C      1  0.5238200000000  0.4260160000000  0.4656350000000 1.0
C      1  0.4744570000000  0.5761280000000  0.4625890000000 1.0
C      1  0.5903810000000  0.5399750000000  0.4733870000000 1.0
C      1  0.4108130000000  0.4590030000000  0.4709450000000 1.0
C      1  0.5947390000000  0.4628160000000  0.4714650000000 1.0
C      1  0.4115460000000  0.5330180000000  0.4772600000000 1.0
C      1  0.4782260000000  0.4438980000000  0.5755330000000 1.0
C      1  0.5257780000000  0.5525090000000  0.5644330000000 1.0
C      1  0.4931160000000  0.4406950000000  0.5499340000000 1.0
C      1  0.5089200000000  0.5563250000000  0.5426360000000 1.0
C      1  0.4382520000000  0.5433360000000  0.5621650000000 1.0
C      1  0.5623110000000  0.4604570000000  0.5580960000000 1.0
C      1  0.5478540000000  0.4403600000000  0.4637190000000 1.0
C      1  0.4492300000000  0.5622050000000  0.4634070000000 1.0
C      1  0.5300920000000  0.4103740000000  0.5204060000000 1.0
C      1  0.4744780000000  0.5919780000000  0.5169270000000 1.0
C      1  0.4924060000000  0.5124000000000  0.5205300000000 1.0
C      1  0.5154390000000  0.4907960000000  0.5284400000000 1.0
C      1  0.4137890000000  0.5210980000000  0.4476800000000 1.0
C      1  0.5824570000000  0.4807140000000  0.4452640000000 1.0
C      1  0.4452030000000  0.4890190000000  0.5742040000000 1.0
C      1  0.5419210000000  0.5024850000000  0.5736530000000 1.0
C      1  0.5285030000000  0.5167900000000  0.5466550000000 1.0
C      1  0.4630660000000  0.4715010000000  0.5519300000000 1.0
C      1  0.5256020000000  0.4496410000000  0.5951570000000 1.0
C      1  0.4804100000000  0.5430850000000  0.5882600000000 1.0
C      1  0.4525430000000  0.4193060000000  0.4924340000000 1.0
C      1  0.5511250000000  0.5803070000000  0.4932770000000 1.0
C      1  0.5579830000000  0.4456540000000  0.4892620000000 1.0
C      1  0.4405370000000  0.5572310000000  0.4899680000000 1.0
C      1  0.5137300000000  0.4232960000000  0.4944060000000 1.0
C      1  0.4907180000000  0.5789240000000  0.4900400000000 1.0
C      1  0.4986190000000  0.5372560000000  0.4655760000000 1.0
C      1  0.4936790000000  0.4629090000000  0.4728240000000 1.0
C      1  0.5707910000000  0.4369610000000  0.5145720000000 1.0
C      1  0.4306700000000  0.5731990000000  0.5160710000000 1.0
C      1  0.4643840000000  0.4762810000000  0.4618610000000 1.0
C      1  0.5377480000000  0.5119190000000  0.4654090000000 1.0
C      1  0.5870990000000  0.5081230000000  0.4961060000000 1.0
C      1  0.4199750000000  0.4891800000000  0.4947250000000 1.0
C      1  0.4650680000000  0.5107750000000  0.5568380000000 1.0
C      1  0.5172130000000  0.4794070000000  0.5712010000000 1.0
C      1  0.4210060000000  0.4909560000000  0.4327630000000 1.0
C      1  0.5765270000000  0.5113030000000  0.4314720000000 1.0
C      1  0.4295100000000  0.4570400000000  0.4994210000000 1.0
C      1  0.5725180000000  0.5382060000000  0.5026230000000 1.0
C      1  0.5175030000000  0.5124190000000  0.4409830000000 1.0
C      1  0.4883540000000  0.4854080000000  0.4403290000000 1.0
C      1  0.5469100000000  0.5564830000000  0.4451500000000 1.0
C      1  0.4553630000000  0.4419420000000  0.4441040000000 1.0
C      1  0.5170570000000  0.5635470000000  0.4337620000000 1.0
C      1  0.4854270000000  0.4387370000000  0.4316550000000 1.0
C      1  0.4970070000000  0.4627700000000  0.4226150000000 1.0
C      1  0.5020460000000  0.5378480000000  0.4312420000000 1.0
C      1  0.5071090000000  0.5915810000000  0.5239530000000 1.0
C      1  0.4967440000000  0.4064630000000  0.5261450000000 1.0
C      1  0.4904600000000  0.4799220000000  0.5572370000000 1.0
C      1  0.4986070000000  0.5132740000000  0.5625510000000 1.0
C      1  0.5218550000000  0.4705930000000  0.4642620000000 1.0
C      1  0.4685460000000  0.5274360000000  0.4607700000000 1.0
C      1  0.5518200000000  0.5305510000000  0.4245450000000 1.0
C      1  0.4492140000000  0.4730420000000  0.4315960000000 1.0
C      1  0.4837650000000  0.5770210000000  0.5449870000000 1.0
C      1  0.5185960000000  0.4199180000000  0.5494160000000 1.0
C      1  0.5416240000000  0.5141840000000  0.5094480000000 1.0
C      1  0.4491090000000  0.4895480000000  0.5114010000000 1.0
C      1  0.4767330000000  0.4327380000000  0.5251780000000 1.0
C      1  0.5239770000000  0.5636460000000  0.5173260000000 1.0
C      1  0.5556660000000  0.5681040000000  0.5224180000000 1.0
C      1  0.4455600000000  0.4282830000000  0.5216870000000 1.0
C      1  0.5341430000000  0.5196540000000  0.4054780000000 1.0
C      1  0.4673690000000  0.4844540000000  0.4064200000000 1.0
C      1  0.5091020000000  0.5100620000000  0.5950010000000 1.0
C      1  0.4857970000000  0.4898120000000  0.6061410000000 1.0
C      1  0.5300400000000  0.5255820000000  0.4874020000000 1.0
C      1  0.4689910000000  0.4727850000000  0.4942310000000 1.0
C      1  0.4989480000000  0.5027790000000  0.4678660000000 1.0
END
