TITL C-2782237-5345-1259 -0.00129676474101788 125000 -236.234005090876 0 0 44 (C1) n - 1
REM
REM in /home/nfs/bkarasulu/CARBON/AIRSS/Generating-Clusters/REBO/Higher-Symm/SD-CG/HFTN-CG
REM
REM
REM
REM
REM
REM ./C.cell (12c818d87b63d06a65506943cc24bca4)
REM
REM compiler GCC version 9.2.1 20190827 (Red Hat 9.2.1-1)
REM options -cpp -mtune=generic -march=x86-64 -g -O0 -fpre-include=/usr/include/finclude/math-vector-fortran.h
REM seed 775307029 -1382609044 448853355 612015593 -1316245969 -1328349774 -1132941418 1999629787 -1105878530 98385595 -1350414310 -2031776954 -821085333 1862873175 404510542 -1576413389 -1270235983 826803088 -1777825172 -1173602290 436223665 315727820 -437252545 -1837175518 -1889824807 -224231835 -157319908 -1018207189 -1027534525 -559009860 -2133117770 -1942131017 1298072250
REM
CELL 1.54180   50.00000   50.00000   50.00000   90.00000   90.00000   90.00000
LATT -1
SFAC C  
C      1  0.5414890000000  0.4776620000000  0.4636420000000 1.0
C      1  0.5433340000000  0.5253240000000  0.5346870000000 1.0
C      1  0.4981750000000  0.5488150000000  0.4730670000000 1.0
C      1  0.4566020000000  0.5281040000000  0.5273420000000 1.0
C      1  0.4701150000000  0.4846270000000  0.4621810000000 1.0
C      1  0.4993450000000  0.4711910000000  0.5392160000000 1.0
C      1  0.4679100000000  0.4632280000000  0.5342030000000 1.0
C      1  0.5196270000000  0.4578510000000  0.4592620000000 1.0
C      1  0.5481030000000  0.4971990000000  0.5438290000000 1.0
C      1  0.5233130000000  0.5383070000000  0.4601500000000 1.0
C      1  0.4798220000000  0.5447160000000  0.5370990000000 1.0
C      1  0.4468280000000  0.5071450000000  0.4663640000000 1.0
C      1  0.5339400000000  0.5063760000000  0.5077310000000 1.0
C      1  0.5132420000000  0.5301530000000  0.4977200000000 1.0
C      1  0.4798640000000  0.5253650000000  0.5023120000000 1.0
C      1  0.4733840000000  0.4946820000000  0.4933740000000 1.0
C      1  0.4947230000000  0.4746930000000  0.5070220000000 1.0
C      1  0.5244030000000  0.4781810000000  0.4932160000000 1.0
C      1  0.5547860000000  0.4813380000000  0.5188890000000 1.0
C      1  0.5436250000000  0.5360800000000  0.4828290000000 1.0
C      1  0.4878990000000  0.5579500000000  0.5106430000000 1.0
C      1  0.4419560000000  0.5080660000000  0.4959840000000 1.0
C      1  0.4653050000000  0.4572840000000  0.5048810000000 1.0
C      1  0.5134660000000  0.4461410000000  0.4864380000000 1.0
C      1  0.4748910000000  0.5473120000000  0.4579220000000 1.0
C      1  0.4471150000000  0.5077410000000  0.5439080000000 1.0
C      1  0.4715690000000  0.4549470000000  0.4466780000000 1.0
C      1  0.5229430000000  0.4571070000000  0.5586810000000 1.0
C      1  0.5430470000000  0.4981810000000  0.4446610000000 1.0
C      1  0.5257630000000  0.5408010000000  0.5499860000000 1.0
C      1  0.5024340000000  0.4252210000000  0.4994870000000 1.0
C      1  0.5665910000000  0.4589110000000  0.5095470000000 1.0
C      1  0.5699500000000  0.5353070000000  0.4888020000000 1.0
C      1  0.4979320000000  0.5803250000000  0.4993410000000 1.0
C      1  0.4220240000000  0.5137080000000  0.5133480000000 1.0
C      1  0.4498360000000  0.4453460000000  0.4862310000000 1.0
C      1  0.4989070000000  0.4669600000000  0.4416960000000 1.0
C      1  0.5280520000000  0.4868140000000  0.5615000000000 1.0
C      1  0.5205890000000  0.5154700000000  0.4433670000000 1.0
C      1  0.4992730000000  0.5311920000000  0.5527970000000 1.0
C      1  0.4673450000000  0.5217010000000  0.4486870000000 1.0
C      1  0.4659800000000  0.4883280000000  0.5518350000000 1.0
C      1  0.4972870000000  0.5006110000000  0.5569360000000 1.0
C      1  0.4933860000000  0.5006130000000  0.4425090000000 1.0
END
