TITL C-2782233-7966-709 0.0055479245413193 125000 -732.474527217755 0 0 123 (C1) n - 1
REM
REM in /home/nfs/bkarasulu/CARBON/AIRSS/Generating-Clusters/REBO/Higher-Symm/SD-CG/HFTN-CG
REM
REM
REM
REM
REM
REM ./C.cell (12c818d87b63d06a65506943cc24bca4)
REM
REM compiler GCC version 9.2.1 20190827 (Red Hat 9.2.1-1)
REM options -cpp -mtune=generic -march=x86-64 -g -O0 -fpre-include=/usr/include/finclude/math-vector-fortran.h
REM seed 1749240747 851094613 104208260 1968129168 -1510616452 -1209072491 727268202 893137624 1486948525 1241812105 -2010064851 -1277052504 376536187 302585744 806720601 122095530 783651313 1030843098 -530816643 725200280 1111443915 792408875 -1505871751 -659739803 -1871616989 -1035025238 1724597045 -1958734351 -1623876665 -1179415954 1822988712 -1647722616 1550808265
REM
CELL 1.54180   50.00000   50.00000   50.00000   90.00000   90.00000   90.00000
LATT -1
SFAC C  
C      1  0.5777440000000  0.4472460000000  0.4490670000000 1.0
C      1  0.5372650000000  0.4181180000000  0.5073070000000 1.0
C      1  0.5551050000000  0.4667950000000  0.4373310000000 1.0
C      1  0.4462930000000  0.5222760000000  0.5503020000000 1.0
C      1  0.5721120000000  0.5382150000000  0.4788840000000 1.0
C      1  0.4143090000000  0.5131710000000  0.5103200000000 1.0
C      1  0.5106520000000  0.5593920000000  0.5829220000000 1.0
C      1  0.5497870000000  0.5579320000000  0.5578560000000 1.0
C      1  0.5051070000000  0.5222610000000  0.4186920000000 1.0
C      1  0.4633470000000  0.4582960000000  0.4275670000000 1.0
C      1  0.5801730000000  0.4394890000000  0.5141180000000 1.0
C      1  0.5300850000000  0.4820910000000  0.4797050000000 1.0
C      1  0.4850230000000  0.5876830000000  0.4435650000000 1.0
C      1  0.5549530000000  0.5026410000000  0.4848480000000 1.0
C      1  0.5029600000000  0.4872230000000  0.4956250000000 1.0
C      1  0.5062570000000  0.4276740000000  0.4364770000000 1.0
C      1  0.4895980000000  0.4530780000000  0.5749380000000 1.0
C      1  0.5406890000000  0.5450000000000  0.5269680000000 1.0
C      1  0.5264220000000  0.5758160000000  0.4660730000000 1.0
C      1  0.4142120000000  0.5529920000000  0.4398940000000 1.0
C      1  0.4627320000000  0.4507500000000  0.5592080000000 1.0
C      1  0.4198340000000  0.5675640000000  0.5231090000000 1.0
C      1  0.5266450000000  0.4293760000000  0.5547320000000 1.0
C      1  0.4727200000000  0.5932530000000  0.5283190000000 1.0
C      1  0.5738800000000  0.4238420000000  0.4620430000000 1.0
C      1  0.5105710000000  0.5836980000000  0.5653930000000 1.0
C      1  0.4885200000000  0.5473390000000  0.5422860000000 1.0
C      1  0.4426270000000  0.4698810000000  0.5542350000000 1.0
C      1  0.4270550000000  0.4674430000000  0.5253400000000 1.0
C      1  0.5199550000000  0.4436770000000  0.4172730000000 1.0
C      1  0.5306020000000  0.5086780000000  0.5402880000000 1.0
C      1  0.4638520000000  0.5438930000000  0.4272380000000 1.0
C      1  0.4266530000000  0.4969740000000  0.4503380000000 1.0
C      1  0.4541720000000  0.4833670000000  0.5121240000000 1.0
C      1  0.4772230000000  0.5244690000000  0.4113460000000 1.0
C      1  0.5261020000000  0.5469560000000  0.4547740000000 1.0
C      1  0.4592630000000  0.5523820000000  0.4727170000000 1.0
C      1  0.5013550000000  0.5890850000000  0.4666290000000 1.0
C      1  0.4908390000000  0.5906760000000  0.4928130000000 1.0
C      1  0.5188640000000  0.4142270000000  0.4585480000000 1.0
C      1  0.4410380000000  0.4563150000000  0.4735390000000 1.0
C      1  0.5741910000000  0.4236410000000  0.4932730000000 1.0
C      1  0.5587520000000  0.5708000000000  0.5119440000000 1.0
C      1  0.5802780000000  0.5491140000000  0.5236710000000 1.0
C      1  0.5107480000000  0.5537630000000  0.5191110000000 1.0
C      1  0.4444550000000  0.4848930000000  0.4291420000000 1.0
C      1  0.5450580000000  0.4311970000000  0.5310860000000 1.0
C      1  0.4198650000000  0.5242900000000  0.4518800000000 1.0
C      1  0.5520240000000  0.5169240000000  0.4272680000000 1.0
C      1  0.4156130000000  0.5191240000000  0.5376400000000 1.0
C      1  0.5753970000000  0.4941250000000  0.4367610000000 1.0
C      1  0.5844230000000  0.5297480000000  0.5034790000000 1.0
C      1  0.4084780000000  0.4462410000000  0.5277840000000 1.0
C      1  0.5513500000000  0.4654350000000  0.5828010000000 1.0
C      1  0.5889580000000  0.4699320000000  0.5490380000000 1.0
C      1  0.4998610000000  0.4385700000000  0.5242050000000 1.0
C      1  0.4355180000000  0.4239630000000  0.4652810000000 1.0
C      1  0.4762670000000  0.4675010000000  0.4945970000000 1.0
C      1  0.4158860000000  0.4869360000000  0.5014190000000 1.0
C      1  0.4392120000000  0.4228940000000  0.5177250000000 1.0
C      1  0.4864020000000  0.4874460000000  0.5509170000000 1.0
C      1  0.4489750000000  0.5065870000000  0.4909420000000 1.0
C      1  0.4298310000000  0.5726770000000  0.4978310000000 1.0
C      1  0.4940240000000  0.4681560000000  0.4413450000000 1.0
C      1  0.4671220000000  0.5034760000000  0.5325340000000 1.0
C      1  0.5010280000000  0.4063800000000  0.4805930000000 1.0
C      1  0.4884490000000  0.5800060000000  0.5459440000000 1.0
C      1  0.5829200000000  0.4839150000000  0.4857590000000 1.0
C      1  0.4639680000000  0.4245210000000  0.5413910000000 1.0
C      1  0.5663390000000  0.5128510000000  0.5575670000000 1.0
C      1  0.5658100000000  0.5172570000000  0.4576450000000 1.0
C      1  0.5463970000000  0.5139840000000  0.5144540000000 1.0
C      1  0.5732540000000  0.5402920000000  0.5494650000000 1.0
C      1  0.4686590000000  0.4188220000000  0.5099320000000 1.0
C      1  0.5551240000000  0.4614800000000  0.5295110000000 1.0
C      1  0.5098360000000  0.5044670000000  0.4441890000000 1.0
C      1  0.4193420000000  0.5517120000000  0.4731910000000 1.0
C      1  0.5396470000000  0.5148560000000  0.5785630000000 1.0
C      1  0.4665660000000  0.4974130000000  0.4107480000000 1.0
C      1  0.5252830000000  0.4752500000000  0.4504510000000 1.0
C      1  0.4266410000000  0.4332050000000  0.4946660000000 1.0
C      1  0.4655720000000  0.4262320000000  0.4639020000000 1.0
C      1  0.4538520000000  0.5223480000000  0.5817420000000 1.0
C      1  0.5874570000000  0.4740670000000  0.4594130000000 1.0
C      1  0.5172560000000  0.4818460000000  0.5471990000000 1.0
C      1  0.5093110000000  0.4709280000000  0.5848200000000 1.0
C      1  0.4770920000000  0.4323300000000  0.4385900000000 1.0
C      1  0.4934200000000  0.5126030000000  0.4664220000000 1.0
C      1  0.5794420000000  0.4935730000000  0.5391900000000 1.0
C      1  0.5366570000000  0.5855460000000  0.5525990000000 1.0
C      1  0.4321530000000  0.5329780000000  0.4947500000000 1.0
C      1  0.4709710000000  0.5714140000000  0.4267800000000 1.0
C      1  0.4757950000000  0.4359970000000  0.4891060000000 1.0
C      1  0.5502720000000  0.5593240000000  0.4839090000000 1.0
C      1  0.4951730000000  0.4283590000000  0.5546010000000 1.0
C      1  0.5000830000000  0.5196080000000  0.4973420000000 1.0
C      1  0.5100550000000  0.5849570000000  0.5126510000000 1.0
C      1  0.5355310000000  0.5444030000000  0.5807600000000 1.0
C      1  0.5185290000000  0.4712770000000  0.4092260000000 1.0
C      1  0.5206860000000  0.5431020000000  0.4883000000000 1.0
C      1  0.5458200000000  0.4143680000000  0.4759100000000 1.0
C      1  0.4257080000000  0.5483880000000  0.5425510000000 1.0
C      1  0.4866980000000  0.5169960000000  0.5899180000000 1.0
C      1  0.4232000000000  0.4810020000000  0.4744420000000 1.0
C      1  0.5416810000000  0.4876620000000  0.4163120000000 1.0
C      1  0.5385070000000  0.4598190000000  0.5587420000000 1.0
C      1  0.4688490000000  0.4733380000000  0.4636230000000 1.0
C      1  0.4439400000000  0.4909000000000  0.5747990000000 1.0
C      1  0.5850480000000  0.5017130000000  0.5110400000000 1.0
C      1  0.5380770000000  0.4805040000000  0.5130500000000 1.0
C      1  0.4633950000000  0.5047210000000  0.4639560000000 1.0
C      1  0.5293550000000  0.5359340000000  0.4294380000000 1.0
C      1  0.4586230000000  0.5340070000000  0.4528930000000 1.0
C      1  0.5084270000000  0.4180330000000  0.5058060000000 1.0
C      1  0.5153890000000  0.4991230000000  0.5861540000000 1.0
C      1  0.4904650000000  0.4813650000000  0.4106810000000 1.0
C      1  0.5071940000000  0.4671440000000  0.5205770000000 1.0
C      1  0.4612800000000  0.5807110000000  0.5004400000000 1.0
C      1  0.4751700000000  0.4900850000000  0.5772020000000 1.0
C      1  0.4795260000000  0.5287810000000  0.5182100000000 1.0
C      1  0.5367610000000  0.5898380000000  0.5244480000000 1.0
C      1  0.4594990000000  0.5469800000000  0.5047680000000 1.0
C      1  0.4895280000000  0.5426200000000  0.5732400000000 1.0
END
