TITL C-2782232-2968-1362 -0.00338944853578796 125000 -562.150015607763 0 0 98 (C1) n - 1
REM
REM in /home/nfs/bkarasulu/CARBON/AIRSS/Generating-Clusters/REBO/Higher-Symm/SD-CG/HFTN-CG
REM
REM
REM
REM
REM
REM ./C.cell (12c818d87b63d06a65506943cc24bca4)
REM
REM compiler GCC version 9.2.1 20190827 (Red Hat 9.2.1-1)
REM options -cpp -mtune=generic -march=x86-64 -g -O0 -fpre-include=/usr/include/finclude/math-vector-fortran.h
REM seed 45869799 705303986 1867916012 -1057369088 -1295064614 1915219335 1719399622 -1194003060 -1188181701 1465202510 1044245845 61377199 -463571460 1992750759 1937631200 1858620220 9689049 1337388450 -1930630972 -786419619 104192750 1068518613 259887425 -2083830418 959675769 -1338615953 -994848845 1252894739 1437393526 1619141190 32499784 563270074 2024306818
REM
CELL 1.54180   50.00000   50.00000   50.00000   90.00000   90.00000   90.00000
LATT -1
SFAC C  
C      1  0.4886230000000  0.4413480000000  0.5536710000000 1.0
C      1  0.5120250000000  0.4436580000000  0.4524070000000 1.0
C      1  0.4889910000000  0.5556430000000  0.5487410000000 1.0
C      1  0.5105260000000  0.5579360000000  0.4467090000000 1.0
C      1  0.5683540000000  0.5580350000000  0.4984190000000 1.0
C      1  0.4313360000000  0.5553650000000  0.4995630000000 1.0
C      1  0.5690330000000  0.4419300000000  0.4998850000000 1.0
C      1  0.4289420000000  0.4444900000000  0.4986360000000 1.0
C      1  0.4872070000000  0.5681990000000  0.5222710000000 1.0
C      1  0.5179960000000  0.5631960000000  0.4765480000000 1.0
C      1  0.4825370000000  0.4350520000000  0.5236110000000 1.0
C      1  0.5133630000000  0.4309810000000  0.4787890000000 1.0
C      1  0.4755780000000  0.4114400000000  0.5083050000000 1.0
C      1  0.5190180000000  0.4072080000000  0.4942940000000 1.0
C      1  0.4776040000000  0.5914140000000  0.5079450000000 1.0
C      1  0.5220520000000  0.5880480000000  0.4910890000000 1.0
C      1  0.5212470000000  0.4447190000000  0.5628170000000 1.0
C      1  0.4807110000000  0.4480490000000  0.4393760000000 1.0
C      1  0.5207800000000  0.5530640000000  0.5611120000000 1.0
C      1  0.4774710000000  0.5560720000000  0.4386760000000 1.0
C      1  0.4880080000000  0.5178160000000  0.4428470000000 1.0
C      1  0.5093770000000  0.5147820000000  0.5619640000000 1.0
C      1  0.4920420000000  0.4863590000000  0.4392620000000 1.0
C      1  0.5113770000000  0.4831140000000  0.5581600000000 1.0
C      1  0.5120990000000  0.5153240000000  0.4200970000000 1.0
C      1  0.4856080000000  0.5192370000000  0.5851580000000 1.0
C      1  0.5194950000000  0.4834290000000  0.4193220000000 1.0
C      1  0.4850650000000  0.4865600000000  0.5795070000000 1.0
C      1  0.4394560000000  0.5153300000000  0.4292060000000 1.0
C      1  0.5605530000000  0.5143860000000  0.5672380000000 1.0
C      1  0.4406600000000  0.4856320000000  0.4289720000000 1.0
C      1  0.5606880000000  0.4847370000000  0.5678710000000 1.0
C      1  0.4416100000000  0.5458420000000  0.5252240000000 1.0
C      1  0.5581170000000  0.5458200000000  0.4738710000000 1.0
C      1  0.4404190000000  0.4546440000000  0.5238800000000 1.0
C      1  0.5609880000000  0.4541950000000  0.4749140000000 1.0
C      1  0.5748740000000  0.5231660000000  0.5432760000000 1.0
C      1  0.4233840000000  0.5235730000000  0.4524290000000 1.0
C      1  0.5747550000000  0.4756100000000  0.5438700000000 1.0
C      1  0.4236360000000  0.4757860000000  0.4510490000000 1.0
C      1  0.5261870000000  0.5850490000000  0.5194470000000 1.0
C      1  0.4683830000000  0.5856780000000  0.4812780000000 1.0
C      1  0.5268180000000  0.4124570000000  0.5215760000000 1.0
C      1  0.4705730000000  0.4160580000000  0.4803710000000 1.0
C      1  0.5125410000000  0.5273220000000  0.5304470000000 1.0
C      1  0.4863830000000  0.5270540000000  0.4739670000000 1.0
C      1  0.5135820000000  0.4722810000000  0.5272140000000 1.0
C      1  0.4889340000000  0.4722180000000  0.4701220000000 1.0
C      1  0.4962020000000  0.4560710000000  0.5829040000000 1.0
C      1  0.5078420000000  0.4545470000000  0.4210360000000 1.0
C      1  0.4943060000000  0.5485360000000  0.5807700000000 1.0
C      1  0.5015550000000  0.5451710000000  0.4172380000000 1.0
C      1  0.4648720000000  0.4623170000000  0.5466420000000 1.0
C      1  0.5380950000000  0.4635930000000  0.4512810000000 1.0
C      1  0.4631990000000  0.5352970000000  0.5500350000000 1.0
C      1  0.5336120000000  0.5356490000000  0.4522260000000 1.0
C      1  0.4299850000000  0.4868330000000  0.5287020000000 1.0
C      1  0.5741700000000  0.4848830000000  0.4702280000000 1.0
C      1  0.4288500000000  0.5168850000000  0.5344060000000 1.0
C      1  0.5708240000000  0.5147040000000  0.4700190000000 1.0
C      1  0.5208200000000  0.5521390000000  0.5085950000000 1.0
C      1  0.4821810000000  0.5551510000000  0.4917800000000 1.0
C      1  0.5183820000000  0.4442030000000  0.5093970000000 1.0
C      1  0.4799440000000  0.4477470000000  0.4921490000000 1.0
C      1  0.4583720000000  0.4792650000000  0.5114330000000 1.0
C      1  0.5444920000000  0.4804180000000  0.4866350000000 1.0
C      1  0.4570140000000  0.5189590000000  0.5145550000000 1.0
C      1  0.5423140000000  0.5203310000000  0.4878070000000 1.0
C      1  0.5439430000000  0.5140440000000  0.4278180000000 1.0
C      1  0.4556420000000  0.5132530000000  0.5750880000000 1.0
C      1  0.5505130000000  0.4817430000000  0.4265990000000 1.0
C      1  0.4535950000000  0.4806010000000  0.5719350000000 1.0
C      1  0.4406690000000  0.5381290000000  0.4732450000000 1.0
C      1  0.5592460000000  0.5438140000000  0.5253550000000 1.0
C      1  0.4391550000000  0.4593580000000  0.4717420000000 1.0
C      1  0.5578110000000  0.4563230000000  0.5258490000000 1.0
C      1  0.5365200000000  0.4717050000000  0.5739340000000 1.0
C      1  0.4658130000000  0.4735190000000  0.4251000000000 1.0
C      1  0.5367020000000  0.5275210000000  0.5733570000000 1.0
C      1  0.4635160000000  0.5291790000000  0.4258710000000 1.0
C      1  0.4836560000000  0.5149970000000  0.5314810000000 1.0
C      1  0.5157610000000  0.5150130000000  0.4714450000000 1.0
C      1  0.4842230000000  0.4839710000000  0.5288980000000 1.0
C      1  0.5178320000000  0.4841450000000  0.4696000000000 1.0
C      1  0.5378760000000  0.5625840000000  0.5388070000000 1.0
C      1  0.4611730000000  0.5604770000000  0.4629110000000 1.0
C      1  0.5373670000000  0.4368950000000  0.5393360000000 1.0
C      1  0.4624790000000  0.4403790000000  0.4613560000000 1.0
C      1  0.5699320000000  0.5237930000000  0.4410940000000 1.0
C      1  0.4285840000000  0.5205910000000  0.5634050000000 1.0
C      1  0.5752530000000  0.4749470000000  0.4418310000000 1.0
C      1  0.4282000000000  0.4742820000000  0.5565330000000 1.0
C      1  0.4606310000000  0.4816550000000  0.4812990000000 1.0
C      1  0.5414230000000  0.4847790000000  0.5165730000000 1.0
C      1  0.4595050000000  0.5137150000000  0.4852200000000 1.0
C      1  0.5407140000000  0.5166990000000  0.5182480000000 1.0
C      1  0.5868530000000  0.4992340000000  0.5318890000000 1.0
C      1  0.4093780000000  0.4993610000000  0.4609400000000 1.0
END
