TITL C-2782227-3064-226 -0.00431908126439883 125000 -900.144890873741 0 0 152 (C1) n - 1
REM
REM in /home/nfs/bkarasulu/CARBON/AIRSS/Generating-Clusters/REBO/Higher-Symm/SD-CG/HFTN-CG
REM
REM
REM
REM
REM
REM ./C.cell (12c818d87b63d06a65506943cc24bca4)
REM
REM compiler GCC version 9.2.1 20190827 (Red Hat 9.2.1-1)
REM options -cpp -mtune=generic -march=x86-64 -g -O0 -fpre-include=/usr/include/finclude/math-vector-fortran.h
REM seed -905574719 -2029889299 1030523495 -683636678 1596588354 -424446779 1759372978 362677286 -736780533 -403864027 -1719718216 -888655395 1344622036 -1787171793 -865896643 806215905 1159768648 2121712373 2018769908 -705208301 658205729 348336252 1116108486 -2141356219 435901035 -191877745 511861264 1577846979 -1399732349 1615776152 -129350736 1616024614 1519663432
REM
CELL 1.54180   50.00000   50.00000   50.00000   90.00000   90.00000   90.00000
LATT -1
SFAC C  
C      1  0.4733800000000  0.4733830000000  0.4894010000000 1.0
C      1  0.4672050000000  0.4601890000000  0.5347890000000 1.0
C      1  0.5149700000000  0.4690210000000  0.5262220000000 1.0
C      1  0.5365370000000  0.4709240000000  0.4926550000000 1.0
C      1  0.5052850000000  0.4711660000000  0.4654350000000 1.0
C      1  0.4639270000000  0.5455750000000  0.4807840000000 1.0
C      1  0.4609870000000  0.5333870000000  0.5187130000000 1.0
C      1  0.5157740000000  0.5375350000000  0.5239790000000 1.0
C      1  0.5393710000000  0.5419340000000  0.4921280000000 1.0
C      1  0.5017210000000  0.5400350000000  0.4658810000000 1.0
C      1  0.4343410000000  0.4830150000000  0.4516580000000 1.0
C      1  0.4269240000000  0.4807110000000  0.5594250000000 1.0
C      1  0.5262940000000  0.4806360000000  0.5770640000000 1.0
C      1  0.5875660000000  0.4816240000000  0.4966120000000 1.0
C      1  0.5245350000000  0.4810380000000  0.4171750000000 1.0
C      1  0.4304050000000  0.5138460000000  0.4604010000000 1.0
C      1  0.4381080000000  0.5115130000000  0.5625050000000 1.0
C      1  0.5340070000000  0.5130820000000  0.5713990000000 1.0
C      1  0.5870310000000  0.5132630000000  0.4874080000000 1.0
C      1  0.5147190000000  0.5124400000000  0.4152150000000 1.0
C      1  0.4088760000000  0.5137230000000  0.5463500000000 1.0
C      1  0.5135450000000  0.5115480000000  0.5985460000000 1.0
C      1  0.6008840000000  0.5125890000000  0.5175980000000 1.0
C      1  0.5487200000000  0.5124990000000  0.4129730000000 1.0
C      1  0.4345200000000  0.5138600000000  0.4264390000000 1.0
C      1  0.4024300000000  0.4815970000000  0.5365480000000 1.0
C      1  0.5028850000000  0.4791110000000  0.6011650000000 1.0
C      1  0.5963850000000  0.4807100000000  0.5294530000000 1.0
C      1  0.5582420000000  0.4798270000000  0.4171900000000 1.0
C      1  0.4414600000000  0.4808690000000  0.4194430000000 1.0
C      1  0.4932480000000  0.4166090000000  0.5533130000000 1.0
C      1  0.5452420000000  0.4171120000000  0.5235170000000 1.0
C      1  0.5366580000000  0.4184450000000  0.4655310000000 1.0
C      1  0.4769490000000  0.4228680000000  0.4583760000000 1.0
C      1  0.4495690000000  0.4194950000000  0.5095750000000 1.0
C      1  0.4918380000000  0.5706520000000  0.5537000000000 1.0
C      1  0.5530830000000  0.5799810000000  0.5221300000000 1.0
C      1  0.5349450000000  0.5794710000000  0.4547710000000 1.0
C      1  0.4677410000000  0.5832340000000  0.4498450000000 1.0
C      1  0.4419210000000  0.5810150000000  0.5150180000000 1.0
C      1  0.4336760000000  0.4417660000000  0.5539850000000 1.0
C      1  0.5292400000000  0.4408350000000  0.5779820000000 1.0
C      1  0.5813140000000  0.4423150000000  0.4954370000000 1.0
C      1  0.5220740000000  0.4412490000000  0.4162820000000 1.0
C      1  0.4316570000000  0.4437310000000  0.4552210000000 1.0
C      1  0.4391710000000  0.5554550000000  0.5607650000000 1.0
C      1  0.5356330000000  0.5564650000000  0.5770270000000 1.0
C      1  0.5788110000000  0.5521720000000  0.4897460000000 1.0
C      1  0.5130670000000  0.5522170000000  0.4160740000000 1.0
C      1  0.4232580000000  0.5580330000000  0.4576440000000 1.0
C      1  0.4544540000000  0.5133300000000  0.4005400000000 1.0
C      1  0.4059830000000  0.5147220000000  0.5145880000000 1.0
C      1  0.4812010000000  0.5124300000000  0.6007740000000 1.0
C      1  0.5890230000000  0.5155860000000  0.5474180000000 1.0
C      1  0.5783640000000  0.5131350000000  0.4254320000000 1.0
C      1  0.4640890000000  0.4832890000000  0.3951910000000 1.0
C      1  0.3990420000000  0.4834730000000  0.5029840000000 1.0
C      1  0.4694000000000  0.4811990000000  0.6072700000000 1.0
C      1  0.5884490000000  0.4850040000000  0.5620440000000 1.0
C      1  0.5878700000000  0.4838070000000  0.4322380000000 1.0
C      1  0.5115560000000  0.5929120000000  0.4760800000000 1.0
C      1  0.4787920000000  0.5958980000000  0.4800680000000 1.0
C      1  0.4741820000000  0.5928960000000  0.5130930000000 1.0
C      1  0.5020470000000  0.5894360000000  0.5270240000000 1.0
C      1  0.5264820000000  0.5930370000000  0.5045710000000 1.0
C      1  0.5176780000000  0.4013860000000  0.4834590000000 1.0
C      1  0.4889590000000  0.4030500000000  0.4785640000000 1.0
C      1  0.4753390000000  0.4025580000000  0.5042260000000 1.0
C      1  0.4953010000000  0.4009360000000  0.5251740000000 1.0
C      1  0.5213200000000  0.4002860000000  0.5124320000000 1.0
C      1  0.4605050000000  0.5212070000000  0.4710040000000 1.0
C      1  0.4633530000000  0.5125510000000  0.5397780000000 1.0
C      1  0.5186100000000  0.5173410000000  0.5419950000000 1.0
C      1  0.5552270000000  0.5203570000000  0.4950250000000 1.0
C      1  0.5104050000000  0.5208340000000  0.4479900000000 1.0
C      1  0.4613840000000  0.4906550000000  0.4701780000000 1.0
C      1  0.4531860000000  0.4824330000000  0.5397810000000 1.0
C      1  0.5156470000000  0.4877190000000  0.5467970000000 1.0
C      1  0.5559930000000  0.4903280000000  0.4975790000000 1.0
C      1  0.5154810000000  0.4903500000000  0.4481380000000 1.0
C      1  0.5133240000000  0.5423510000000  0.5890020000000 1.0
C      1  0.5824540000000  0.5403620000000  0.5163320000000 1.0
C      1  0.5399320000000  0.5426900000000  0.4199590000000 1.0
C      1  0.4366870000000  0.5447100000000  0.4362030000000 1.0
C      1  0.4199230000000  0.5443080000000  0.5424870000000 1.0
C      1  0.5058320000000  0.4492720000000  0.5910310000000 1.0
C      1  0.5848390000000  0.4512970000000  0.5222510000000 1.0
C      1  0.5490260000000  0.4501830000000  0.4239990000000 1.0
C      1  0.4438150000000  0.4506360000000  0.4303850000000 1.0
C      1  0.4166500000000  0.4523720000000  0.5334590000000 1.0
C      1  0.4521090000000  0.4328980000000  0.4725890000000 1.0
C      1  0.4443330000000  0.4166070000000  0.5417280000000 1.0
C      1  0.5216420000000  0.4278460000000  0.5538220000000 1.0
C      1  0.5608080000000  0.4209590000000  0.4966080000000 1.0
C      1  0.5195910000000  0.4311190000000  0.4432310000000 1.0
C      1  0.4356810000000  0.5849170000000  0.4605040000000 1.0
C      1  0.4530230000000  0.5768360000000  0.5464320000000 1.0
C      1  0.5232170000000  0.5775870000000  0.5616620000000 1.0
C      1  0.5725490000000  0.5819390000000  0.4943010000000 1.0
C      1  0.5123020000000  0.5771590000000  0.4306150000000 1.0
C      1  0.5430100000000  0.4452510000000  0.4846580000000 1.0
C      1  0.4986060000000  0.4455840000000  0.4563540000000 1.0
C      1  0.4605600000000  0.4494080000000  0.4963810000000 1.0
C      1  0.4703210000000  0.4332670000000  0.5405980000000 1.0
C      1  0.5277960000000  0.4447760000000  0.5299910000000 1.0
C      1  0.5435780000000  0.5710470000000  0.4845780000000 1.0
C      1  0.4965530000000  0.5689560000000  0.4571830000000 1.0
C      1  0.4531650000000  0.5741280000000  0.4856020000000 1.0
C      1  0.4743470000000  0.5607520000000  0.5261040000000 1.0
C      1  0.5249040000000  0.5648310000000  0.5320840000000 1.0
C      1  0.5526430000000  0.5553330000000  0.4425910000000 1.0
C      1  0.4627120000000  0.5562210000000  0.4313350000000 1.0
C      1  0.4203120000000  0.5575520000000  0.5161530000000 1.0
C      1  0.4880300000000  0.5524830000000  0.5788160000000 1.0
C      1  0.5667400000000  0.5536490000000  0.5366500000000 1.0
C      1  0.5584320000000  0.4387080000000  0.4487510000000 1.0
C      1  0.4704620000000  0.4388630000000  0.4290250000000 1.0
C      1  0.4235790000000  0.4414260000000  0.5075770000000 1.0
C      1  0.4824470000000  0.4374480000000  0.5781460000000 1.0
C      1  0.5658570000000  0.4384440000000  0.5402010000000 1.0
C      1  0.4044260000000  0.5158000000000  0.4805590000000 1.0
C      1  0.4480410000000  0.5121700000000  0.5939040000000 1.0
C      1  0.5663260000000  0.5164970000000  0.5717860000000 1.0
C      1  0.5943380000000  0.5156230000000  0.4552070000000 1.0
C      1  0.4880600000000  0.5148180000000  0.3951270000000 1.0
C      1  0.4049350000000  0.4843340000000  0.4691020000000 1.0
C      1  0.4392040000000  0.4794480000000  0.5912060000000 1.0
C      1  0.5601350000000  0.4839770000000  0.5795900000000 1.0
C      1  0.5975500000000  0.4827620000000  0.4639790000000 1.0
C      1  0.4978210000000  0.4821730000000  0.3956870000000 1.0
C      1  0.4172290000000  0.5453790000000  0.4847630000000 1.0
C      1  0.4582870000000  0.5411870000000  0.5800250000000 1.0
C      1  0.5580830000000  0.5455720000000  0.5627250000000 1.0
C      1  0.5689540000000  0.5376780000000  0.4617160000000 1.0
C      1  0.4839370000000  0.5369830000000  0.4207410000000 1.0
C      1  0.4244990000000  0.4602700000000  0.4830250000000 1.0
C      1  0.4550240000000  0.4555720000000  0.5725970000000 1.0
C      1  0.5540250000000  0.4539520000000  0.5662800000000 1.0
C      1  0.5777290000000  0.4557670000000  0.4679170000000 1.0
C      1  0.4943620000000  0.4549680000000  0.4144750000000 1.0
C      1  0.5615500000000  0.4991580000000  0.5361410000000 1.0
C      1  0.5556750000000  0.5064880000000  0.4576810000000 1.0
C      1  0.4772800000000  0.5055230000000  0.4323160000000 1.0
C      1  0.4366150000000  0.5237660000000  0.5027370000000 1.0
C      1  0.4774950000000  0.5158770000000  0.5672430000000 1.0
C      1  0.5534830000000  0.4762830000000  0.5409900000000 1.0
C      1  0.5579810000000  0.4819220000000  0.4586130000000 1.0
C      1  0.4803730000000  0.4809860000000  0.4315600000000 1.0
C      1  0.4319360000000  0.4908320000000  0.4967520000000 1.0
C      1  0.4743800000000  0.4838720000000  0.5736440000000 1.0
C      1  0.5042300000000  0.4764350000000  0.4973180000000 1.0
C      1  0.5094520000000  0.5361870000000  0.4936750000000 1.0
END
