TITL C-2782236-320-547 0.00128854247329862 125000 -459.43409074497 0 0 79 (C1) n - 1
REM
REM in /home/nfs/bkarasulu/CARBON/AIRSS/Generating-Clusters/REBO/Higher-Symm/SD-CG/HFTN-CG
REM
REM
REM
REM
REM
REM ./C.cell (12c818d87b63d06a65506943cc24bca4)
REM
REM compiler GCC version 9.2.1 20190827 (Red Hat 9.2.1-1)
REM options -cpp -mtune=generic -march=x86-64 -g -O0 -fpre-include=/usr/include/finclude/math-vector-fortran.h
REM seed -799866459 659645991 -1726092142 692765694 -1120819892 -1816796053 969283646 -1629992055 1682732397 130118490 -1095244901 1461664455 -2146510887 289431996 -817086898 -1827509183 1860148820 -1657267288 -447539865 -271872420 -857607859 -1459850630 -1391313536 1204502050 -1873926409 119737036 -1812136338 -156310168 273503941 -1047487220 -1054663788 -1501197233 -490996908
REM
CELL 1.54180   50.00000   50.00000   50.00000   90.00000   90.00000   90.00000
LATT -1
SFAC C  
C      1  0.5360110000000  0.4365550000000  0.5413000000000 1.0
C      1  0.4520380000000  0.4450000000000  0.5398650000000 1.0
C      1  0.4357280000000  0.5181120000000  0.5404570000000 1.0
C      1  0.5002800000000  0.5697250000000  0.5445730000000 1.0
C      1  0.5691090000000  0.5102800000000  0.5358150000000 1.0
C      1  0.5397830000000  0.4397300000000  0.4432300000000 1.0
C      1  0.4567940000000  0.4417350000000  0.4517410000000 1.0
C      1  0.4325530000000  0.5248510000000  0.4682430000000 1.0
C      1  0.5072310000000  0.5726960000000  0.4551570000000 1.0
C      1  0.5741720000000  0.5177060000000  0.4469200000000 1.0
C      1  0.5261400000000  0.5728700000000  0.4827140000000 1.0
C      1  0.5835330000000  0.4985260000000  0.4721460000000 1.0
C      1  0.5328240000000  0.4300450000000  0.4750830000000 1.0
C      1  0.4396370000000  0.4445120000000  0.4801190000000 1.0
C      1  0.4380160000000  0.5477650000000  0.4845730000000 1.0
C      1  0.5172500000000  0.5725400000000  0.5155630000000 1.0
C      1  0.5773430000000  0.4989890000000  0.5051090000000 1.0
C      1  0.5277570000000  0.4308690000000  0.5087090000000 1.0
C      1  0.4340130000000  0.4514140000000  0.5126020000000 1.0
C      1  0.4309260000000  0.5410870000000  0.5167090000000 1.0
C      1  0.4557730000000  0.4866260000000  0.4830910000000 1.0
C      1  0.4777230000000  0.5332030000000  0.4780110000000 1.0
C      1  0.5284260000000  0.5268570000000  0.4739200000000 1.0
C      1  0.5367550000000  0.4863190000000  0.4747690000000 1.0
C      1  0.5028960000000  0.4659170000000  0.4800150000000 1.0
C      1  0.4554640000000  0.4886620000000  0.5167110000000 1.0
C      1  0.4781630000000  0.5366330000000  0.5119320000000 1.0
C      1  0.5220570000000  0.5260090000000  0.5235100000000 1.0
C      1  0.5447090000000  0.4883550000000  0.5255740000000 1.0
C      1  0.5003470000000  0.4644310000000  0.5189220000000 1.0
C      1  0.4789510000000  0.5322720000000  0.4463720000000 1.0
C      1  0.5286160000000  0.5315670000000  0.4464630000000 1.0
C      1  0.5389980000000  0.4867530000000  0.4471050000000 1.0
C      1  0.4981670000000  0.4647020000000  0.4520810000000 1.0
C      1  0.4570940000000  0.4884550000000  0.4534370000000 1.0
C      1  0.4790410000000  0.5438800000000  0.5401730000000 1.0
C      1  0.5263080000000  0.5275160000000  0.5504970000000 1.0
C      1  0.5380710000000  0.4805140000000  0.5576260000000 1.0
C      1  0.4961730000000  0.4614670000000  0.5466940000000 1.0
C      1  0.4571520000000  0.4926360000000  0.5476460000000 1.0
C      1  0.4172010000000  0.5099580000000  0.5149880000000 1.0
C      1  0.4831300000000  0.5760090000000  0.5167350000000 1.0
C      1  0.5684910000000  0.5319370000000  0.5110550000000 1.0
C      1  0.5559290000000  0.4472240000000  0.5192300000000 1.0
C      1  0.4620530000000  0.4317400000000  0.5109890000000 1.0
C      1  0.4193850000000  0.5030950000000  0.4825290000000 1.0
C      1  0.4921450000000  0.5767770000000  0.4843750000000 1.0
C      1  0.5749540000000  0.5311950000000  0.4777530000000 1.0
C      1  0.5591830000000  0.4497960000000  0.4662530000000 1.0
C      1  0.4689960000000  0.4267610000000  0.4782420000000 1.0
C      1  0.5467890000000  0.5098840000000  0.5589130000000 1.0
C      1  0.5227590000000  0.4564390000000  0.5577620000000 1.0
C      1  0.4682440000000  0.4645600000000  0.5532290000000 1.0
C      1  0.4622930000000  0.5238490000000  0.5583570000000 1.0
C      1  0.5071300000000  0.5450610000000  0.5638170000000 1.0
C      1  0.5480260000000  0.5120870000000  0.4363590000000 1.0
C      1  0.5233800000000  0.4630560000000  0.4327910000000 1.0
C      1  0.4706780000000  0.4653110000000  0.4436940000000 1.0
C      1  0.4520390000000  0.5162040000000  0.4492090000000 1.0
C      1  0.5060320000000  0.5483100000000  0.4401800000000 1.0
C      1  0.4940650000000  0.4263640000000  0.5089490000000 1.0
C      1  0.4156440000000  0.4779320000000  0.5125960000000 1.0
C      1  0.4518740000000  0.5662950000000  0.5165030000000 1.0
C      1  0.5457290000000  0.5563240000000  0.5129240000000 1.0
C      1  0.5726650000000  0.4657190000000  0.5084460000000 1.0
C      1  0.5018670000000  0.4245700000000  0.4791170000000 1.0
C      1  0.4194390000000  0.4708500000000  0.4810860000000 1.0
C      1  0.4607110000000  0.5686990000000  0.4848630000000 1.0
C      1  0.5544010000000  0.5558010000000  0.4826570000000 1.0
C      1  0.5739290000000  0.4687930000000  0.4791260000000 1.0
C      1  0.5377330000000  0.5091400000000  0.4996820000000 1.0
C      1  0.5273780000000  0.4710000000000  0.5033620000000 1.0
C      1  0.4760570000000  0.4675350000000  0.4997190000000 1.0
C      1  0.4573200000000  0.5156920000000  0.4982560000000 1.0
C      1  0.5069390000000  0.5342310000000  0.4954230000000 1.0
C      1  0.5074340000000  0.4904210000000  0.4229030000000 1.0
C      1  0.4837630000000  0.5327250000000  0.5788980000000 1.0
C      1  0.4962360000000  0.5113800000000  0.4284620000000 1.0
C      1  0.4820360000000  0.5296010000000  0.6050040000000 1.0
END
