TITL C-2782230-7391-1493 0.00786991433803305 125000 -1141.89486099852 0 0 193 (C1) n - 1
REM
REM in /home/nfs/bkarasulu/CARBON/AIRSS/Generating-Clusters/REBO/Higher-Symm/SD-CG/HFTN-CG
REM
REM
REM
REM
REM
REM ./C.cell (12c818d87b63d06a65506943cc24bca4)
REM
REM compiler GCC version 9.2.1 20190827 (Red Hat 9.2.1-1)
REM options -cpp -mtune=generic -march=x86-64 -g -O0 -fpre-include=/usr/include/finclude/math-vector-fortran.h
REM seed -87440020 1063409832 490639434 -959824398 -2022078805 590602544 -2089738499 2015615156 -1281336498 -300199368 1020246264 -526302775 559555680 1333868451 -499068540 -331738198 1939828007 1095535614 628533488 -1524049037 -311893955 -1485487424 -1558947027 778366392 1436080603 -641871912 -2100047525 1714009864 1032620934 -388255933 -1255205816 -651768953 688648350
REM
CELL 1.54180   50.00000   50.00000   50.00000   90.00000   90.00000   90.00000
LATT -1
SFAC C  
C      1  0.5589710000000  0.5056890000000  0.4070280000000 1.0
C      1  0.4022220000000  0.5621520000000  0.5037270000000 1.0
C      1  0.5078650000000  0.4028450000000  0.5627090000000 1.0
C      1  0.4425920000000  0.5034320000000  0.5998090000000 1.0
C      1  0.5582140000000  0.4888190000000  0.5971520000000 1.0
C      1  0.4368830000000  0.4935090000000  0.4050540000000 1.0
C      1  0.5954390000000  0.5596980000000  0.4963350000000 1.0
C      1  0.4047910000000  0.4410000000000  0.4949690000000 1.0
C      1  0.6020960000000  0.4401370000000  0.5041290000000 1.0
C      1  0.4951440000000  0.4035800000000  0.4421820000000 1.0
C      1  0.5049900000000  0.5938150000000  0.4382950000000 1.0
C      1  0.5003600000000  0.6009420000000  0.5646900000000 1.0
C      1  0.4152900000000  0.4365070000000  0.5205960000000 1.0
C      1  0.5212640000000  0.4139850000000  0.4379660000000 1.0
C      1  0.4293600000000  0.5187400000000  0.4102490000000 1.0
C      1  0.5873570000000  0.4347290000000  0.4805870000000 1.0
C      1  0.4108720000000  0.5686930000000  0.4775220000000 1.0
C      1  0.5849260000000  0.5632370000000  0.5225030000000 1.0
C      1  0.4822790000000  0.4138310000000  0.5684160000000 1.0
C      1  0.5237440000000  0.5844920000000  0.5690240000000 1.0
C      1  0.4798200000000  0.5878490000000  0.4313920000000 1.0
C      1  0.5622870000000  0.5136020000000  0.5873020000000 1.0
C      1  0.4368880000000  0.4788210000000  0.5857810000000 1.0
C      1  0.5653320000000  0.4803020000000  0.4172920000000 1.0
C      1  0.4246960000000  0.5107350000000  0.4850760000000 1.0
C      1  0.4858270000000  0.4262190000000  0.5120430000000 1.0
C      1  0.5109000000000  0.4896800000000  0.4276590000000 1.0
C      1  0.5725930000000  0.5082570000000  0.5117260000000 1.0
C      1  0.4251490000000  0.4908600000000  0.5085460000000 1.0
C      1  0.5745030000000  0.4896800000000  0.4876070000000 1.0
C      1  0.5104900000000  0.4267540000000  0.4929220000000 1.0
C      1  0.4865860000000  0.5771440000000  0.4889940000000 1.0
C      1  0.5085750000000  0.5739260000000  0.5105460000000 1.0
C      1  0.4894230000000  0.4902460000000  0.5701570000000 1.0
C      1  0.5089320000000  0.5138720000000  0.5717780000000 1.0
C      1  0.4905710000000  0.5123040000000  0.4264030000000 1.0
C      1  0.3883080000000  0.4942490000000  0.4863490000000 1.0
C      1  0.4860580000000  0.3894340000000  0.4957910000000 1.0
C      1  0.4963370000000  0.4861810000000  0.3903030000000 1.0
C      1  0.6130690000000  0.4941010000000  0.5126650000000 1.0
C      1  0.3887000000000  0.5070660000000  0.5113430000000 1.0
C      1  0.6115440000000  0.5068540000000  0.4876890000000 1.0
C      1  0.5110210000000  0.3895660000000  0.5083740000000 1.0
C      1  0.4859450000000  0.6121250000000  0.5082560000000 1.0
C      1  0.5124160000000  0.6117110000000  0.4981760000000 1.0
C      1  0.5058310000000  0.4828620000000  0.6147420000000 1.0
C      1  0.4960620000000  0.5097750000000  0.6171150000000 1.0
C      1  0.5053520000000  0.5126190000000  0.3892830000000 1.0
C      1  0.4837380000000  0.4381530000000  0.5860590000000 1.0
C      1  0.5902750000000  0.4757820000000  0.4354310000000 1.0
C      1  0.4337590000000  0.5906930000000  0.4741210000000 1.0
C      1  0.5214170000000  0.4367790000000  0.4183770000000 1.0
C      1  0.4741220000000  0.5654940000000  0.4091160000000 1.0
C      1  0.5195050000000  0.5614450000000  0.5901780000000 1.0
C      1  0.4163190000000  0.4805820000000  0.5635500000000 1.0
C      1  0.5844880000000  0.5170850000000  0.5657680000000 1.0
C      1  0.4074150000000  0.5239210000000  0.4325700000000 1.0
C      1  0.5615310000000  0.5820910000000  0.5226850000000 1.0
C      1  0.4344850000000  0.4124670000000  0.5269700000000 1.0
C      1  0.5638070000000  0.4162240000000  0.4848950000000 1.0
C      1  0.4415780000000  0.5746550000000  0.5524110000000 1.0
C      1  0.5628070000000  0.4321110000000  0.5852830000000 1.0
C      1  0.5838370000000  0.5590890000000  0.4345350000000 1.0
C      1  0.5637700000000  0.5854000000000  0.4424350000000 1.0
C      1  0.4334180000000  0.4152190000000  0.4423760000000 1.0
C      1  0.5700600000000  0.4172290000000  0.5564020000000 1.0
C      1  0.4414350000000  0.4344340000000  0.4153980000000 1.0
C      1  0.5581630000000  0.5675300000000  0.4138050000000 1.0
C      1  0.4539300000000  0.5444260000000  0.5604970000000 1.0
C      1  0.4199210000000  0.5509780000000  0.5621010000000 1.0
C      1  0.5869240000000  0.4459280000000  0.5646420000000 1.0
C      1  0.4127710000000  0.4405570000000  0.4330000000000 1.0
C      1  0.4354820000000  0.4155320000000  0.4931860000000 1.0
C      1  0.4884430000000  0.4427920000000  0.4167490000000 1.0
C      1  0.4128810000000  0.4907970000000  0.4366530000000 1.0
C      1  0.5581660000000  0.4186480000000  0.5184030000000 1.0
C      1  0.4349280000000  0.5849350000000  0.5069240000000 1.0
C      1  0.5554990000000  0.5843570000000  0.4895320000000 1.0
C      1  0.5170880000000  0.4458090000000  0.5861540000000 1.0
C      1  0.4853430000000  0.5591540000000  0.5884760000000 1.0
C      1  0.5074350000000  0.5622060000000  0.4141810000000 1.0
C      1  0.5826610000000  0.4835430000000  0.5605130000000 1.0
C      1  0.4177240000000  0.5131000000000  0.5590520000000 1.0
C      1  0.5844810000000  0.5087290000000  0.4376760000000 1.0
C      1  0.5528740000000  0.5421250000000  0.3961550000000 1.0
C      1  0.3967950000000  0.5507230000000  0.5407440000000 1.0
C      1  0.5425840000000  0.4065600000000  0.5438610000000 1.0
C      1  0.4600230000000  0.5386960000000  0.5932530000000 1.0
C      1  0.5582730000000  0.4531820000000  0.6078990000000 1.0
C      1  0.4471150000000  0.4622910000000  0.3987290000000 1.0
C      1  0.6015310000000  0.5526170000000  0.4589390000000 1.0
C      1  0.3949630000000  0.4467400000000  0.4580080000000 1.0
C      1  0.6073590000000  0.4517330000000  0.5413900000000 1.0
C      1  0.4577900000000  0.3977840000000  0.4494990000000 1.0
C      1  0.5358410000000  0.6013340000000  0.4479540000000 1.0
C      1  0.4620540000000  0.5949140000000  0.5564910000000 1.0
C      1  0.5386570000000  0.5173790000000  0.5554910000000 1.0
C      1  0.5553340000000  0.5373470000000  0.5161010000000 1.0
C      1  0.5101150000000  0.5540110000000  0.5381030000000 1.0
C      1  0.4585920000000  0.5172700000000  0.4372710000000 1.0
C      1  0.5382160000000  0.4879240000000  0.4479520000000 1.0
C      1  0.4614120000000  0.4850590000000  0.5516940000000 1.0
C      1  0.4393810000000  0.5412390000000  0.4815930000000 1.0
C      1  0.5563250000000  0.4609670000000  0.4842210000000 1.0
C      1  0.4441650000000  0.4627450000000  0.5120410000000 1.0
C      1  0.4835920000000  0.5604190000000  0.4600050000000 1.0
C      1  0.5146770000000  0.4437790000000  0.4636260000000 1.0
C      1  0.4841330000000  0.4432860000000  0.5415560000000 1.0
C      1  0.5172980000000  0.4666140000000  0.4031580000000 1.0
C      1  0.3979060000000  0.5132750000000  0.4635880000000 1.0
C      1  0.4634470000000  0.4001600000000  0.5141320000000 1.0
C      1  0.4870030000000  0.4699510000000  0.5962240000000 1.0
C      1  0.5121640000000  0.5299890000000  0.6015110000000 1.0
C      1  0.4853400000000  0.5342870000000  0.4004870000000 1.0
C      1  0.5977620000000  0.5079970000000  0.5356370000000 1.0
C      1  0.4013600000000  0.4898590000000  0.5338840000000 1.0
C      1  0.6006580000000  0.4880480000000  0.4654080000000 1.0
C      1  0.5337500000000  0.4017290000000  0.4915080000000 1.0
C      1  0.4632230000000  0.6019090000000  0.4877630000000 1.0
C      1  0.5319370000000  0.5976540000000  0.5187270000000 1.0
C      1  0.4773350000000  0.4628530000000  0.3960320000000 1.0
C      1  0.3908460000000  0.4666580000000  0.4816770000000 1.0
C      1  0.4815380000000  0.3910750000000  0.4682890000000 1.0
C      1  0.5308500000000  0.4682490000000  0.6107110000000 1.0
C      1  0.4686550000000  0.5132450000000  0.6117970000000 1.0
C      1  0.5329650000000  0.5183260000000  0.3921850000000 1.0
C      1  0.6152550000000  0.4662400000000  0.5157130000000 1.0
C      1  0.3897550000000  0.5349340000000  0.5153920000000 1.0
C      1  0.6089130000000  0.5342150000000  0.4828290000000 1.0
C      1  0.5157300000000  0.3921010000000  0.5355130000000 1.0
C      1  0.4826570000000  0.6079040000000  0.5364040000000 1.0
C      1  0.5351940000000  0.6050900000000  0.4783280000000 1.0
C      1  0.4534410000000  0.5390220000000  0.4116240000000 1.0
C      1  0.4210550000000  0.4624390000000  0.5363080000000 1.0
C      1  0.5375040000000  0.4198370000000  0.4639740000000 1.0
C      1  0.5401770000000  0.5351090000000  0.5845330000000 1.0
C      1  0.4616050000000  0.4624940000000  0.5771260000000 1.0
C      1  0.5409860000000  0.4634710000000  0.4254960000000 1.0
C      1  0.5823820000000  0.4593030000000  0.4629720000000 1.0
C      1  0.4142460000000  0.5429200000000  0.4596440000000 1.0
C      1  0.5801370000000  0.5367960000000  0.5386780000000 1.0
C      1  0.4632470000000  0.4170920000000  0.5437080000000 1.0
C      1  0.5347540000000  0.5747690000000  0.5423400000000 1.0
C      1  0.4617410000000  0.5863330000000  0.4571970000000 1.0
C      1  0.4560700000000  0.5634500000000  0.4965950000000 1.0
C      1  0.5041570000000  0.4615180000000  0.5611290000000 1.0
C      1  0.5636170000000  0.5017100000000  0.4598490000000 1.0
C      1  0.5377490000000  0.5596890000000  0.4997480000000 1.0
C      1  0.4574930000000  0.4369300000000  0.4998840000000 1.0
C      1  0.5393970000000  0.4407790000000  0.5046430000000 1.0
C      1  0.4988960000000  0.4606320000000  0.4411510000000 1.0
C      1  0.4992670000000  0.5431720000000  0.4380740000000 1.0
C      1  0.4970400000000  0.5420710000000  0.5636500000000 1.0
C      1  0.4390540000000  0.5026290000000  0.5374450000000 1.0
C      1  0.5598580000000  0.4964510000000  0.5410190000000 1.0
C      1  0.4368530000000  0.5002160000000  0.4551150000000 1.0
C      1  0.5125030000000  0.4950840000000  0.4672390000000 1.0
C      1  0.4642140000000  0.5230040000000  0.4900810000000 1.0
C      1  0.4926550000000  0.4706550000000  0.5240080000000 1.0
C      1  0.4818520000000  0.5041930000000  0.5335100000000 1.0
C      1  0.5219090000000  0.5056410000000  0.5297670000000 1.0
C      1  0.4751860000000  0.5081180000000  0.4630530000000 1.0
C      1  0.5349180000000  0.5198480000000  0.4984270000000 1.0
C      1  0.4648680000000  0.4867130000000  0.5064450000000 1.0
C      1  0.5288510000000  0.4780410000000  0.4948360000000 1.0
C      1  0.4976020000000  0.4645920000000  0.4810350000000 1.0
C      1  0.4914830000000  0.5337900000000  0.4761580000000 1.0
C      1  0.5045960000000  0.5332270000000  0.5138580000000 1.0
C      1  0.5310770000000  0.5818850000000  0.4200550000000 1.0
C      1  0.4279260000000  0.5289310000000  0.5861160000000 1.0
C      1  0.5883390000000  0.4258740000000  0.5301520000000 1.0
C      1  0.4776040000000  0.5885300000000  0.5817450000000 1.0
C      1  0.5343530000000  0.4210440000000  0.5738770000000 1.0
C      1  0.4694700000000  0.4190050000000  0.4254920000000 1.0
C      1  0.5767430000000  0.5325040000000  0.4185320000000 1.0
C      1  0.4189810000000  0.4671690000000  0.4175720000000 1.0
C      1  0.5815230000000  0.4671040000000  0.5886110000000 1.0
C      1  0.4168850000000  0.4228510000000  0.4686020000000 1.0
C      1  0.5794950000000  0.5758780000000  0.4706310000000 1.0
C      1  0.4176510000000  0.5758350000000  0.5309210000000 1.0
C      1  0.4487630000000  0.5220530000000  0.5153890000000 1.0
C      1  0.5177410000000  0.4521000000000  0.5227610000000 1.0
C      1  0.5200900000000  0.5234120000000  0.4504850000000 1.0
C      1  0.5423800000000  0.5212230000000  0.4703720000000 1.0
C      1  0.4495910000000  0.4808540000000  0.4768360000000 1.0
C      1  0.5481440000000  0.4777120000000  0.5190660000000 1.0
C      1  0.4690940000000  0.4575330000000  0.4797760000000 1.0
C      1  0.5166250000000  0.5500130000000  0.4797810000000 1.0
C      1  0.4767830000000  0.5503670000000  0.5163190000000 1.0
C      1  0.4761850000000  0.5331720000000  0.5419850000000 1.0
C      1  0.5218920000000  0.4820590000000  0.5485940000000 1.0
C      1  0.4790150000000  0.4819070000000  0.4501800000000 1.0
C      1  0.4992270000000  0.4989690000000  0.5014030000000 1.0
END
