TITL C-2782228-2999-845 -4.36116489174463e-05 125000 -611.727651937947 0 0 111 (C1) n - 1
REM
REM in /home/nfs/bkarasulu/CARBON/AIRSS/Generating-Clusters/REBO/Higher-Symm/SD-CG/HFTN-CG
REM
REM
REM
REM
REM
REM ./C.cell (12c818d87b63d06a65506943cc24bca4)
REM
REM compiler GCC version 9.2.1 20190827 (Red Hat 9.2.1-1)
REM options -cpp -mtune=generic -march=x86-64 -g -O0 -fpre-include=/usr/include/finclude/math-vector-fortran.h
REM seed 1911882281 -184542693 286222647 1068517659 1981381232 -912085444 -1947722784 -229095821 2077946077 -826153008 -2113630316 -249586256 575491735 -764505310 513501743 1393893061 -1753572570 99983442 1615881182 -2015591666 369611682 -1653634677 1572859794 916564189 1417776432 1033224494 1294261343 -712528773 1198672234 1288163471 699635507 1072713367 -971478059
REM
CELL 1.54180   50.00000   50.00000   50.00000   90.00000   90.00000   90.00000
LATT -1
SFAC C  
C      1  0.5212190000000  0.4564670000000  0.4432810000000 1.0
C      1  0.5096810000000  0.5422500000000  0.4506480000000 1.0
C      1  0.5074940000000  0.5638760000000  0.5265590000000 1.0
C      1  0.5057720000000  0.5022710000000  0.5698150000000 1.0
C      1  0.5100280000000  0.4418160000000  0.5108110000000 1.0
C      1  0.5175930000000  0.5634450000000  0.5651190000000 1.0
C      1  0.5238490000000  0.4538110000000  0.5767220000000 1.0
C      1  0.5127080000000  0.4117690000000  0.4846930000000 1.0
C      1  0.5263450000000  0.4959700000000  0.4087400000000 1.0
C      1  0.5150150000000  0.5792740000000  0.4645330000000 1.0
C      1  0.5355450000000  0.4806690000000  0.5361660000000 1.0
C      1  0.5332340000000  0.4669380000000  0.4902670000000 1.0
C      1  0.5339800000000  0.4883560000000  0.4635470000000 1.0
C      1  0.5294120000000  0.5301160000000  0.4891340000000 1.0
C      1  0.5323700000000  0.5242870000000  0.5210690000000 1.0
C      1  0.5805060000000  0.5138180000000  0.4784470000000 1.0
C      1  0.5829870000000  0.5230010000000  0.5065140000000 1.0
C      1  0.5809170000000  0.4993450000000  0.5230180000000 1.0
C      1  0.5799880000000  0.4766860000000  0.5052560000000 1.0
C      1  0.5832210000000  0.4845970000000  0.4773060000000 1.0
C      1  0.4174590000000  0.4636580000000  0.5397250000000 1.0
C      1  0.4155050000000  0.4563570000000  0.4811100000000 1.0
C      1  0.4155410000000  0.5059990000000  0.4497740000000 1.0
C      1  0.4177040000000  0.5492510000000  0.4899420000000 1.0
C      1  0.4106060000000  0.5204700000000  0.5466810000000 1.0
C      1  0.5623510000000  0.4691330000000  0.4637920000000 1.0
C      1  0.5516240000000  0.5229100000000  0.4714230000000 1.0
C      1  0.5604320000000  0.5410520000000  0.5113160000000 1.0
C      1  0.5586210000000  0.5019890000000  0.5410020000000 1.0
C      1  0.5559920000000  0.4608120000000  0.5081650000000 1.0
C      1  0.4757550000000  0.4854610000000  0.4373940000000 1.0
C      1  0.4762840000000  0.5500880000000  0.4748690000000 1.0
C      1  0.4727210000000  0.5504040000000  0.5455480000000 1.0
C      1  0.4788790000000  0.4759000000000  0.5565180000000 1.0
C      1  0.4743800000000  0.4469670000000  0.4920590000000 1.0
C      1  0.4816150000000  0.5836720000000  0.4701100000000 1.0
C      1  0.4844950000000  0.5633480000000  0.5744630000000 1.0
C      1  0.4898850000000  0.4500160000000  0.5756560000000 1.0
C      1  0.4790760000000  0.4147340000000  0.4804570000000 1.0
C      1  0.4928450000000  0.4930120000000  0.4107720000000 1.0
C      1  0.5602470000000  0.4410330000000  0.5282220000000 1.0
C      1  0.5591490000000  0.4387350000000  0.4749840000000 1.0
C      1  0.5619610000000  0.5075610000000  0.4426160000000 1.0
C      1  0.5578970000000  0.5616470000000  0.4843370000000 1.0
C      1  0.5569000000000  0.5344530000000  0.5509710000000 1.0
C      1  0.4601250000000  0.5018950000000  0.5687510000000 1.0
C      1  0.4606820000000  0.4370750000000  0.5216500000000 1.0
C      1  0.4566270000000  0.4576630000000  0.4430900000000 1.0
C      1  0.4616710000000  0.5372570000000  0.4468890000000 1.0
C      1  0.4551540000000  0.5688340000000  0.5225090000000 1.0
C      1  0.4442050000000  0.4469600000000  0.5480660000000 1.0
C      1  0.4371120000000  0.4391730000000  0.4639400000000 1.0
C      1  0.4432830000000  0.5143690000000  0.4324180000000 1.0
C      1  0.4392790000000  0.5717060000000  0.4924770000000 1.0
C      1  0.4395730000000  0.5282450000000  0.5623050000000 1.0
C      1  0.5159190000000  0.5230080000000  0.4234370000000 1.0
C      1  0.5110180000000  0.5803120000000  0.4969270000000 1.0
C      1  0.5112130000000  0.5340290000000  0.5776790000000 1.0
C      1  0.5156790000000  0.4347850000000  0.5497340000000 1.0
C      1  0.5070990000000  0.4278980000000  0.4551970000000 1.0
C      1  0.5382140000000  0.4228480000000  0.4562180000000 1.0
C      1  0.5451640000000  0.5349090000000  0.4362720000000 1.0
C      1  0.5417030000000  0.5736370000000  0.5100180000000 1.0
C      1  0.5408270000000  0.5179080000000  0.5729750000000 1.0
C      1  0.5369880000000  0.4235960000000  0.5331230000000 1.0
C      1  0.4755710000000  0.5348230000000  0.5193920000000 1.0
C      1  0.4837870000000  0.4999050000000  0.5366970000000 1.0
C      1  0.4863600000000  0.4735360000000  0.5068300000000 1.0
C      1  0.4807190000000  0.4779970000000  0.4675040000000 1.0
C      1  0.4840710000000  0.5178100000000  0.4744460000000 1.0
C      1  0.5137630000000  0.5140150000000  0.5386670000000 1.0
C      1  0.5129770000000  0.4684560000000  0.5244800000000 1.0
C      1  0.5049560000000  0.4635850000000  0.4724880000000 1.0
C      1  0.5110650000000  0.5096570000000  0.4606130000000 1.0
C      1  0.5027460000000  0.5415890000000  0.5012250000000 1.0
C      1  0.5825090000000  0.5441120000000  0.5581890000000 1.0
C      1  0.5832560000000  0.4386080000000  0.5424610000000 1.0
C      1  0.5847170000000  0.4267740000000  0.4778750000000 1.0
C      1  0.5892670000000  0.5055330000000  0.4377710000000 1.0
C      1  0.5824080000000  0.5734510000000  0.4772200000000 1.0
C      1  0.4287340000000  0.4782650000000  0.4629860000000 1.0
C      1  0.4268050000000  0.5301870000000  0.4651640000000 1.0
C      1  0.4142350000000  0.5359200000000  0.5175670000000 1.0
C      1  0.4267370000000  0.4938850000000  0.5469470000000 1.0
C      1  0.4281350000000  0.4577080000000  0.5111880000000 1.0
C      1  0.4371440000000  0.4816850000000  0.4301360000000 1.0
C      1  0.4409270000000  0.5605470000000  0.4610520000000 1.0
C      1  0.4338520000000  0.5503300000000  0.5395210000000 1.0
C      1  0.4416180000000  0.4731050000000  0.5682220000000 1.0
C      1  0.4391080000000  0.4298400000000  0.4960180000000 1.0
C      1  0.5119780000000  0.4655100000000  0.4139550000000 1.0
C      1  0.4914660000000  0.5677070000000  0.4425300000000 1.0
C      1  0.4946380000000  0.5831940000000  0.5492800000000 1.0
C      1  0.5023320000000  0.4776160000000  0.5888540000000 1.0
C      1  0.4912980000000  0.4166130000000  0.5114750000000 1.0
C      1  0.4763890000000  0.4392660000000  0.4588760000000 1.0
C      1  0.4829880000000  0.5182290000000  0.4314850000000 1.0
C      1  0.4780470000000  0.5722920000000  0.5009560000000 1.0
C      1  0.4776310000000  0.5300230000000  0.5723340000000 1.0
C      1  0.4837500000000  0.4447630000000  0.5431970000000 1.0
C      1  0.5432890000000  0.4808340000000  0.4328430000000 1.0
C      1  0.5385170000000  0.5585590000000  0.4599610000000 1.0
C      1  0.5384490000000  0.5584470000000  0.5404180000000 1.0
C      1  0.5351900000000  0.4847110000000  0.5681760000000 1.0
C      1  0.5376910000000  0.4267160000000  0.4985310000000 1.0
C      1  0.4507090000000  0.5181330000000  0.4813470000000 1.0
C      1  0.4457930000000  0.5253180000000  0.5105090000000 1.0
C      1  0.4512000000000  0.5002120000000  0.5283840000000 1.0
C      1  0.4526910000000  0.4762700000000  0.5086490000000 1.0
C      1  0.4541510000000  0.4867550000000  0.4796710000000 1.0
C      1  0.4817220000000  0.5056420000000  0.5032010000000 1.0
END
