TITL C-2782237-5345-792 0.00523453928834558 125000 -1129.93990820163 0 0 190 (C1) n - 1
REM
REM in /home/nfs/bkarasulu/CARBON/AIRSS/Generating-Clusters/REBO/Higher-Symm/SD-CG/HFTN-CG
REM
REM
REM
REM
REM
REM ./C.cell (12c818d87b63d06a65506943cc24bca4)
REM
REM compiler GCC version 9.2.1 20190827 (Red Hat 9.2.1-1)
REM options -cpp -mtune=generic -march=x86-64 -g -O0 -fpre-include=/usr/include/finclude/math-vector-fortran.h
REM seed -1073640836 -1176642776 1633167066 -1023309578 -535091727 -1929691650 2035244897 -512700030 -1748457369 -1301168034 -552679076 -1146569002 654576012 -924895407 -1270148967 1253490041 1119540623 -2069607659 1012557580 697792568 -2132569765 2111768253 1907480737 -647509442 287132934 1666918346 -1662821661 1064285511 1091052067 -1930541444 -447135642 -1183875076 23776703
REM
CELL 1.54180   50.00000   50.00000   50.00000   90.00000   90.00000   90.00000
LATT -1
SFAC C  
C      1  0.6131430000000  0.5227920000000  0.4577930000000 1.0
C      1  0.5734220000000  0.4194320000000  0.4499650000000 1.0
C      1  0.4909100000000  0.3954330000000  0.4476550000000 1.0
C      1  0.4111990000000  0.4483420000000  0.4428920000000 1.0
C      1  0.4008450000000  0.5385950000000  0.4474220000000 1.0
C      1  0.4678860000000  0.5980160000000  0.4508950000000 1.0
C      1  0.5524910000000  0.5911110000000  0.4436370000000 1.0
C      1  0.4405430000000  0.5917900000000  0.4926610000000 1.0
C      1  0.5282050000000  0.5979510000000  0.4841420000000 1.0
C      1  0.5947460000000  0.5381570000000  0.4895470000000 1.0
C      1  0.5957920000000  0.4507610000000  0.4855500000000 1.0
C      1  0.5100350000000  0.3945590000000  0.4894330000000 1.0
C      1  0.4280610000000  0.4286150000000  0.4838090000000 1.0
C      1  0.3933430000000  0.5137070000000  0.4902550000000 1.0
C      1  0.4597480000000  0.4080330000000  0.4531320000000 1.0
C      1  0.4024520000000  0.4785500000000  0.4535560000000 1.0
C      1  0.4216940000000  0.5587270000000  0.4564500000000 1.0
C      1  0.4939160000000  0.5927270000000  0.4644900000000 1.0
C      1  0.5664360000000  0.5668090000000  0.4545840000000 1.0
C      1  0.6053990000000  0.4974030000000  0.4655600000000 1.0
C      1  0.5401300000000  0.4221780000000  0.4570720000000 1.0
C      1  0.4080670000000  0.4425610000000  0.5285100000000 1.0
C      1  0.3945840000000  0.5342470000000  0.5359240000000 1.0
C      1  0.4574250000000  0.6019680000000  0.5394600000000 1.0
C      1  0.5511110000000  0.6087370000000  0.5537070000000 1.0
C      1  0.6127490000000  0.5213480000000  0.5330080000000 1.0
C      1  0.5834450000000  0.4229060000000  0.5277040000000 1.0
C      1  0.4931210000000  0.3880160000000  0.5298460000000 1.0
C      1  0.5167230000000  0.4322920000000  0.5006700000000 1.0
C      1  0.4637890000000  0.4426520000000  0.5053860000000 1.0
C      1  0.4334930000000  0.4903090000000  0.5057230000000 1.0
C      1  0.4332660000000  0.5368200000000  0.5157700000000 1.0
C      1  0.4804660000000  0.5719010000000  0.5022200000000 1.0
C      1  0.5718550000000  0.5441480000000  0.5215090000000 1.0
C      1  0.5733070000000  0.4851100000000  0.5229690000000 1.0
C      1  0.5121560000000  0.4193500000000  0.5705460000000 1.0
C      1  0.4461170000000  0.4397350000000  0.5666020000000 1.0
C      1  0.4145400000000  0.5093020000000  0.5730970000000 1.0
C      1  0.4535690000000  0.5664560000000  0.5754440000000 1.0
C      1  0.5203240000000  0.5751150000000  0.5748580000000 1.0
C      1  0.5763650000000  0.5361570000000  0.5766780000000 1.0
C      1  0.5739830000000  0.4631820000000  0.5830990000000 1.0
C      1  0.4948680000000  0.4736390000000  0.5103130000000 1.0
C      1  0.4734530000000  0.4897950000000  0.5071700000000 1.0
C      1  0.4720070000000  0.5163600000000  0.5128570000000 1.0
C      1  0.4907400000000  0.5336640000000  0.5018670000000 1.0
C      1  0.5196270000000  0.5341790000000  0.5047240000000 1.0
C      1  0.5286260000000  0.5104860000000  0.5163620000000 1.0
C      1  0.5222470000000  0.4837640000000  0.5032910000000 1.0
C      1  0.5450850000000  0.5077280000000  0.5398450000000 1.0
C      1  0.5385400000000  0.4530760000000  0.5409920000000 1.0
C      1  0.4926870000000  0.4551640000000  0.5324500000000 1.0
C      1  0.4491710000000  0.4837630000000  0.5468900000000 1.0
C      1  0.4483030000000  0.5222960000000  0.5565020000000 1.0
C      1  0.4869150000000  0.5529370000000  0.5366690000000 1.0
C      1  0.5379580000000  0.5434160000000  0.5564440000000 1.0
C      1  0.5196330000000  0.6047180000000  0.5149010000000 1.0
C      1  0.6029240000000  0.5652470000000  0.5087830000000 1.0
C      1  0.6143100000000  0.4580060000000  0.5132940000000 1.0
C      1  0.5360610000000  0.3981730000000  0.5075070000000 1.0
C      1  0.4266160000000  0.4017100000000  0.5038100000000 1.0
C      1  0.3796030000000  0.4922690000000  0.5110850000000 1.0
C      1  0.4166020000000  0.5873680000000  0.5151020000000 1.0
C      1  0.5474910000000  0.4736160000000  0.5191640000000 1.0
C      1  0.4859100000000  0.4268020000000  0.5259910000000 1.0
C      1  0.4408140000000  0.4605950000000  0.5154370000000 1.0
C      1  0.4365050000000  0.5106750000000  0.5301470000000 1.0
C      1  0.4605760000000  0.5542020000000  0.5181930000000 1.0
C      1  0.5495910000000  0.5586980000000  0.5356630000000 1.0
C      1  0.5734010000000  0.5150600000000  0.5317850000000 1.0
C      1  0.5548540000000  0.4813950000000  0.3933280000000 1.0
C      1  0.5275750000000  0.4400280000000  0.4000940000000 1.0
C      1  0.4743690000000  0.4361300000000  0.4014070000000 1.0
C      1  0.4429800000000  0.4750850000000  0.4127970000000 1.0
C      1  0.4471200000000  0.5251060000000  0.4115360000000 1.0
C      1  0.4809000000000  0.5593510000000  0.3991530000000 1.0
C      1  0.5442610000000  0.5301500000000  0.3941810000000 1.0
C      1  0.5754330000000  0.4296660000000  0.5006960000000 1.0
C      1  0.4805680000000  0.4031840000000  0.5020520000000 1.0
C      1  0.4132970000000  0.4546840000000  0.4976830000000 1.0
C      1  0.4040710000000  0.5390090000000  0.5038450000000 1.0
C      1  0.4673270000000  0.6014710000000  0.5088360000000 1.0
C      1  0.5549330000000  0.5857740000000  0.4878470000000 1.0
C      1  0.6042350000000  0.5119200000000  0.5055260000000 1.0
C      1  0.5560710000000  0.5241150000000  0.5942740000000 1.0
C      1  0.5520690000000  0.4698540000000  0.5971460000000 1.0
C      1  0.5082690000000  0.4392370000000  0.5909230000000 1.0
C      1  0.4586900000000  0.4537780000000  0.5875630000000 1.0
C      1  0.4359770000000  0.5043350000000  0.5920400000000 1.0
C      1  0.4642520000000  0.5493490000000  0.5955620000000 1.0
C      1  0.5153150000000  0.5566650000000  0.5953990000000 1.0
C      1  0.5124460000000  0.4624010000000  0.3889750000000 1.0
C      1  0.4839300000000  0.4617810000000  0.3923370000000 1.0
C      1  0.4652000000000  0.4834500000000  0.3970670000000 1.0
C      1  0.4651500000000  0.5118820000000  0.3954370000000 1.0
C      1  0.4890830000000  0.5304700000000  0.3876850000000 1.0
C      1  0.5182830000000  0.5139040000000  0.3894240000000 1.0
C      1  0.5279270000000  0.4855620000000  0.3851030000000 1.0
C      1  0.4919560000000  0.4090110000000  0.5526370000000 1.0
C      1  0.4314450000000  0.4575510000000  0.5469230000000 1.0
C      1  0.4109500000000  0.5359490000000  0.5606350000000 1.0
C      1  0.4699130000000  0.5866580000000  0.5610580000000 1.0
C      1  0.5487810000000  0.5807450000000  0.5647700000000 1.0
C      1  0.5918030000000  0.5194830000000  0.5573770000000 1.0
C      1  0.5663030000000  0.4161770000000  0.5491470000000 1.0
C      1  0.5093990000000  0.5674860000000  0.4376600000000 1.0
C      1  0.5680660000000  0.5168710000000  0.4411640000000 1.0
C      1  0.5668700000000  0.4575240000000  0.4399660000000 1.0
C      1  0.5045990000000  0.4325690000000  0.4421160000000 1.0
C      1  0.4594640000000  0.4475570000000  0.4491120000000 1.0
C      1  0.4289540000000  0.5084530000000  0.4533260000000 1.0
C      1  0.4608190000000  0.5587440000000  0.4489670000000 1.0
C      1  0.4071060000000  0.4841460000000  0.5264930000000 1.0
C      1  0.4329190000000  0.5650000000000  0.5320480000000 1.0
C      1  0.5028240000000  0.5812390000000  0.5262470000000 1.0
C      1  0.5886330000000  0.5646750000000  0.5396350000000 1.0
C      1  0.5937950000000  0.4693860000000  0.5348950000000 1.0
C      1  0.5349680000000  0.4255630000000  0.5262870000000 1.0
C      1  0.4472790000000  0.4184780000000  0.5229490000000 1.0
C      1  0.6099050000000  0.4329000000000  0.5326050000000 1.0
C      1  0.5182230000000  0.3773760000000  0.5245240000000 1.0
C      1  0.4077740000000  0.4142880000000  0.5275420000000 1.0
C      1  0.3751630000000  0.5138650000000  0.5349500000000 1.0
C      1  0.4296120000000  0.6040800000000  0.5395960000000 1.0
C      1  0.5389310000000  0.6175710000000  0.5338370000000 1.0
C      1  0.6232540000000  0.5483460000000  0.5289690000000 1.0
C      1  0.4731490000000  0.5013510000000  0.5636450000000 1.0
C      1  0.4773240000000  0.5333570000000  0.5613720000000 1.0
C      1  0.5071190000000  0.5395220000000  0.5602260000000 1.0
C      1  0.5267600000000  0.5134680000000  0.5655710000000 1.0
C      1  0.5360450000000  0.4823670000000  0.5585770000000 1.0
C      1  0.5111490000000  0.4619150000000  0.5582610000000 1.0
C      1  0.4792430000000  0.4710940000000  0.5571140000000 1.0
C      1  0.4663250000000  0.4831530000000  0.4650410000000 1.0
C      1  0.4687420000000  0.5157400000000  0.4610590000000 1.0
C      1  0.4929310000000  0.5305690000000  0.4703960000000 1.0
C      1  0.5311300000000  0.5384060000000  0.4790170000000 1.0
C      1  0.5628060000000  0.4782940000000  0.4736250000000 1.0
C      1  0.5234850000000  0.4838820000000  0.4740910000000 1.0
C      1  0.5014870000000  0.4649780000000  0.4646280000000 1.0
C      1  0.4080320000000  0.4891080000000  0.5535670000000 1.0
C      1  0.4302810000000  0.5576970000000  0.5610520000000 1.0
C      1  0.4987700000000  0.5839240000000  0.5586070000000 1.0
C      1  0.5755450000000  0.5637010000000  0.5656160000000 1.0
C      1  0.5903140000000  0.4625460000000  0.5616720000000 1.0
C      1  0.5377430000000  0.4170730000000  0.5582290000000 1.0
C      1  0.4512090000000  0.4167580000000  0.5501460000000 1.0
C      1  0.5079040000000  0.5302330000000  0.6037510000000 1.0
C      1  0.5308150000000  0.5123310000000  0.6051060000000 1.0
C      1  0.5276160000000  0.4833340000000  0.6026630000000 1.0
C      1  0.5036730000000  0.4668610000000  0.5993130000000 1.0
C      1  0.4755700000000  0.4745300000000  0.5985200000000 1.0
C      1  0.4632350000000  0.5009920000000  0.6022210000000 1.0
C      1  0.4790910000000  0.5256830000000  0.6030220000000 1.0
C      1  0.5075610000000  0.4650950000000  0.4323880000000 1.0
C      1  0.4765270000000  0.4729340000000  0.4344680000000 1.0
C      1  0.4770000000000  0.5042940000000  0.4328550000000 1.0
C      1  0.4987900000000  0.5180540000000  0.4170520000000 1.0
C      1  0.5206080000000  0.5371160000000  0.4316630000000 1.0
C      1  0.5364760000000  0.5092570000000  0.4359070000000 1.0
C      1  0.5275180000000  0.4839850000000  0.4249860000000 1.0
C      1  0.4286930000000  0.4829130000000  0.4332980000000 1.0
C      1  0.4400520000000  0.5346680000000  0.4406240000000 1.0
C      1  0.4817070000000  0.5665040000000  0.4262710000000 1.0
C      1  0.5618740000000  0.5279700000000  0.4113950000000 1.0
C      1  0.5660370000000  0.4697290000000  0.4151270000000 1.0
C      1  0.5305360000000  0.4282090000000  0.4244420000000 1.0
C      1  0.4763610000000  0.4280050000000  0.4308740000000 1.0
C      1  0.5368020000000  0.5559740000000  0.4544570000000 1.0
C      1  0.5788420000000  0.4935870000000  0.4578530000000 1.0
C      1  0.5403320000000  0.4566260000000  0.4612800000000 1.0
C      1  0.5075550000000  0.4356340000000  0.4758710000000 1.0
C      1  0.4726430000000  0.4543410000000  0.4794910000000 1.0
C      1  0.4441880000000  0.5009020000000  0.4802550000000 1.0
C      1  0.4852390000000  0.5620440000000  0.4724870000000 1.0
C      1  0.4176260000000  0.5660980000000  0.4883990000000 1.0
C      1  0.4956870000000  0.6074900000000  0.4928730000000 1.0
C      1  0.5793770000000  0.5685390000000  0.4852210000000 1.0
C      1  0.6095280000000  0.4817460000000  0.4915830000000 1.0
C      1  0.5526900000000  0.4178000000000  0.4887280000000 1.0
C      1  0.4550210000000  0.4069400000000  0.4855690000000 1.0
C      1  0.3989530000000  0.4793940000000  0.4861240000000 1.0
C      1  0.5851520000000  0.5411640000000  0.4568380000000 1.0
C      1  0.5891210000000  0.4438980000000  0.4558380000000 1.0
C      1  0.5148000000000  0.3992420000000  0.4615240000000 1.0
C      1  0.4331260000000  0.4329110000000  0.4535730000000 1.0
C      1  0.3977300000000  0.5115700000000  0.4601260000000 1.0
C      1  0.4432160000000  0.5840420000000  0.4625440000000 1.0
C      1  0.5242750000000  0.5937490000000  0.4515720000000 1.0
C      1  0.5209260000000  0.5124740000000  0.4630710000000 1.0
END
