TITL C-2782230-7391-241 -0.000490678662254915 125000 -969.319826422999 0 0 170 (C1) n - 1
REM
REM in /home/nfs/bkarasulu/CARBON/AIRSS/Generating-Clusters/REBO/Higher-Symm/SD-CG/HFTN-CG
REM
REM
REM
REM
REM
REM ./C.cell (12c818d87b63d06a65506943cc24bca4)
REM
REM compiler GCC version 9.2.1 20190827 (Red Hat 9.2.1-1)
REM options -cpp -mtune=generic -march=x86-64 -g -O0 -fpre-include=/usr/include/finclude/math-vector-fortran.h
REM seed 1262121053 -946105101 112752355 -1478300718 1809517243 -345284302 -429636454 -563421937 -1280940943 657879641 398141167 988078970 305055514 985319150 1309520552 -315882344 -1867341155 -1337522816 1245092436 -1406446315 115985260 662772598 -102326752 -1862161915 1386665722 -593758535 -36519348 1281482882 -225912149 -485145172 1476448457 437075096 -1028417468
REM
CELL 1.54180   50.00000   50.00000   50.00000   90.00000   90.00000   90.00000
LATT -1
SFAC C  
C      1  0.5254320000000  0.3950750000000  0.4913490000000 1.0
C      1  0.5086430000000  0.6035550000000  0.5145140000000 1.0
C      1  0.5026240000000  0.3944520000000  0.5147080000000 1.0
C      1  0.4760110000000  0.5992320000000  0.5095570000000 1.0
C      1  0.4932170000000  0.4019770000000  0.4826080000000 1.0
C      1  0.4963260000000  0.6065890000000  0.4842900000000 1.0
C      1  0.4132250000000  0.5203670000000  0.5405430000000 1.0
C      1  0.4164190000000  0.4783630000000  0.4426520000000 1.0
C      1  0.5245550000000  0.5137170000000  0.4083770000000 1.0
C      1  0.5883040000000  0.4747150000000  0.4618720000000 1.0
C      1  0.5846890000000  0.5240060000000  0.5514260000000 1.0
C      1  0.4770570000000  0.4775380000000  0.5873710000000 1.0
C      1  0.5278290000000  0.4433830000000  0.4847720000000 1.0
C      1  0.5375280000000  0.5524380000000  0.5174970000000 1.0
C      1  0.5008260000000  0.4497230000000  0.5345250000000 1.0
C      1  0.4695280000000  0.5602780000000  0.5191570000000 1.0
C      1  0.4618030000000  0.4479930000000  0.4814230000000 1.0
C      1  0.4953350000000  0.5502570000000  0.4594990000000 1.0
C      1  0.4920660000000  0.5040570000000  0.4036250000000 1.0
C      1  0.5867000000000  0.4960860000000  0.4373240000000 1.0
C      1  0.5967680000000  0.4946790000000  0.5374580000000 1.0
C      1  0.5049800000000  0.4858650000000  0.5975120000000 1.0
C      1  0.4207680000000  0.4975390000000  0.5645590000000 1.0
C      1  0.4033740000000  0.5042260000000  0.4609560000000 1.0
C      1  0.4673040000000  0.4811540000000  0.4085580000000 1.0
C      1  0.5787060000000  0.5238760000000  0.4265190000000 1.0
C      1  0.5978930000000  0.4713130000000  0.5137760000000 1.0
C      1  0.5400950000000  0.5277610000000  0.5865070000000 1.0
C      1  0.4399350000000  0.4726190000000  0.5733140000000 1.0
C      1  0.4001900000000  0.5277980000000  0.4849820000000 1.0
C      1  0.4890590000000  0.5565450000000  0.4207200000000 1.0
C      1  0.5662600000000  0.4389350000000  0.4527650000000 1.0
C      1  0.5716700000000  0.5527220000000  0.5380480000000 1.0
C      1  0.5131140000000  0.4427100000000  0.5735880000000 1.0
C      1  0.4331990000000  0.5592950000000  0.5534030000000 1.0
C      1  0.4258140000000  0.4483960000000  0.4643880000000 1.0
C      1  0.4252860000000  0.5734900000000  0.5250920000000 1.0
C      1  0.4475380000000  0.4306760000000  0.4483260000000 1.0
C      1  0.5058330000000  0.5840220000000  0.4306420000000 1.0
C      1  0.5731540000000  0.4246020000000  0.4828840000000 1.0
C      1  0.5508220000000  0.5782350000000  0.5466490000000 1.0
C      1  0.4880680000000  0.4255440000000  0.5636510000000 1.0
C      1  0.4280430000000  0.4366180000000  0.5166630000000 1.0
C      1  0.4414670000000  0.5618540000000  0.4460890000000 1.0
C      1  0.5157030000000  0.4384740000000  0.4320260000000 1.0
C      1  0.5714790000000  0.5605560000000  0.4792280000000 1.0
C      1  0.5568740000000  0.4397020000000  0.5537670000000 1.0
C      1  0.4837200000000  0.5615550000000  0.5730210000000 1.0
C      1  0.5362280000000  0.4221640000000  0.5713750000000 1.0
C      1  0.4631680000000  0.5713260000000  0.5483860000000 1.0
C      1  0.4378400000000  0.4281800000000  0.4870690000000 1.0
C      1  0.4734010000000  0.5699510000000  0.4478210000000 1.0
C      1  0.5352620000000  0.4289720000000  0.4569670000000 1.0
C      1  0.5630140000000  0.5696560000000  0.5096900000000 1.0
C      1  0.5034610000000  0.4719060000000  0.5583790000000 1.0
C      1  0.4462080000000  0.5398670000000  0.5294420000000 1.0
C      1  0.4472960000000  0.4748840000000  0.4665120000000 1.0
C      1  0.5021740000000  0.5293610000000  0.4371670000000 1.0
C      1  0.5515350000000  0.4626380000000  0.4710280000000 1.0
C      1  0.5502180000000  0.5272590000000  0.5326930000000 1.0
C      1  0.4774570000000  0.4995930000000  0.4752710000000 1.0
C      1  0.5216930000000  0.5050480000000  0.4714690000000 1.0
C      1  0.5400500000000  0.4920590000000  0.4955420000000 1.0
C      1  0.5198660000000  0.5013440000000  0.5284000000000 1.0
C      1  0.4811060000000  0.4984580000000  0.5373420000000 1.0
C      1  0.4644090000000  0.5114160000000  0.5017340000000 1.0
C      1  0.4710480000000  0.5641550000000  0.4874470000000 1.0
C      1  0.4899190000000  0.4344870000000  0.4769670000000 1.0
C      1  0.5229860000000  0.5621690000000  0.4718200000000 1.0
C      1  0.5295540000000  0.4305490000000  0.5156180000000 1.0
C      1  0.5090900000000  0.5643140000000  0.5213880000000 1.0
C      1  0.4705750000000  0.4360440000000  0.5292760000000 1.0
C      1  0.5134320000000  0.5024020000000  0.5606000000000 1.0
C      1  0.4523500000000  0.5133810000000  0.5396630000000 1.0
C      1  0.4382990000000  0.5011890000000  0.4823050000000 1.0
C      1  0.4898300000000  0.5029360000000  0.4438790000000 1.0
C      1  0.5506150000000  0.4903320000000  0.4577510000000 1.0
C      1  0.5613110000000  0.5030280000000  0.5166770000000 1.0
C      1  0.5707690000000  0.4663030000000  0.4331590000000 1.0
C      1  0.6000670000000  0.5225560000000  0.5207680000000 1.0
C      1  0.5277560000000  0.4689840000000  0.5894830000000 1.0
C      1  0.4308880000000  0.5293920000000  0.5691570000000 1.0
C      1  0.4058660000000  0.4737610000000  0.4751420000000 1.0
C      1  0.4718260000000  0.5302810000000  0.4113760000000 1.0
C      1  0.4048330000000  0.5503370000000  0.5094000000000 1.0
C      1  0.4613170000000  0.4515510000000  0.4249340000000 1.0
C      1  0.5516900000000  0.5275900000000  0.4201930000000 1.0
C      1  0.5922570000000  0.4531240000000  0.4852010000000 1.0
C      1  0.5413490000000  0.5554590000000  0.5703940000000 1.0
C      1  0.4660640000000  0.4500410000000  0.5741730000000 1.0
C      1  0.4015980000000  0.4788100000000  0.5056010000000 1.0
C      1  0.4463610000000  0.5315130000000  0.4208370000000 1.0
C      1  0.5464580000000  0.4681860000000  0.4093750000000 1.0
C      1  0.6039890000000  0.5251820000000  0.4937220000000 1.0
C      1  0.5550540000000  0.4715410000000  0.5807670000000 1.0
C      1  0.4547390000000  0.5253620000000  0.5934070000000 1.0
C      1  0.4681640000000  0.4060230000000  0.4598640000000 1.0
C      1  0.5092850000000  0.6022890000000  0.4592540000000 1.0
C      1  0.5531440000000  0.3985440000000  0.4928420000000 1.0
C      1  0.5246630000000  0.5979210000000  0.5368400000000 1.0
C      1  0.4883980000000  0.4018000000000  0.5385350000000 1.0
C      1  0.4487500000000  0.5931810000000  0.5096100000000 1.0
C      1  0.5156870000000  0.4071170000000  0.4395060000000 1.0
C      1  0.5594010000000  0.5907890000000  0.4835170000000 1.0
C      1  0.5551530000000  0.4064100000000  0.5498930000000 1.0
C      1  0.4832930000000  0.5931290000000  0.5652340000000 1.0
C      1  0.4404150000000  0.4060020000000  0.5114840000000 1.0
C      1  0.4494500000000  0.5920130000000  0.4568890000000 1.0
C      1  0.4998540000000  0.4531040000000  0.4550370000000 1.0
C      1  0.5486770000000  0.5413860000000  0.4708640000000 1.0
C      1  0.5407100000000  0.4571310000000  0.5345450000000 1.0
C      1  0.4970620000000  0.5502390000000  0.5461150000000 1.0
C      1  0.4491260000000  0.4603850000000  0.5257310000000 1.0
C      1  0.4529420000000  0.5433240000000  0.4694720000000 1.0
C      1  0.4366870000000  0.5469620000000  0.4975220000000 1.0
C      1  0.4741890000000  0.4724690000000  0.4465550000000 1.0
C      1  0.5333490000000  0.5376940000000  0.4419790000000 1.0
C      1  0.5640140000000  0.4582170000000  0.5020990000000 1.0
C      1  0.5238670000000  0.5336670000000  0.5509570000000 1.0
C      1  0.4704680000000  0.4708020000000  0.5485030000000 1.0
C      1  0.4190070000000  0.5152290000000  0.4329370000000 1.0
C      1  0.5191100000000  0.4843650000000  0.3952460000000 1.0
C      1  0.5982160000000  0.5134470000000  0.4633960000000 1.0
C      1  0.5813670000000  0.4863170000000  0.5643640000000 1.0
C      1  0.4835430000000  0.5112670000000  0.6064180000000 1.0
C      1  0.4013630000000  0.4884680000000  0.5384470000000 1.0
C      1  0.5162320000000  0.4528520000000  0.4066170000000 1.0
C      1  0.5958660000000  0.5469940000000  0.4697700000000 1.0
C      1  0.5815060000000  0.4542400000000  0.5621790000000 1.0
C      1  0.4842990000000  0.5423200000000  0.5939710000000 1.0
C      1  0.4095170000000  0.4567690000000  0.5298250000000 1.0
C      1  0.4174540000000  0.5476350000000  0.4355210000000 1.0
C      1  0.5634220000000  0.3972070000000  0.5233650000000 1.0
C      1  0.5093800000000  0.6034680000000  0.5636040000000 1.0
C      1  0.4569530000000  0.3973090000000  0.5320950000000 1.0
C      1  0.4365940000000  0.5982900000000  0.4811100000000 1.0
C      1  0.4895390000000  0.3976760000000  0.4364310000000 1.0
C      1  0.5411790000000  0.5984780000000  0.4641210000000 1.0
C      1  0.4878920000000  0.4598210000000  0.3965970000000 1.0
C      1  0.5944200000000  0.5436910000000  0.4375340000000 1.0
C      1  0.6013260000000  0.4550160000000  0.5396170000000 1.0
C      1  0.5134490000000  0.5237950000000  0.5959900000000 1.0
C      1  0.4167510000000  0.4582060000000  0.5593980000000 1.0
C      1  0.3971370000000  0.5435030000000  0.4583490000000 1.0
C      1  0.5160490000000  0.5262570000000  0.5124410000000 1.0
C      1  0.4988800000000  0.4788410000000  0.5194210000000 1.0
C      1  0.4840590000000  0.5331710000000  0.5088820000000 1.0
C      1  0.4820910000000  0.4725520000000  0.4857150000000 1.0
C      1  0.5042260000000  0.5284110000000  0.4817600000000 1.0
C      1  0.5260660000000  0.4688120000000  0.5061160000000 1.0
C      1  0.5376180000000  0.4914260000000  0.4297020000000 1.0
C      1  0.5806850000000  0.4907270000000  0.4912140000000 1.0
C      1  0.5588830000000  0.5094900000000  0.5688880000000 1.0
C      1  0.4599320000000  0.5019780000000  0.5710450000000 1.0
C      1  0.4171640000000  0.5092200000000  0.5082810000000 1.0
C      1  0.4443960000000  0.4926770000000  0.4293010000000 1.0
C      1  0.5330800000000  0.5875900000000  0.5741830000000 1.0
C      1  0.4569590000000  0.4184050000000  0.5551160000000 1.0
C      1  0.4180570000000  0.5755870000000  0.4918390000000 1.0
C      1  0.4684630000000  0.4185040000000  0.4244370000000 1.0
C      1  0.5333260000000  0.5755700000000  0.4428290000000 1.0
C      1  0.5622440000000  0.4296670000000  0.5152310000000 1.0
C      1  0.4448360000000  0.4897890000000  0.5194850000000 1.0
C      1  0.4531110000000  0.5128130000000  0.4553700000000 1.0
C      1  0.5128450000000  0.4814920000000  0.4493500000000 1.0
C      1  0.5596800000000  0.5145490000000  0.4785090000000 1.0
C      1  0.5472050000000  0.4891650000000  0.5439570000000 1.0
C      1  0.4870590000000  0.5215040000000  0.5599580000000 1.0
C      1  0.5001140000000  0.5682660000000  0.4946510000000 1.0
C      1  0.4966440000000  0.4329690000000  0.5074070000000 1.0
END
