TITL C-2782237-5345-1292 0.00188368074916361 125000 -827.352007835365 0 0 140 (C1) n - 1
REM
REM in /home/nfs/bkarasulu/CARBON/AIRSS/Generating-Clusters/REBO/Higher-Symm/SD-CG/HFTN-CG
REM
REM
REM
REM
REM
REM ./C.cell (12c818d87b63d06a65506943cc24bca4)
REM
REM compiler GCC version 9.2.1 20190827 (Red Hat 9.2.1-1)
REM options -cpp -mtune=generic -march=x86-64 -g -O0 -fpre-include=/usr/include/finclude/math-vector-fortran.h
REM seed 1710341967 -274616636 422326463 -774743126 595720372 -1058345676 1853307706 1523250452 -331946939 1048660815 -2020366874 1589196453 -491618132 192560385 -1995253864 -532696718 -1711042753 -1304011971 771713095 1446188122 123256811 -573386462 -37583412 1664403629 -1636523140 -239788715 -43348463 -1976030469 -1585227065 2093281940 1444244168 -1658922424 -1782150709
REM
CELL 1.54180   50.00000   50.00000   50.00000   90.00000   90.00000   90.00000
LATT -1
SFAC C  
C      1  0.4782890000000  0.4240640000000  0.4898260000000 1.0
C      1  0.4636940000000  0.5442520000000  0.5728350000000 1.0
C      1  0.4710080000000  0.5503130000000  0.4303800000000 1.0
C      1  0.5486460000000  0.5383430000000  0.4214750000000 1.0
C      1  0.5493140000000  0.4205310000000  0.5122620000000 1.0
C      1  0.5507490000000  0.5443070000000  0.5748140000000 1.0
C      1  0.5514490000000  0.5121950000000  0.6369730000000 1.0
C      1  0.5423790000000  0.6163980000000  0.4235330000000 1.0
C      1  0.5436820000000  0.3900340000000  0.4230330000000 1.0
C      1  0.4445970000000  0.5594050000000  0.5539460000000 1.0
C      1  0.4364430000000  0.5127270000000  0.4175190000000 1.0
C      1  0.4517630000000  0.4411000000000  0.5286410000000 1.0
C      1  0.4557940000000  0.5803290000000  0.5376410000000 1.0
C      1  0.4585270000000  0.4904570000000  0.4161980000000 1.0
C      1  0.4489340000000  0.4204950000000  0.5557150000000 1.0
C      1  0.5426560000000  0.4336630000000  0.5919520000000 1.0
C      1  0.5367920000000  0.6000990000000  0.5123020000000 1.0
C      1  0.5246560000000  0.4617210000000  0.3967970000000 1.0
C      1  0.4910940000000  0.4874170000000  0.4754810000000 1.0
C      1  0.4920910000000  0.4784740000000  0.5251100000000 1.0
C      1  0.5026310000000  0.5235360000000  0.5030080000000 1.0
C      1  0.5407260000000  0.4733140000000  0.4206010000000 1.0
C      1  0.5583930000000  0.4457800000000  0.5692340000000 1.0
C      1  0.5574600000000  0.5801380000000  0.5212030000000 1.0
C      1  0.5653900000000  0.5003690000000  0.5443200000000 1.0
C      1  0.5749910000000  0.5324070000000  0.4666810000000 1.0
C      1  0.5806370000000  0.4530230000000  0.4844150000000 1.0
C      1  0.5939130000000  0.4677000000000  0.5117110000000 1.0
C      1  0.5848070000000  0.5164970000000  0.5283700000000 1.0
C      1  0.5933790000000  0.5093300000000  0.4819850000000 1.0
C      1  0.5212580000000  0.5457950000000  0.4105100000000 1.0
C      1  0.5216410000000  0.4075600000000  0.5121700000000 1.0
C      1  0.5240380000000  0.5556840000000  0.5864040000000 1.0
C      1  0.5110440000000  0.4890100000000  0.3815850000000 1.0
C      1  0.5267590000000  0.4227760000000  0.5608890000000 1.0
C      1  0.5239540000000  0.5864330000000  0.5416220000000 1.0
C      1  0.5106150000000  0.4932870000000  0.5683170000000 1.0
C      1  0.5103030000000  0.5685970000000  0.4619240000000 1.0
C      1  0.5166140000000  0.4312690000000  0.4513430000000 1.0
C      1  0.4943700000000  0.5481860000000  0.5723430000000 1.0
C      1  0.4913090000000  0.5312900000000  0.4189950000000 1.0
C      1  0.4953140000000  0.4274180000000  0.5136370000000 1.0
C      1  0.4258710000000  0.4840860000000  0.4543700000000 1.0
C      1  0.4206090000000  0.4636340000000  0.5390170000000 1.0
C      1  0.4291790000000  0.5500580000000  0.5086060000000 1.0
C      1  0.5604060000000  0.4643350000000  0.5099280000000 1.0
C      1  0.5696630000000  0.5427790000000  0.5139410000000 1.0
C      1  0.5686300000000  0.4999560000000  0.4626960000000 1.0
C      1  0.4682960000000  0.4621120000000  0.5092510000000 1.0
C      1  0.4764790000000  0.5202730000000  0.5255160000000 1.0
C      1  0.4726700000000  0.5088780000000  0.4703480000000 1.0
C      1  0.4145590000000  0.5377960000000  0.4833240000000 1.0
C      1  0.4103450000000  0.4671250000000  0.4739300000000 1.0
C      1  0.4116430000000  0.4939260000000  0.5387980000000 1.0
C      1  0.4441690000000  0.5780340000000  0.5101010000000 1.0
C      1  0.4408750000000  0.4691950000000  0.4323070000000 1.0
C      1  0.4328200000000  0.4497540000000  0.5627530000000 1.0
C      1  0.4655640000000  0.4115730000000  0.4600990000000 1.0
C      1  0.4719420000000  0.5162980000000  0.5892230000000 1.0
C      1  0.4581530000000  0.5801450000000  0.4531230000000 1.0
C      1  0.5539120000000  0.5478160000000  0.4519170000000 1.0
C      1  0.5546760000000  0.4339170000000  0.4846310000000 1.0
C      1  0.5482980000000  0.5141390000000  0.5664220000000 1.0
C      1  0.4451550000000  0.5009340000000  0.4727870000000 1.0
C      1  0.4408860000000  0.4772590000000  0.5154580000000 1.0
C      1  0.4488370000000  0.5243690000000  0.5134440000000 1.0
C      1  0.5159140000000  0.5749240000000  0.4228500000000 1.0
C      1  0.5144170000000  0.3941310000000  0.4868570000000 1.0
C      1  0.5180070000000  0.5269700000000  0.6028650000000 1.0
C      1  0.4991580000000  0.5096450000000  0.5892410000000 1.0
C      1  0.4885310000000  0.5761760000000  0.4399510000000 1.0
C      1  0.4982630000000  0.4119000000000  0.4652480000000 1.0
C      1  0.5712600000000  0.5410560000000  0.5478890000000 1.0
C      1  0.5622850000000  0.5130130000000  0.4343270000000 1.0
C      1  0.5777890000000  0.4384470000000  0.5211240000000 1.0
C      1  0.4718210000000  0.4440700000000  0.5564090000000 1.0
C      1  0.4908760000000  0.5465490000000  0.5331640000000 1.0
C      1  0.4894420000000  0.4918290000000  0.4305890000000 1.0
C      1  0.4741220000000  0.5593810000000  0.4916650000000 1.0
C      1  0.4765010000000  0.4496570000000  0.4551430000000 1.0
C      1  0.4700110000000  0.4817210000000  0.5695920000000 1.0
C      1  0.4863760000000  0.5671180000000  0.5155960000000 1.0
C      1  0.4956760000000  0.4627370000000  0.4382800000000 1.0
C      1  0.4818980000000  0.4534760000000  0.5854110000000 1.0
C      1  0.4808520000000  0.5896500000000  0.5487410000000 1.0
C      1  0.4848600000000  0.4976370000000  0.3985040000000 1.0
C      1  0.4791220000000  0.4048060000000  0.5549540000000 1.0
C      1  0.4523400000000  0.4458850000000  0.4407400000000 1.0
C      1  0.4451900000000  0.4676540000000  0.5794200000000 1.0
C      1  0.4569670000000  0.5819060000000  0.4814350000000 1.0
C      1  0.5074110000000  0.5785880000000  0.5669400000000 1.0
C      1  0.5075270000000  0.5216460000000  0.3906630000000 1.0
C      1  0.5050060000000  0.4108870000000  0.5418760000000 1.0
C      1  0.4953600000000  0.4491390000000  0.5355480000000 1.0
C      1  0.5177190000000  0.5407250000000  0.5479200000000 1.0
C      1  0.5117920000000  0.5156660000000  0.4400970000000 1.0
C      1  0.4260480000000  0.5151140000000  0.5508440000000 1.0
C      1  0.4251240000000  0.5373070000000  0.4565630000000 1.0
C      1  0.4242310000000  0.4447790000000  0.4859810000000 1.0
C      1  0.5054710000000  0.4642030000000  0.5638630000000 1.0
C      1  0.5192120000000  0.5897740000000  0.4850270000000 1.0
C      1  0.5122010000000  0.4455540000000  0.4209420000000 1.0
C      1  0.5286310000000  0.4518840000000  0.4738960000000 1.0
C      1  0.5237370000000  0.5092550000000  0.5445110000000 1.0
C      1  0.5234910000000  0.5384290000000  0.4602310000000 1.0
C      1  0.4471230000000  0.4308850000000  0.4773690000000 1.0
C      1  0.4474220000000  0.5147670000000  0.5691300000000 1.0
C      1  0.4436450000000  0.5548930000000  0.4439400000000 1.0
C      1  0.3928100000000  0.4839130000000  0.4887890000000 1.0
C      1  0.3947100000000  0.4993280000000  0.5171920000000 1.0
C      1  0.3972630000000  0.5166890000000  0.4903150000000 1.0
C      1  0.5536620000000  0.4747730000000  0.5630340000000 1.0
C      1  0.5470890000000  0.5745450000000  0.4808730000000 1.0
C      1  0.5515100000000  0.4599560000000  0.4423190000000 1.0
C      1  0.5495080000000  0.5498090000000  0.4963760000000 1.0
C      1  0.5489180000000  0.4790980000000  0.4678240000000 1.0
C      1  0.5457770000000  0.4793280000000  0.5298440000000 1.0
C      1  0.4797040000000  0.5324110000000  0.4851730000000 1.0
C      1  0.4764250000000  0.4627690000000  0.4803040000000 1.0
C      1  0.4775320000000  0.4961040000000  0.5462010000000 1.0
C      1  0.5547040000000  0.5786530000000  0.4523210000000 1.0
C      1  0.5564090000000  0.4338920000000  0.4515780000000 1.0
C      1  0.5483790000000  0.4938730000000  0.5907580000000 1.0
C      1  0.4229390000000  0.5131610000000  0.4418700000000 1.0
C      1  0.4221430000000  0.4424300000000  0.5140160000000 1.0
C      1  0.4256510000000  0.5423540000000  0.5402200000000 1.0
C      1  0.5402610000000  0.5108240000000  0.6123980000000 1.0
C      1  0.5383530000000  0.5909220000000  0.4321460000000 1.0
C      1  0.5411350000000  0.4125130000000  0.4378250000000 1.0
C      1  0.5444410000000  0.5592400000000  0.5401960000000 1.0
C      1  0.5365370000000  0.5006190000000  0.4259900000000 1.0
C      1  0.5559130000000  0.4277130000000  0.5440430000000 1.0
C      1  0.5196130000000  0.4900840000000  0.5167050000000 1.0
C      1  0.5267460000000  0.5311680000000  0.4911430000000 1.0
C      1  0.5200480000000  0.4829220000000  0.4855320000000 1.0
C      1  0.5049330000000  0.5892280000000  0.5147360000000 1.0
C      1  0.5246800000000  0.4664590000000  0.3631640000000 1.0
C      1  0.5118260000000  0.4397550000000  0.5864260000000 1.0
C      1  0.5981400000000  0.4988510000000  0.5079910000000 1.0
C      1  0.4382140000000  0.5012400000000  0.5007380000000 1.0
END
