TITL C-2782230-7391-817 0.00647349851431582 125000 -843.372839752648 0 0 143 (C1) n - 1
REM
REM in /home/nfs/bkarasulu/CARBON/AIRSS/Generating-Clusters/REBO/Higher-Symm/SD-CG/HFTN-CG
REM
REM
REM
REM
REM
REM ./C.cell (12c818d87b63d06a65506943cc24bca4)
REM
REM compiler GCC version 9.2.1 20190827 (Red Hat 9.2.1-1)
REM options -cpp -mtune=generic -march=x86-64 -g -O0 -fpre-include=/usr/include/finclude/math-vector-fortran.h
REM seed -597143503 -1962412758 1017214655 -1466581954 121757622 1976912886 -1282138529 -438200056 -814272216 -708578115 -996559462 -81921338 643779205 963483503 932552971 -1572609320 -1452916768 730470512 -120677348 -724344883 -1349058467 155085417 -374173358 1282743906 -2053989677 -1931050343 2143629857 316146991 -760855903 1491780667 1013489393 -1251970465 1472573086
REM
CELL 1.54180   50.00000   50.00000   50.00000   90.00000   90.00000   90.00000
LATT -1
SFAC C  
C      1  0.5646690000000  0.4139250000000  0.5281060000000 1.0
C      1  0.4559450000000  0.5881060000000  0.4765830000000 1.0
C      1  0.4939420000000  0.4518420000000  0.4762550000000 1.0
C      1  0.5000660000000  0.5530240000000  0.5269930000000 1.0
C      1  0.4609730000000  0.5339870000000  0.5080320000000 1.0
C      1  0.5258980000000  0.4611540000000  0.4736010000000 1.0
C      1  0.4879980000000  0.5280660000000  0.5949910000000 1.0
C      1  0.5108990000000  0.4745950000000  0.4029720000000 1.0
C      1  0.5657850000000  0.5127890000000  0.4742150000000 1.0
C      1  0.4378890000000  0.4808530000000  0.5153710000000 1.0
C      1  0.5624770000000  0.4661670000000  0.4497720000000 1.0
C      1  0.4388850000000  0.5359080000000  0.5486730000000 1.0
C      1  0.5316250000000  0.5349840000000  0.4026970000000 1.0
C      1  0.4663650000000  0.4680400000000  0.5943580000000 1.0
C      1  0.5188450000000  0.5306970000000  0.4630270000000 1.0
C      1  0.4921320000000  0.4647960000000  0.5377340000000 1.0
C      1  0.5072770000000  0.5880200000000  0.5591810000000 1.0
C      1  0.4945610000000  0.4118800000000  0.4374380000000 1.0
C      1  0.5312990000000  0.5305150000000  0.5750140000000 1.0
C      1  0.4679200000000  0.4695710000000  0.4209910000000 1.0
C      1  0.4590450000000  0.5599590000000  0.5621400000000 1.0
C      1  0.5394730000000  0.4440950000000  0.4372820000000 1.0
C      1  0.4335090000000  0.5304630000000  0.5096640000000 1.0
C      1  0.5414540000000  0.4707850000000  0.4963750000000 1.0
C      1  0.4408510000000  0.5693310000000  0.4565890000000 1.0
C      1  0.5645350000000  0.4287210000000  0.5510100000000 1.0
C      1  0.5516610000000  0.5404070000000  0.5570880000000 1.0
C      1  0.4524850000000  0.4581420000000  0.4455700000000 1.0
C      1  0.3971480000000  0.5028020000000  0.4849470000000 1.0
C      1  0.5914320000000  0.4929230000000  0.5171690000000 1.0
C      1  0.5213380000000  0.5327610000000  0.4949290000000 1.0
C      1  0.4891150000000  0.4765530000000  0.5070360000000 1.0
C      1  0.3942540000000  0.5315800000000  0.5032030000000 1.0
C      1  0.5919590000000  0.4626730000000  0.5009840000000 1.0
C      1  0.4976280000000  0.5032480000000  0.4080750000000 1.0
C      1  0.5001930000000  0.4979420000000  0.5933500000000 1.0
C      1  0.4829100000000  0.4165980000000  0.5495120000000 1.0
C      1  0.5170990000000  0.5795100000000  0.4483630000000 1.0
C      1  0.5077420000000  0.5428820000000  0.3927390000000 1.0
C      1  0.4892130000000  0.4594200000000  0.6056840000000 1.0
C      1  0.5114430000000  0.4019770000000  0.5372340000000 1.0
C      1  0.4842190000000  0.5949560000000  0.4644850000000 1.0
C      1  0.4715310000000  0.5153430000000  0.4895280000000 1.0
C      1  0.5263050000000  0.4939400000000  0.5114570000000 1.0
C      1  0.4337380000000  0.4272240000000  0.5049540000000 1.0
C      1  0.5673850000000  0.5689030000000  0.4934290000000 1.0
C      1  0.4770960000000  0.4017330000000  0.4874310000000 1.0
C      1  0.5185040000000  0.5957930000000  0.5111460000000 1.0
C      1  0.4493150000000  0.5018180000000  0.4751470000000 1.0
C      1  0.5537260000000  0.4992230000000  0.5302220000000 1.0
C      1  0.5336300000000  0.4831660000000  0.4434870000000 1.0
C      1  0.4694770000000  0.5222340000000  0.5553410000000 1.0
C      1  0.5157000000000  0.5978300000000  0.4771890000000 1.0
C      1  0.4823100000000  0.3986840000000  0.5198760000000 1.0
C      1  0.4549520000000  0.5772410000000  0.5327710000000 1.0
C      1  0.5480240000000  0.4269020000000  0.4655110000000 1.0
C      1  0.5910980000000  0.5312730000000  0.5274640000000 1.0
C      1  0.4133310000000  0.4677630000000  0.4760010000000 1.0
C      1  0.4878230000000  0.4419320000000  0.5053830000000 1.0
C      1  0.5120450000000  0.5645510000000  0.4989110000000 1.0
C      1  0.4732730000000  0.5557650000000  0.4251540000000 1.0
C      1  0.5271410000000  0.4442820000000  0.5761600000000 1.0
C      1  0.4483200000000  0.4907630000000  0.5444880000000 1.0
C      1  0.5643700000000  0.5081950000000  0.4464950000000 1.0
C      1  0.5085160000000  0.4344100000000  0.4268620000000 1.0
C      1  0.4915340000000  0.5663760000000  0.5683100000000 1.0
C      1  0.5488540000000  0.5681390000000  0.5458780000000 1.0
C      1  0.4515240000000  0.4274750000000  0.4522230000000 1.0
C      1  0.5336250000000  0.3989650000000  0.4792750000000 1.0
C      1  0.4726010000000  0.6033380000000  0.5321000000000 1.0
C      1  0.4259460000000  0.5626780000000  0.4818710000000 1.0
C      1  0.5481760000000  0.4481920000000  0.5161310000000 1.0
C      1  0.5349830000000  0.5853930000000  0.5640700000000 1.0
C      1  0.4663990000000  0.4121210000000  0.4332900000000 1.0
C      1  0.5599100000000  0.5303150000000  0.4148050000000 1.0
C      1  0.4402420000000  0.4714610000000  0.5780130000000 1.0
C      1  0.4421790000000  0.5190810000000  0.4379520000000 1.0
C      1  0.5588210000000  0.4816120000000  0.5685660000000 1.0
C      1  0.4686680000000  0.4442450000000  0.5426810000000 1.0
C      1  0.5376390000000  0.5539710000000  0.4538840000000 1.0
C      1  0.5186000000000  0.5334170000000  0.5355840000000 1.0
C      1  0.4729770000000  0.4710300000000  0.4655990000000 1.0
C      1  0.5840930000000  0.4588250000000  0.4750220000000 1.0
C      1  0.4104640000000  0.5405900000000  0.5300820000000 1.0
C      1  0.4891850000000  0.5654130000000  0.4765950000000 1.0
C      1  0.5110610000000  0.4309730000000  0.5214970000000 1.0
C      1  0.5016540000000  0.4015780000000  0.4683200000000 1.0
C      1  0.4997050000000  0.6011940000000  0.5350260000000 1.0
C      1  0.4411430000000  0.5789020000000  0.5040090000000 1.0
C      1  0.5509640000000  0.4206090000000  0.4989890000000 1.0
C      1  0.5924260000000  0.4816310000000  0.4560750000000 1.0
C      1  0.4144900000000  0.5120440000000  0.5459380000000 1.0
C      1  0.4388030000000  0.5054500000000  0.5743730000000 1.0
C      1  0.5605890000000  0.4960650000000  0.4169940000000 1.0
C      1  0.5324560000000  0.4810790000000  0.5486070000000 1.0
C      1  0.4728240000000  0.5223840000000  0.4503580000000 1.0
C      1  0.4349390000000  0.4812950000000  0.4592570000000 1.0
C      1  0.5687520000000  0.5203450000000  0.5450890000000 1.0
C      1  0.4199970000000  0.4533330000000  0.5219700000000 1.0
C      1  0.5804070000000  0.5422050000000  0.4773380000000 1.0
C      1  0.4892310000000  0.5750370000000  0.4370300000000 1.0
C      1  0.5128790000000  0.4237830000000  0.5636050000000 1.0
C      1  0.4609110000000  0.4697610000000  0.4956460000000 1.0
C      1  0.5427940000000  0.5356160000000  0.5184150000000 1.0
C      1  0.4368400000000  0.4518490000000  0.4859060000000 1.0
C      1  0.5679630000000  0.5462330000000  0.5148870000000 1.0
C      1  0.5531390000000  0.4489960000000  0.5668530000000 1.0
C      1  0.4485730000000  0.5512090000000  0.4370530000000 1.0
C      1  0.4159030000000  0.5164620000000  0.4593980000000 1.0
C      1  0.5829970000000  0.4785300000000  0.5470500000000 1.0
C      1  0.4564090000000  0.5335470000000  0.5842780000000 1.0
C      1  0.5404000000000  0.4688920000000  0.4136690000000 1.0
C      1  0.4898350000000  0.5421810000000  0.4598310000000 1.0
C      1  0.5245430000000  0.4542980000000  0.5375540000000 1.0
C      1  0.5149980000000  0.4308190000000  0.4658450000000 1.0
C      1  0.4725070000000  0.5517430000000  0.5256260000000 1.0
C      1  0.5397610000000  0.5735900000000  0.4799560000000 1.0
C      1  0.4628520000000  0.4253360000000  0.5163500000000 1.0
C      1  0.4708430000000  0.4967200000000  0.5789450000000 1.0
C      1  0.5282310000000  0.5065770000000  0.4187260000000 1.0
C      1  0.5978830000000  0.5197080000000  0.4966910000000 1.0
C      1  0.3997820000000  0.4753550000000  0.5050070000000 1.0
C      1  0.5115150000000  0.5039210000000  0.5394780000000 1.0
C      1  0.4840830000000  0.4966130000000  0.4560830000000 1.0
C      1  0.5061080000000  0.5444390000000  0.5803920000000 1.0
C      1  0.4929480000000  0.4560240000000  0.4146250000000 1.0
C      1  0.4527530000000  0.4161030000000  0.4789090000000 1.0
C      1  0.5472370000000  0.5799070000000  0.5187200000000 1.0
C      1  0.4812320000000  0.5321280000000  0.4079230000000 1.0
C      1  0.5167980000000  0.4683210000000  0.5915840000000 1.0
C      1  0.4817110000000  0.4961770000000  0.5408990000000 1.0
C      1  0.5147850000000  0.4988320000000  0.4607410000000 1.0
C      1  0.5762620000000  0.4571360000000  0.5255200000000 1.0
C      1  0.4097500000000  0.5399940000000  0.4789430000000 1.0
C      1  0.4267700000000  0.5038990000000  0.4976090000000 1.0
C      1  0.5636780000000  0.4951380000000  0.4977940000000 1.0
C      1  0.4643390000000  0.5032210000000  0.4167450000000 1.0
C      1  0.5332070000000  0.4978510000000  0.5844760000000 1.0
C      1  0.4414010000000  0.4581960000000  0.5480030000000 1.0
C      1  0.5652350000000  0.5416490000000  0.4465520000000 1.0
C      1  0.4038250000000  0.4891970000000  0.5345510000000 1.0
C      1  0.6040930000000  0.5033180000000  0.4679580000000 1.0
C      1  0.5019470000000  0.5043790000000  0.4919340000000 1.0
END
