TITL C-2782238-9940-44 0.00669471375943441 125000 -992.332669473386 0 0 175 (C1) n - 1
REM
REM in /home/nfs/bkarasulu/CARBON/AIRSS/Generating-Clusters/REBO/Higher-Symm/SD-CG/HFTN-CG
REM
REM
REM
REM
REM
REM ./C.cell (12c818d87b63d06a65506943cc24bca4)
REM
REM compiler GCC version 9.2.1 20190827 (Red Hat 9.2.1-1)
REM options -cpp -mtune=generic -march=x86-64 -g -O0 -fpre-include=/usr/include/finclude/math-vector-fortran.h
REM seed -414517491 -1960160547 -742505217 -677346547 -1646204511 739546747 -339028615 715059358 -1344179493 737836974 -1256376382 -742657954 -883218665 -597785281 1567467597 574603972 490385299 -1220262254 1371267032 -2048884933 1449438535 -821494546 1877575428 -1001546275 -1976159710 1477878659 -465810711 -2087687214 -1267045934 -923211772 -1990968976 -1651642512 1283613250
REM
CELL 1.54180   50.00000   50.00000   50.00000   90.00000   90.00000   90.00000
LATT -1
SFAC C  
C      1  0.4691230000000  0.5268200000000  0.5606340000000 1.0
C      1  0.5016750000000  0.5365760000000  0.5249340000000 1.0
C      1  0.4276720000000  0.5453960000000  0.4219340000000 1.0
C      1  0.5297680000000  0.5399850000000  0.5830450000000 1.0
C      1  0.4648560000000  0.5670660000000  0.4723740000000 1.0
C      1  0.5126740000000  0.5737080000000  0.5348350000000 1.0
C      1  0.4496360000000  0.5151050000000  0.6032640000000 1.0
C      1  0.5391350000000  0.5219760000000  0.5295920000000 1.0
C      1  0.5042770000000  0.5276470000000  0.3974870000000 1.0
C      1  0.4247220000000  0.5730970000000  0.4418870000000 1.0
C      1  0.4571810000000  0.4039490000000  0.5098470000000 1.0
C      1  0.4271430000000  0.4775520000000  0.5431880000000 1.0
C      1  0.5614330000000  0.4838790000000  0.5000900000000 1.0
C      1  0.4355250000000  0.5606110000000  0.4987550000000 1.0
C      1  0.5883970000000  0.5494780000000  0.4675780000000 1.0
C      1  0.4827070000000  0.5712130000000  0.5210810000000 1.0
C      1  0.5479200000000  0.4839800000000  0.5376340000000 1.0
C      1  0.4549840000000  0.5397820000000  0.4800380000000 1.0
C      1  0.5386350000000  0.4844230000000  0.4799350000000 1.0
C      1  0.5042370000000  0.6264060000000  0.5393720000000 1.0
C      1  0.5407040000000  0.5376850000000  0.4394340000000 1.0
C      1  0.4668340000000  0.4412330000000  0.4493830000000 1.0
C      1  0.4567980000000  0.5505260000000  0.4368810000000 1.0
C      1  0.5664910000000  0.5578750000000  0.4454300000000 1.0
C      1  0.5504720000000  0.5884220000000  0.5038700000000 1.0
C      1  0.5732150000000  0.5515600000000  0.5553280000000 1.0
C      1  0.5374690000000  0.4545080000000  0.4635890000000 1.0
C      1  0.5131450000000  0.4762740000000  0.5962050000000 1.0
C      1  0.4375750000000  0.5548370000000  0.5271450000000 1.0
C      1  0.5850350000000  0.5529750000000  0.5246160000000 1.0
C      1  0.5057100000000  0.4936370000000  0.3969480000000 1.0
C      1  0.5272940000000  0.5866740000000  0.5844420000000 1.0
C      1  0.3965680000000  0.5305290000000  0.4991790000000 1.0
C      1  0.5574580000000  0.4106710000000  0.5438830000000 1.0
C      1  0.4015090000000  0.4938470000000  0.4653410000000 1.0
C      1  0.5381920000000  0.4418310000000  0.5593310000000 1.0
C      1  0.4629210000000  0.5810810000000  0.5428750000000 1.0
C      1  0.5817210000000  0.5105560000000  0.4367870000000 1.0
C      1  0.4475630000000  0.4982720000000  0.4577660000000 1.0
C      1  0.4603130000000  0.4763850000000  0.4019790000000 1.0
C      1  0.4683220000000  0.5430940000000  0.5319700000000 1.0
C      1  0.4770100000000  0.5989090000000  0.4760300000000 1.0
C      1  0.4416390000000  0.4262230000000  0.4561140000000 1.0
C      1  0.4488790000000  0.5044350000000  0.5726610000000 1.0
C      1  0.5280830000000  0.5882980000000  0.4845050000000 1.0
C      1  0.4888050000000  0.5098220000000  0.5988150000000 1.0
C      1  0.5989620000000  0.5144380000000  0.5103300000000 1.0
C      1  0.5562520000000  0.4524780000000  0.5108620000000 1.0
C      1  0.5073190000000  0.5836360000000  0.4394610000000 1.0
C      1  0.4266370000000  0.4541790000000  0.5233410000000 1.0
C      1  0.4941070000000  0.4977580000000  0.5033420000000 1.0
C      1  0.5770500000000  0.5345750000000  0.4232360000000 1.0
C      1  0.4910510000000  0.4734650000000  0.5527060000000 1.0
C      1  0.5595190000000  0.5742880000000  0.5320170000000 1.0
C      1  0.4479780000000  0.4416970000000  0.5020830000000 1.0
C      1  0.4835730000000  0.5317900000000  0.6152390000000 1.0
C      1  0.6020120000000  0.4620860000000  0.5195570000000 1.0
C      1  0.5029400000000  0.4648890000000  0.5243180000000 1.0
C      1  0.4076810000000  0.5536120000000  0.5393980000000 1.0
C      1  0.4908130000000  0.5113440000000  0.5407900000000 1.0
C      1  0.5147750000000  0.5612890000000  0.4756260000000 1.0
C      1  0.5714400000000  0.4387310000000  0.5582770000000 1.0
C      1  0.4560790000000  0.4096190000000  0.5417020000000 1.0
C      1  0.4427350000000  0.5037570000000  0.3988440000000 1.0
C      1  0.5500690000000  0.4591220000000  0.4177930000000 1.0
C      1  0.6134440000000  0.4846730000000  0.4758010000000 1.0
C      1  0.5567400000000  0.5411630000000  0.4993080000000 1.0
C      1  0.5392380000000  0.4241290000000  0.4721700000000 1.0
C      1  0.5048390000000  0.4722450000000  0.4496560000000 1.0
C      1  0.5805580000000  0.5639520000000  0.4947900000000 1.0
C      1  0.4791020000000  0.5664250000000  0.4350590000000 1.0
C      1  0.5361500000000  0.5369960000000  0.4065080000000 1.0
C      1  0.5142290000000  0.4957580000000  0.5600990000000 1.0
C      1  0.5392850000000  0.5779610000000  0.4489950000000 1.0
C      1  0.4157110000000  0.4656190000000  0.4312940000000 1.0
C      1  0.5055290000000  0.5213490000000  0.5761690000000 1.0
C      1  0.4803160000000  0.4197570000000  0.4935740000000 1.0
C      1  0.5345870000000  0.4931470000000  0.6047000000000 1.0
C      1  0.5102950000000  0.5449090000000  0.4477060000000 1.0
C      1  0.6061750000000  0.5338350000000  0.4921580000000 1.0
C      1  0.5885010000000  0.4916200000000  0.5649190000000 1.0
C      1  0.4641870000000  0.4908060000000  0.5443330000000 1.0
C      1  0.4603920000000  0.4780460000000  0.5128570000000 1.0
C      1  0.4446040000000  0.5582490000000  0.5603430000000 1.0
C      1  0.4847960000000  0.4050330000000  0.4631220000000 1.0
C      1  0.5449410000000  0.4916350000000  0.5663090000000 1.0
C      1  0.5059800000000  0.6063800000000  0.4925890000000 1.0
C      1  0.4392550000000  0.5280100000000  0.4557060000000 1.0
C      1  0.5126510000000  0.4099810000000  0.4723800000000 1.0
C      1  0.4892170000000  0.5704630000000  0.4913770000000 1.0
C      1  0.4593330000000  0.5065230000000  0.4286310000000 1.0
C      1  0.3949320000000  0.4665070000000  0.4840280000000 1.0
C      1  0.5732150000000  0.5214010000000  0.5298070000000 1.0
C      1  0.4810780000000  0.4774970000000  0.5916220000000 1.0
C      1  0.5298660000000  0.5689980000000  0.4174440000000 1.0
C      1  0.5904920000000  0.4635370000000  0.5516440000000 1.0
C      1  0.5746720000000  0.5182490000000  0.5637360000000 1.0
C      1  0.4153510000000  0.5073810000000  0.5510630000000 1.0
C      1  0.5208960000000  0.4519530000000  0.4273470000000 1.0
C      1  0.3890270000000  0.4472450000000  0.5120650000000 1.0
C      1  0.5018480000000  0.4088540000000  0.5659340000000 1.0
C      1  0.5375470000000  0.5803680000000  0.5557930000000 1.0
C      1  0.4405720000000  0.4532510000000  0.5619730000000 1.0
C      1  0.5323740000000  0.4565800000000  0.5320570000000 1.0
C      1  0.5514760000000  0.4232770000000  0.4978320000000 1.0
C      1  0.5120440000000  0.4240430000000  0.5031400000000 1.0
C      1  0.5847220000000  0.4446210000000  0.4713870000000 1.0
C      1  0.4738760000000  0.5176130000000  0.3997640000000 1.0
C      1  0.5916200000000  0.4392030000000  0.4978940000000 1.0
C      1  0.4891080000000  0.5574070000000  0.6022120000000 1.0
C      1  0.5365420000000  0.4889910000000  0.4086550000000 1.0
C      1  0.5764410000000  0.5957980000000  0.4912400000000 1.0
C      1  0.5355450000000  0.5124540000000  0.4608780000000 1.0
C      1  0.3959320000000  0.5323850000000  0.5464110000000 1.0
C      1  0.4875070000000  0.4701960000000  0.3946920000000 1.0
C      1  0.4094110000000  0.5010290000000  0.4980480000000 1.0
C      1  0.5275710000000  0.4116360000000  0.5600760000000 1.0
C      1  0.4933160000000  0.4767350000000  0.4809630000000 1.0
C      1  0.5293830000000  0.5510980000000  0.5156490000000 1.0
C      1  0.4800840000000  0.5193150000000  0.4814330000000 1.0
C      1  0.5053970000000  0.3943190000000  0.5288780000000 1.0
C      1  0.5337430000000  0.5370770000000  0.4788000000000 1.0
C      1  0.4674590000000  0.4721460000000  0.4634810000000 1.0
C      1  0.5171790000000  0.5639800000000  0.5970960000000 1.0
C      1  0.4963500000000  0.5179420000000  0.4551100000000 1.0
C      1  0.5013860000000  0.5493050000000  0.5566170000000 1.0
C      1  0.5618480000000  0.4805890000000  0.5939460000000 1.0
C      1  0.4421180000000  0.4169200000000  0.4828560000000 1.0
C      1  0.5427910000000  0.4838560000000  0.4477770000000 1.0
C      1  0.4389430000000  0.5908680000000  0.4908270000000 1.0
C      1  0.4251620000000  0.4630740000000  0.4926290000000 1.0
C      1  0.4839390000000  0.4221010000000  0.4135330000000 1.0
C      1  0.4310580000000  0.4257570000000  0.5505800000000 1.0
C      1  0.4208520000000  0.4402940000000  0.4415290000000 1.0
C      1  0.5340880000000  0.4075750000000  0.5210280000000 1.0
C      1  0.5662490000000  0.5122950000000  0.4875400000000 1.0
C      1  0.4739290000000  0.4519010000000  0.5693050000000 1.0
C      1  0.5010100000000  0.5526120000000  0.4159690000000 1.0
C      1  0.4792010000000  0.4508450000000  0.5077350000000 1.0
C      1  0.4635530000000  0.5118650000000  0.5105380000000 1.0
C      1  0.4747200000000  0.5572830000000  0.5747040000000 1.0
C      1  0.6078700000000  0.4888760000000  0.5035500000000 1.0
C      1  0.5504860000000  0.5178920000000  0.5871890000000 1.0
C      1  0.5208770000000  0.4945260000000  0.5207270000000 1.0
C      1  0.5777880000000  0.4310920000000  0.5263170000000 1.0
C      1  0.4977210000000  0.4459960000000  0.4062960000000 1.0
C      1  0.4806800000000  0.3874990000000  0.5376030000000 1.0
C      1  0.4146650000000  0.5487540000000  0.4590880000000 1.0
C      1  0.4987020000000  0.4401100000000  0.4504550000000 1.0
C      1  0.5133740000000  0.5045370000000  0.4286550000000 1.0
C      1  0.4213520000000  0.5155330000000  0.4204210000000 1.0
C      1  0.5692520000000  0.4847340000000  0.4310440000000 1.0
C      1  0.4798030000000  0.4061000000000  0.4355120000000 1.0
C      1  0.5076710000000  0.6051840000000  0.5220530000000 1.0
C      1  0.4326710000000  0.5046150000000  0.5230690000000 1.0
C      1  0.5518020000000  0.5127200000000  0.3996680000000 1.0
C      1  0.4089630000000  0.5511140000000  0.4865950000000 1.0
C      1  0.3884110000000  0.4798690000000  0.5145420000000 1.0
C      1  0.4787870000000  0.4219530000000  0.5614440000000 1.0
C      1  0.4406780000000  0.4892270000000  0.4871850000000 1.0
C      1  0.4111830000000  0.4936290000000  0.4385280000000 1.0
C      1  0.5769120000000  0.4819950000000  0.5279070000000 1.0
C      1  0.4476890000000  0.4742350000000  0.5858170000000 1.0
C      1  0.4583020000000  0.4666860000000  0.4310840000000 1.0
C      1  0.5410620000000  0.5462480000000  0.5535940000000 1.0
C      1  0.4742280000000  0.3611790000000  0.5437810000000 1.0
C      1  0.5828440000000  0.5174340000000  0.4642820000000 1.0
C      1  0.5093820000000  0.4487530000000  0.4815940000000 1.0
C      1  0.5996890000000  0.4684440000000  0.4578590000000 1.0
C      1  0.5238050000000  0.4552880000000  0.5824700000000 1.0
C      1  0.4849460000000  0.4880570000000  0.4312360000000 1.0
C      1  0.4291790000000  0.5321400000000  0.5683400000000 1.0
C      1  0.4059090000000  0.4306380000000  0.5315210000000 1.0
C      1  0.5757720000000  0.4525130000000  0.4393550000000 1.0
C      1  0.4476580000000  0.5919820000000  0.4584660000000 1.0
END
