TITL C-2782235-7892-959 -0.00151650034970223 125000 -746.154529231204 0 0 128 (C1) n - 1
REM
REM in /home/nfs/bkarasulu/CARBON/AIRSS/Generating-Clusters/REBO/Higher-Symm/SD-CG/HFTN-CG
REM
REM
REM
REM
REM
REM ./C.cell (12c818d87b63d06a65506943cc24bca4)
REM
REM compiler GCC version 9.2.1 20190827 (Red Hat 9.2.1-1)
REM options -cpp -mtune=generic -march=x86-64 -g -O0 -fpre-include=/usr/include/finclude/math-vector-fortran.h
REM seed -218852881 1929491925 -1033157890 -1852074007 -234754268 -2003789033 837807640 -972613514 421701957 1898948088 848746878 1396648089 -288108760 -1840716645 2072477661 1204438846 1371388883 -650943106 -197497543 242554522 -1026626306 -1659970528 -1167134366 -1925112330 402405135 -1284527034 -604584033 784960245 -39696850 -117249722 -2013201069 624691850 1995602191
REM
CELL 1.54180   50.00000   50.00000   50.00000   90.00000   90.00000   90.00000
LATT -1
SFAC C  
C      1  0.4828840000000  0.4721660000000  0.4409460000000 1.0
C      1  0.5720450000000  0.4445830000000  0.4495530000000 1.0
C      1  0.5172030000000  0.4495280000000  0.4770830000000 1.0
C      1  0.4753110000000  0.5062310000000  0.4784090000000 1.0
C      1  0.5162990000000  0.4971140000000  0.5571780000000 1.0
C      1  0.5197910000000  0.5181790000000  0.5419560000000 1.0
C      1  0.4534930000000  0.5395710000000  0.4766150000000 1.0
C      1  0.5958280000000  0.5044980000000  0.4994960000000 1.0
C      1  0.5708500000000  0.5125840000000  0.4832980000000 1.0
C      1  0.4780100000000  0.4418930000000  0.5093400000000 1.0
C      1  0.5262800000000  0.4020990000000  0.4958100000000 1.0
C      1  0.4396590000000  0.4768920000000  0.5829970000000 1.0
C      1  0.4905670000000  0.4658970000000  0.4674000000000 1.0
C      1  0.4790190000000  0.4175020000000  0.5409400000000 1.0
C      1  0.5210700000000  0.5564260000000  0.5306350000000 1.0
C      1  0.4764190000000  0.5810450000000  0.5726960000000 1.0
C      1  0.4678660000000  0.4654580000000  0.5283040000000 1.0
C      1  0.5024270000000  0.5421880000000  0.5521370000000 1.0
C      1  0.5055760000000  0.5510040000000  0.5039790000000 1.0
C      1  0.5071950000000  0.5377220000000  0.4562310000000 1.0
C      1  0.4384100000000  0.5528770000000  0.5268600000000 1.0
C      1  0.4462290000000  0.5461210000000  0.4366180000000 1.0
C      1  0.5259310000000  0.5041570000000  0.4845940000000 1.0
C      1  0.4681180000000  0.5794740000000  0.5276830000000 1.0
C      1  0.4855840000000  0.5701100000000  0.4306760000000 1.0
C      1  0.4279200000000  0.5260470000000  0.5228360000000 1.0
C      1  0.5379600000000  0.5165330000000  0.5139890000000 1.0
C      1  0.5457450000000  0.5839830000000  0.5154390000000 1.0
C      1  0.4880220000000  0.4882220000000  0.5284330000000 1.0
C      1  0.5409650000000  0.4225660000000  0.5176970000000 1.0
C      1  0.5151200000000  0.5930450000000  0.4743800000000 1.0
C      1  0.5176500000000  0.4573390000000  0.5536310000000 1.0
C      1  0.4557640000000  0.4939010000000  0.3987160000000 1.0
C      1  0.5522080000000  0.5569470000000  0.5337920000000 1.0
C      1  0.5541010000000  0.5245210000000  0.5769060000000 1.0
C      1  0.5340830000000  0.4683490000000  0.4999420000000 1.0
C      1  0.5092630000000  0.4639690000000  0.5783550000000 1.0
C      1  0.5072030000000  0.5252690000000  0.4113370000000 1.0
C      1  0.4067330000000  0.5021780000000  0.4827280000000 1.0
C      1  0.5849600000000  0.4859000000000  0.5215150000000 1.0
C      1  0.4974940000000  0.4219000000000  0.4258770000000 1.0
C      1  0.5943850000000  0.5529620000000  0.5610000000000 1.0
C      1  0.4361780000000  0.4880550000000  0.4445260000000 1.0
C      1  0.5237560000000  0.5631330000000  0.5887420000000 1.0
C      1  0.5652270000000  0.4689040000000  0.4266650000000 1.0
C      1  0.4847970000000  0.5016180000000  0.4096800000000 1.0
C      1  0.5389960000000  0.4881430000000  0.4652660000000 1.0
C      1  0.5161610000000  0.4469690000000  0.4175850000000 1.0
C      1  0.5634350000000  0.5160530000000  0.4507680000000 1.0
C      1  0.5706900000000  0.4541010000000  0.5387050000000 1.0
C      1  0.4299380000000  0.4437810000000  0.5121180000000 1.0
C      1  0.4266570000000  0.4715950000000  0.5579360000000 1.0
C      1  0.5538010000000  0.4912540000000  0.5690370000000 1.0
C      1  0.5271970000000  0.4220160000000  0.4365810000000 1.0
C      1  0.4235480000000  0.4989800000000  0.5424130000000 1.0
C      1  0.5501340000000  0.4970410000000  0.4261320000000 1.0
C      1  0.5715820000000  0.4834300000000  0.4565400000000 1.0
C      1  0.4099660000000  0.4641570000000  0.4944080000000 1.0
C      1  0.4400550000000  0.5683400000000  0.5018660000000 1.0
C      1  0.5553290000000  0.4573640000000  0.5665680000000 1.0
C      1  0.4769260000000  0.5575940000000  0.4874280000000 1.0
C      1  0.5585270000000  0.5362800000000  0.4984960000000 1.0
C      1  0.4416100000000  0.4761150000000  0.5151620000000 1.0
C      1  0.4488300000000  0.5794610000000  0.4706760000000 1.0
C      1  0.5240740000000  0.5003710000000  0.4164890000000 1.0
C      1  0.5523640000000  0.5454500000000  0.4524680000000 1.0
C      1  0.5153820000000  0.6136750000000  0.4566160000000 1.0
C      1  0.5643390000000  0.4325130000000  0.4999130000000 1.0
C      1  0.4622340000000  0.5929850000000  0.4979720000000 1.0
C      1  0.4538680000000  0.5119970000000  0.4557010000000 1.0
C      1  0.4576500000000  0.4992680000000  0.5812850000000 1.0
C      1  0.4354260000000  0.4891900000000  0.4125830000000 1.0
C      1  0.5080280000000  0.5612380000000  0.4738960000000 1.0
C      1  0.4633520000000  0.4395450000000  0.5490290000000 1.0
C      1  0.4500730000000  0.5136730000000  0.5551900000000 1.0
C      1  0.4591680000000  0.5023190000000  0.5049310000000 1.0
C      1  0.5110840000000  0.4366490000000  0.5085530000000 1.0
C      1  0.5077340000000  0.4222420000000  0.5391600000000 1.0
C      1  0.4326390000000  0.5184050000000  0.4933620000000 1.0
C      1  0.4667510000000  0.4530910000000  0.4819410000000 1.0
C      1  0.4110800000000  0.4912710000000  0.5133230000000 1.0
C      1  0.4499710000000  0.4364570000000  0.4413490000000 1.0
C      1  0.4148700000000  0.4787710000000  0.4638910000000 1.0
C      1  0.4601490000000  0.5699950000000  0.4450280000000 1.0
C      1  0.5795170000000  0.5484750000000  0.5181470000000 1.0
C      1  0.4705550000000  0.4087820000000  0.5112140000000 1.0
C      1  0.4030320000000  0.5286250000000  0.4664320000000 1.0
C      1  0.4737720000000  0.4184890000000  0.4390700000000 1.0
C      1  0.5601770000000  0.4279160000000  0.4737110000000 1.0
C      1  0.4948210000000  0.3995170000000  0.4949540000000 1.0
C      1  0.5410240000000  0.4577280000000  0.4552990000000 1.0
C      1  0.5384910000000  0.4329500000000  0.5494510000000 1.0
C      1  0.4253090000000  0.5399670000000  0.4569920000000 1.0
C      1  0.4631330000000  0.5221340000000  0.4260230000000 1.0
C      1  0.5466270000000  0.4722030000000  0.5305290000000 1.0
C      1  0.4820010000000  0.4991840000000  0.5951010000000 1.0
C      1  0.5833360000000  0.4601860000000  0.4778320000000 1.0
C      1  0.4762100000000  0.5534710000000  0.5660370000000 1.0
C      1  0.5074370000000  0.4870210000000  0.5945960000000 1.0
C      1  0.5632350000000  0.5509120000000  0.5639280000000 1.0
C      1  0.5401650000000  0.5746920000000  0.5675000000000 1.0
C      1  0.5867400000000  0.4529330000000  0.5110200000000 1.0
C      1  0.4556200000000  0.4644140000000  0.4365960000000 1.0
C      1  0.5017920000000  0.5458530000000  0.4297990000000 1.0
C      1  0.5018270000000  0.5147520000000  0.4731890000000 1.0
C      1  0.4720990000000  0.5174940000000  0.5308970000000 1.0
C      1  0.5136290000000  0.4728220000000  0.5259560000000 1.0
C      1  0.5337250000000  0.5913740000000  0.5447880000000 1.0
C      1  0.4703200000000  0.4213530000000  0.4722880000000 1.0
C      1  0.5495260000000  0.5561480000000  0.4776330000000 1.0
C      1  0.4444200000000  0.4225840000000  0.4947830000000 1.0
C      1  0.6013350000000  0.5501450000000  0.5342630000000 1.0
C      1  0.5406050000000  0.5801620000000  0.4883020000000 1.0
C      1  0.4814680000000  0.5498940000000  0.5263670000000 1.0
C      1  0.5324930000000  0.5033300000000  0.5929130000000 1.0
C      1  0.5636430000000  0.4814380000000  0.4955500000000 1.0
C      1  0.4933920000000  0.5886780000000  0.4983880000000 1.0
C      1  0.5072940000000  0.5865350000000  0.5246060000000 1.0
C      1  0.5041710000000  0.4748370000000  0.4182650000000 1.0
C      1  0.5286010000000  0.5369120000000  0.5946550000000 1.0
C      1  0.4367430000000  0.4563770000000  0.4749310000000 1.0
C      1  0.4522240000000  0.5445890000000  0.5529200000000 1.0
C      1  0.5032550000000  0.4192140000000  0.4684970000000 1.0
C      1  0.5580820000000  0.5008050000000  0.5365750000000 1.0
C      1  0.4701480000000  0.5953850000000  0.5499920000000 1.0
C      1  0.4317930000000  0.4263490000000  0.4633080000000 1.0
C      1  0.5360260000000  0.4122260000000  0.4652610000000 1.0
C      1  0.4349720000000  0.4486980000000  0.5434480000000 1.0
END
