TITL C-2782227-3064-239 0.000897201671866543 125000 -278.03480180649 0 0 49 (C1) n - 1
REM
REM in /home/nfs/bkarasulu/CARBON/AIRSS/Generating-Clusters/REBO/Higher-Symm/SD-CG/HFTN-CG
REM
REM
REM
REM
REM
REM ./C.cell (12c818d87b63d06a65506943cc24bca4)
REM
REM compiler GCC version 9.2.1 20190827 (Red Hat 9.2.1-1)
REM options -cpp -mtune=generic -march=x86-64 -g -O0 -fpre-include=/usr/include/finclude/math-vector-fortran.h
REM seed 558553101 -938384577 1382616219 -670221813 1502442936 -875977750 1127784491 784955373 -611915332 1502753733 -45056375 1540135167 838647015 -338374394 -743347236 1644074888 2050484896 -1891236244 775461902 -1069618775 -1959134609 779176514 1243388800 1750285130 157090604 -1360352828 98339477 454035673 224957216 -1371748903 -678718946 1456084956 -563648736
REM
CELL 1.54180   50.00000   50.00000   50.00000   90.00000   90.00000   90.00000
LATT -1
SFAC C  
C      1  0.5107920000000  0.5341240000000  0.4515070000000 1.0
C      1  0.5568820000000  0.5146490000000  0.4653740000000 1.0
C      1  0.5247600000000  0.4760690000000  0.4560870000000 1.0
C      1  0.4586940000000  0.4724070000000  0.4620990000000 1.0
C      1  0.4493050000000  0.5076460000000  0.4619590000000 1.0
C      1  0.5052580000000  0.4448340000000  0.5294150000000 1.0
C      1  0.5350170000000  0.4867490000000  0.5385550000000 1.0
C      1  0.5103970000000  0.5442630000000  0.5277310000000 1.0
C      1  0.4772190000000  0.5458330000000  0.5268320000000 1.0
C      1  0.4685800000000  0.4805950000000  0.5373860000000 1.0
C      1  0.5003430000000  0.4539500000000  0.4988610000000 1.0
C      1  0.4586920000000  0.4853470000000  0.5091490000000 1.0
C      1  0.4722050000000  0.5387460000000  0.4970320000000 1.0
C      1  0.5229750000000  0.5407460000000  0.5011710000000 1.0
C      1  0.5408150000000  0.4897860000000  0.5074410000000 1.0
C      1  0.5015680000000  0.5438070000000  0.4798930000000 1.0
C      1  0.4554090000000  0.5144850000000  0.4914060000000 1.0
C      1  0.4691850000000  0.4649770000000  0.4895470000000 1.0
C      1  0.5239610000000  0.4681060000000  0.4869870000000 1.0
C      1  0.5461020000000  0.5164770000000  0.4948680000000 1.0
C      1  0.4800100000000  0.4346070000000  0.5436940000000 1.0
C      1  0.4621930000000  0.5043480000000  0.5541880000000 1.0
C      1  0.4872290000000  0.5732770000000  0.5420500000000 1.0
C      1  0.5268640000000  0.5352480000000  0.5527730000000 1.0
C      1  0.5468570000000  0.4593130000000  0.5484480000000 1.0
C      1  0.4862560000000  0.5305470000000  0.4339260000000 1.0
C      1  0.4183030000000  0.4996280000000  0.4556760000000 1.0
C      1  0.4775370000000  0.4653140000000  0.4403760000000 1.0
C      1  0.5535720000000  0.4722820000000  0.4456020000000 1.0
C      1  0.5578360000000  0.5402530000000  0.4491680000000 1.0
C      1  0.4640700000000  0.5218830000000  0.4405030000000 1.0
C      1  0.5354890000000  0.5491600000000  0.4409750000000 1.0
C      1  0.5696640000000  0.4906730000000  0.4525720000000 1.0
C      1  0.5021790000000  0.4657300000000  0.4387800000000 1.0
C      1  0.4281700000000  0.4741320000000  0.4567000000000 1.0
C      1  0.4626390000000  0.4525560000000  0.5483350000000 1.0
C      1  0.5330920000000  0.4387720000000  0.5421700000000 1.0
C      1  0.5369900000000  0.5124280000000  0.5549960000000 1.0
C      1  0.5131440000000  0.5713440000000  0.5512540000000 1.0
C      1  0.4630370000000  0.5280100000000  0.5470940000000 1.0
C      1  0.5547320000000  0.5463520000000  0.5042070000000 1.0
C      1  0.5544040000000  0.4622670000000  0.4967710000000 1.0
C      1  0.4316000000000  0.5034060000000  0.5101710000000 1.0
C      1  0.4762870000000  0.5641690000000  0.4776070000000 1.0
C      1  0.4774750000000  0.4336290000000  0.4884180000000 1.0
C      1  0.5211560000000  0.5070610000000  0.4651050000000 1.0
C      1  0.5046100000000  0.4773210000000  0.5333560000000 1.0
C      1  0.5066250000000  0.5057230000000  0.4908760000000 1.0
C      1  0.4968990000000  0.4967090000000  0.5113050000000 1.0
END
