TITL C-2782238-9940-303 -0.00041100953221644 125000 -1173.52526773686 0 0 197 (C1) n - 1
REM
REM in /home/nfs/bkarasulu/CARBON/AIRSS/Generating-Clusters/REBO/Higher-Symm/SD-CG/HFTN-CG
REM
REM
REM
REM
REM
REM ./C.cell (12c818d87b63d06a65506943cc24bca4)
REM
REM compiler GCC version 9.2.1 20190827 (Red Hat 9.2.1-1)
REM options -cpp -mtune=generic -march=x86-64 -g -O0 -fpre-include=/usr/include/finclude/math-vector-fortran.h
REM seed 1765149883 -312330547 -1483862810 -1125344125 -1654831054 240289430 -907271154 -737110652 -1715775577 -1885724076 -762549826 -104961973 -1103909170 1674900296 1159995233 124894264 1077429102 668041214 -1751285522 1691994824 2057206492 1118839532 -86121219 -383356430 1077660398 1279810238 629623146 347113028 776368483 -31661187 1916563266 1781558014 958979002
REM
CELL 1.54180   50.00000   50.00000   50.00000   90.00000   90.00000   90.00000
LATT -1
SFAC C  
C      1  0.5573700000000  0.5925550000000  0.4515620000000 1.0
C      1  0.5532650000000  0.5937830000000  0.5225350000000 1.0
C      1  0.5636360000000  0.5328700000000  0.5964520000000 1.0
C      1  0.5610160000000  0.4437690000000  0.5957300000000 1.0
C      1  0.5616230000000  0.4075850000000  0.5069980000000 1.0
C      1  0.5630130000000  0.4404950000000  0.4230740000000 1.0
C      1  0.5581350000000  0.5128300000000  0.4028320000000 1.0
C      1  0.5779080000000  0.4565630000000  0.5746790000000 1.0
C      1  0.5855140000000  0.4157800000000  0.4939340000000 1.0
C      1  0.5806820000000  0.4560640000000  0.4392250000000 1.0
C      1  0.5810060000000  0.5147630000000  0.4206180000000 1.0
C      1  0.5701250000000  0.5651990000000  0.4575850000000 1.0
C      1  0.5758730000000  0.5762740000000  0.5195570000000 1.0
C      1  0.5718320000000  0.5510100000000  0.5761070000000 1.0
C      1  0.6024510000000  0.4853500000000  0.4619310000000 1.0
C      1  0.5959400000000  0.5181540000000  0.4680800000000 1.0
C      1  0.5829720000000  0.5317780000000  0.4955740000000 1.0
C      1  0.5804000000000  0.5283270000000  0.5280930000000 1.0
C      1  0.5840350000000  0.5006990000000  0.5452690000000 1.0
C      1  0.5719210000000  0.4526260000000  0.5263780000000 1.0
C      1  0.6006120000000  0.4600940000000  0.4734660000000 1.0
C      1  0.5196300000000  0.5381450000000  0.5079740000000 1.0
C      1  0.5145640000000  0.5213790000000  0.5369040000000 1.0
C      1  0.5121730000000  0.4880010000000  0.5371500000000 1.0
C      1  0.5092790000000  0.4655200000000  0.5143160000000 1.0
C      1  0.5088220000000  0.4744820000000  0.4835890000000 1.0
C      1  0.5192490000000  0.4992540000000  0.4626840000000 1.0
C      1  0.5112030000000  0.5287300000000  0.4763950000000 1.0
C      1  0.5479470000000  0.5448280000000  0.4417660000000 1.0
C      1  0.5422890000000  0.5670650000000  0.4865490000000 1.0
C      1  0.5463300000000  0.5574270000000  0.5562920000000 1.0
C      1  0.5459010000000  0.4909180000000  0.5744540000000 1.0
C      1  0.5557710000000  0.4195580000000  0.5556540000000 1.0
C      1  0.5483500000000  0.4375460000000  0.4691120000000 1.0
C      1  0.5534390000000  0.4819010000000  0.4277510000000 1.0
C      1  0.4682200000000  0.5399860000000  0.5052110000000 1.0
C      1  0.4827090000000  0.5322950000000  0.5313600000000 1.0
C      1  0.4807860000000  0.5007680000000  0.5414310000000 1.0
C      1  0.4787170000000  0.4613070000000  0.5187960000000 1.0
C      1  0.4628780000000  0.4617020000000  0.4918200000000 1.0
C      1  0.4737470000000  0.4787730000000  0.4691150000000 1.0
C      1  0.4769940000000  0.5296940000000  0.4764490000000 1.0
C      1  0.4706690000000  0.4062480000000  0.5567420000000 1.0
C      1  0.4661860000000  0.4078500000000  0.4621260000000 1.0
C      1  0.4705940000000  0.4749300000000  0.4043080000000 1.0
C      1  0.4621830000000  0.5644400000000  0.4235290000000 1.0
C      1  0.4585140000000  0.6000030000000  0.5055090000000 1.0
C      1  0.4700730000000  0.5698170000000  0.5879240000000 1.0
C      1  0.4729600000000  0.4736330000000  0.6077740000000 1.0
C      1  0.4689340000000  0.4005610000000  0.5282310000000 1.0
C      1  0.4796260000000  0.4195920000000  0.4329110000000 1.0
C      1  0.4708510000000  0.5069090000000  0.3960960000000 1.0
C      1  0.4628620000000  0.5897120000000  0.4421590000000 1.0
C      1  0.4576290000000  0.5994800000000  0.5390730000000 1.0
C      1  0.4681750000000  0.5439660000000  0.6002830000000 1.0
C      1  0.4750120000000  0.4452470000000  0.5993090000000 1.0
C      1  0.4311810000000  0.4495450000000  0.5722510000000 1.0
C      1  0.4328710000000  0.4125520000000  0.5050800000000 1.0
C      1  0.4468200000000  0.4287230000000  0.4341310000000 1.0
C      1  0.4389400000000  0.5166760000000  0.4027900000000 1.0
C      1  0.4319410000000  0.5914080000000  0.4562860000000 1.0
C      1  0.4276530000000  0.5873280000000  0.5475410000000 1.0
C      1  0.4464280000000  0.5239360000000  0.5903150000000 1.0
C      1  0.5385520000000  0.5170090000000  0.5874090000000 1.0
C      1  0.5440490000000  0.4238640000000  0.5821430000000 1.0
C      1  0.5357930000000  0.4213340000000  0.4923870000000 1.0
C      1  0.5471680000000  0.4589310000000  0.4033770000000 1.0
C      1  0.5346490000000  0.5283860000000  0.4174780000000 1.0
C      1  0.5337890000000  0.5966440000000  0.4717350000000 1.0
C      1  0.5329360000000  0.5803780000000  0.5423800000000 1.0
C      1  0.3835970000000  0.4674560000000  0.5580320000000 1.0
C      1  0.3796950000000  0.4339330000000  0.5080910000000 1.0
C      1  0.3929730000000  0.4495400000000  0.4503020000000 1.0
C      1  0.3854980000000  0.5065450000000  0.4311030000000 1.0
C      1  0.3917800000000  0.5567310000000  0.4611140000000 1.0
C      1  0.3848290000000  0.5664780000000  0.5198770000000 1.0
C      1  0.3902130000000  0.5262340000000  0.5644410000000 1.0
C      1  0.5807300000000  0.5359940000000  0.4437300000000 1.0
C      1  0.5762090000000  0.5635790000000  0.4903900000000 1.0
C      1  0.5769470000000  0.5550070000000  0.5427080000000 1.0
C      1  0.5726340000000  0.4840290000000  0.5690780000000 1.0
C      1  0.5765250000000  0.4396040000000  0.5509550000000 1.0
C      1  0.5820270000000  0.4375960000000  0.4748410000000 1.0
C      1  0.5866360000000  0.4876050000000  0.4332980000000 1.0
C      1  0.4849570000000  0.5843080000000  0.5391830000000 1.0
C      1  0.4949090000000  0.5317630000000  0.6034460000000 1.0
C      1  0.4995160000000  0.4317220000000  0.6055610000000 1.0
C      1  0.4965450000000  0.4011080000000  0.5124020000000 1.0
C      1  0.5055030000000  0.4284490000000  0.4133820000000 1.0
C      1  0.4975120000000  0.5189710000000  0.3853380000000 1.0
C      1  0.4907050000000  0.6041540000000  0.4437930000000 1.0
C      1  0.4971670000000  0.4319120000000  0.4692820000000 1.0
C      1  0.5029490000000  0.4865580000000  0.4246460000000 1.0
C      1  0.5007180000000  0.5601610000000  0.4426190000000 1.0
C      1  0.4958260000000  0.5820410000000  0.5115750000000 1.0
C      1  0.5011790000000  0.5473750000000  0.5769820000000 1.0
C      1  0.5015520000000  0.4752820000000  0.5802680000000 1.0
C      1  0.5005180000000  0.4234320000000  0.5368150000000 1.0
C      1  0.4611080000000  0.4087550000000  0.4959920000000 1.0
C      1  0.4690370000000  0.4509990000000  0.4262630000000 1.0
C      1  0.4647400000000  0.5307310000000  0.4191160000000 1.0
C      1  0.4579230000000  0.5859970000000  0.4751990000000 1.0
C      1  0.4535790000000  0.5727480000000  0.5610760000000 1.0
C      1  0.4568340000000  0.4949520000000  0.5908990000000 1.0
C      1  0.4604270000000  0.4339090000000  0.5739120000000 1.0
C      1  0.4755090000000  0.4439170000000  0.5448390000000 1.0
C      1  0.4782170000000  0.4349760000000  0.4888150000000 1.0
C      1  0.4850750000000  0.4735230000000  0.4415630000000 1.0
C      1  0.4814880000000  0.5376420000000  0.4454310000000 1.0
C      1  0.4768050000000  0.5672440000000  0.4921290000000 1.0
C      1  0.4806760000000  0.5541020000000  0.5527660000000 1.0
C      1  0.4770470000000  0.4869050000000  0.5699680000000 1.0
C      1  0.3837100000000  0.4979150000000  0.5564160000000 1.0
C      1  0.3769550000000  0.4539600000000  0.5306630000000 1.0
C      1  0.3852300000000  0.4460910000000  0.4784280000000 1.0
C      1  0.3936970000000  0.4765840000000  0.4410000000000 1.0
C      1  0.3877960000000  0.5283000000000  0.4486100000000 1.0
C      1  0.3869400000000  0.5582460000000  0.4916990000000 1.0
C      1  0.3874810000000  0.5437490000000  0.5387920000000 1.0
C      1  0.4458650000000  0.4882420000000  0.4208850000000 1.0
C      1  0.4377070000000  0.5489360000000  0.4415740000000 1.0
C      1  0.4345590000000  0.5778030000000  0.5150430000000 1.0
C      1  0.4394270000000  0.5374530000000  0.5606400000000 1.0
C      1  0.4502120000000  0.4644190000000  0.5507210000000 1.0
C      1  0.4276860000000  0.4372140000000  0.5237100000000 1.0
C      1  0.4378430000000  0.4263670000000  0.4663530000000 1.0
C      1  0.4156640000000  0.5253270000000  0.4664030000000 1.0
C      1  0.4110370000000  0.5370730000000  0.4926580000000 1.0
C      1  0.4074500000000  0.5244270000000  0.5217780000000 1.0
C      1  0.3925310000000  0.4992960000000  0.5282450000000 1.0
C      1  0.4002880000000  0.4727150000000  0.5191530000000 1.0
C      1  0.4093500000000  0.4565890000000  0.4939490000000 1.0
C      1  0.4195440000000  0.4971080000000  0.4495330000000 1.0
C      1  0.5143820000000  0.5122740000000  0.6079620000000 1.0
C      1  0.5161960000000  0.4183030000000  0.5866550000000 1.0
C      1  0.5125270000000  0.4012450000000  0.4896460000000 1.0
C      1  0.5182100000000  0.4494110000000  0.4002660000000 1.0
C      1  0.5102980000000  0.5377980000000  0.4008700000000 1.0
C      1  0.5047950000000  0.6051370000000  0.4672910000000 1.0
C      1  0.5086150000000  0.5918380000000  0.5580280000000 1.0
C      1  0.4031450000000  0.4178870000000  0.5146790000000 1.0
C      1  0.4147720000000  0.4327100000000  0.4428580000000 1.0
C      1  0.4141010000000  0.4996550000000  0.4157740000000 1.0
C      1  0.4171280000000  0.5675410000000  0.4513040000000 1.0
C      1  0.4037770000000  0.5866640000000  0.5255270000000 1.0
C      1  0.4146000000000  0.5304250000000  0.5794050000000 1.0
C      1  0.4050370000000  0.4551710000000  0.5726530000000 1.0
C      1  0.5295920000000  0.5003560000000  0.4322970000000 1.0
C      1  0.5227690000000  0.5508530000000  0.4580520000000 1.0
C      1  0.5228170000000  0.5698120000000  0.5126600000000 1.0
C      1  0.5260760000000  0.5351720000000  0.5633070000000 1.0
C      1  0.5236370000000  0.4778650000000  0.5631530000000 1.0
C      1  0.5226560000000  0.4382120000000  0.5189450000000 1.0
C      1  0.5331280000000  0.4672710000000  0.4644150000000 1.0
C      1  0.4493060000000  0.4951110000000  0.5360050000000 1.0
C      1  0.4309840000000  0.4683660000000  0.5253650000000 1.0
C      1  0.4353290000000  0.4491790000000  0.4863610000000 1.0
C      1  0.4517940000000  0.4928880000000  0.4519570000000 1.0
C      1  0.4478010000000  0.5232760000000  0.4601070000000 1.0
C      1  0.4376370000000  0.5472980000000  0.5094830000000 1.0
C      1  0.4370450000000  0.5237070000000  0.5341190000000 1.0
C      1  0.5507220000000  0.5340160000000  0.4835590000000 1.0
C      1  0.5487520000000  0.5279510000000  0.5171840000000 1.0
C      1  0.5523970000000  0.5006080000000  0.5344640000000 1.0
C      1  0.5475620000000  0.4731300000000  0.5262490000000 1.0
C      1  0.5615630000000  0.4638370000000  0.4961470000000 1.0
C      1  0.5644490000000  0.4736280000000  0.4634310000000 1.0
C      1  0.5646910000000  0.5076610000000  0.4668940000000 1.0
C      1  0.4997740000000  0.4016080000000  0.4620050000000 1.0
C      1  0.5024040000000  0.4727100000000  0.3981830000000 1.0
C      1  0.4938980000000  0.5573400000000  0.4129510000000 1.0
C      1  0.4889280000000  0.6053240000000  0.4909750000000 1.0
C      1  0.4992930000000  0.5793610000000  0.5827790000000 1.0
C      1  0.5037230000000  0.4853370000000  0.6094560000000 1.0
C      1  0.5011940000000  0.4077490000000  0.5651780000000 1.0
C      1  0.5441500000000  0.6064110000000  0.5004790000000 1.0
C      1  0.5750750000000  0.5293150000000  0.6212350000000 1.0
C      1  0.5591410000000  0.4516810000000  0.6215170000000 1.0
C      1  0.5436650000000  0.4143630000000  0.5306810000000 1.0
C      1  0.5479570000000  0.4245310000000  0.4400590000000 1.0
C      1  0.5538740000000  0.4889850000000  0.3887930000000 1.0
C      1  0.5647790000000  0.6095090000000  0.4329410000000 1.0
C      1  0.3419340000000  0.4928300000000  0.4744100000000 1.0
C      1  0.5845230000000  0.4919330000000  0.5126650000000 1.0
C      1  0.6559430000000  0.4788800000000  0.4790460000000 1.0
C      1  0.3933980000000  0.4944090000000  0.4862730000000 1.0
C      1  0.3674600000000  0.4936130000000  0.4802940000000 1.0
C      1  0.6797150000000  0.4745360000000  0.4678560000000 1.0
C      1  0.5255850000000  0.4994350000000  0.5016310000000 1.0
C      1  0.4707990000000  0.5001950000000  0.5027080000000 1.0
C      1  0.6083980000000  0.4875680000000  0.5014250000000 1.0
C      1  0.6321700000000  0.4832240000000  0.4902350000000 1.0
C      1  0.4193620000000  0.4952060000000  0.4922570000000 1.0
C      1  0.5558790000000  0.4960990000000  0.4949910000000 1.0
C      1  0.4966460000000  0.5056120000000  0.5050880000000 1.0
C      1  0.4453190000000  0.4973490000000  0.4963110000000 1.0
C      1  0.7031090000000  0.4702610000000  0.4568450000000 1.0
END
