TITL C-2782232-2968-1149 -0.000319294363008069 125000 -360.219543256814 0 0 64 (C1) n - 1
REM
REM in /home/nfs/bkarasulu/CARBON/AIRSS/Generating-Clusters/REBO/Higher-Symm/SD-CG/HFTN-CG
REM
REM
REM
REM
REM
REM ./C.cell (12c818d87b63d06a65506943cc24bca4)
REM
REM compiler GCC version 9.2.1 20190827 (Red Hat 9.2.1-1)
REM options -cpp -mtune=generic -march=x86-64 -g -O0 -fpre-include=/usr/include/finclude/math-vector-fortran.h
REM seed -1622389330 715891819 1671700768 1100979799 947285499 1845350638 -896574812 982802854 1797474225 1286204416 1068054261 471775284 248945636 1704541960 -1450806191 318149620 -1712749792 -359462404 -263676314 -420935199 -378709972 178456716 1998825259 1369655396 1388957699 618194122 -1175488896 -1481023608 -1143871799 -1104583956 378408990 -91120190 558500265
REM
CELL 1.54180   50.00000   50.00000   50.00000   90.00000   90.00000   90.00000
LATT -1
SFAC C  
C      1  0.4975470000000  0.5389110000000  0.4444640000000 1.0
C      1  0.4559540000000  0.5391510000000  0.5281380000000 1.0
C      1  0.5439520000000  0.5404820000000  0.5270560000000 1.0
C      1  0.4983360000000  0.4604630000000  0.5529170000000 1.0
C      1  0.4532380000000  0.4617870000000  0.4704250000000 1.0
C      1  0.5476540000000  0.4616090000000  0.4742500000000 1.0
C      1  0.5182340000000  0.4821060000000  0.5516860000000 1.0
C      1  0.5360770000000  0.4845490000000  0.4605470000000 1.0
C      1  0.4471520000000  0.4845430000000  0.4874690000000 1.0
C      1  0.5128790000000  0.5153170000000  0.4501040000000 1.0
C      1  0.5328440000000  0.5177640000000  0.5395960000000 1.0
C      1  0.4491340000000  0.5152430000000  0.5130000000000 1.0
C      1  0.5108890000000  0.5058910000000  0.5727860000000 1.0
C      1  0.5573990000000  0.5077760000000  0.4534790000000 1.0
C      1  0.4293020000000  0.5072280000000  0.4729480000000 1.0
C      1  0.5110700000000  0.4939180000000  0.4257190000000 1.0
C      1  0.5565020000000  0.4954980000000  0.5471640000000 1.0
C      1  0.4294200000000  0.4946220000000  0.5279420000000 1.0
C      1  0.5265680000000  0.4434640000000  0.4827590000000 1.0
C      1  0.4721990000000  0.4443980000000  0.4837410000000 1.0
C      1  0.4994430000000  0.4430230000000  0.5299420000000 1.0
C      1  0.5230030000000  0.5568490000000  0.5159140000000 1.0
C      1  0.4736760000000  0.5561040000000  0.5138630000000 1.0
C      1  0.4998790000000  0.5557860000000  0.4682060000000 1.0
C      1  0.5169120000000  0.5185620000000  0.4793940000000 1.0
C      1  0.4739000000000  0.5200930000000  0.4964730000000 1.0
C      1  0.5069520000000  0.5138340000000  0.5303110000000 1.0
C      1  0.5185740000000  0.4769060000000  0.5211060000000 1.0
C      1  0.4713190000000  0.4787130000000  0.5042490000000 1.0
C      1  0.5097670000000  0.4786230000000  0.4738640000000 1.0
C      1  0.4798310000000  0.4997050000000  0.4313190000000 1.0
C      1  0.4522350000000  0.5010010000000  0.5503320000000 1.0
C      1  0.5689890000000  0.4998460000000  0.5181910000000 1.0
C      1  0.4799810000000  0.5029780000000  0.5702150000000 1.0
C      1  0.4498760000000  0.5028890000000  0.4476710000000 1.0
C      1  0.5678080000000  0.5042540000000  0.4843710000000 1.0
C      1  0.4697030000000  0.4727090000000  0.5586230000000 1.0
C      1  0.5660950000000  0.4727920000000  0.4974870000000 1.0
C      1  0.4631430000000  0.4719380000000  0.4421890000000 1.0
C      1  0.4674180000000  0.5306970000000  0.4381370000000 1.0
C      1  0.5654650000000  0.5311430000000  0.5056070000000 1.0
C      1  0.4668070000000  0.5313090000000  0.5567110000000 1.0
C      1  0.5595410000000  0.4644240000000  0.5458470000000 1.0
C      1  0.5079040000000  0.4632720000000  0.4221030000000 1.0
C      1  0.4285710000000  0.4638980000000  0.5324860000000 1.0
C      1  0.5635990000000  0.5383920000000  0.4564660000000 1.0
C      1  0.5134080000000  0.5375270000000  0.5702580000000 1.0
C      1  0.4283140000000  0.5380700000000  0.4674140000000 1.0
C      1  0.5249710000000  0.5505360000000  0.4861940000000 1.0
C      1  0.4740210000000  0.5507240000000  0.4830380000000 1.0
C      1  0.4977630000000  0.5594970000000  0.5287850000000 1.0
C      1  0.5257790000000  0.4454250000000  0.5128330000000 1.0
C      1  0.4733680000000  0.4473060000000  0.5151110000000 1.0
C      1  0.4984380000000  0.4479390000000  0.4688480000000 1.0
C      1  0.4530630000000  0.5483340000000  0.4603970000000 1.0
C      1  0.4936010000000  0.5488630000000  0.5552090000000 1.0
C      1  0.5556380000000  0.5486230000000  0.4808630000000 1.0
C      1  0.4535630000000  0.4536720000000  0.5387900000000 1.0
C      1  0.4888540000000  0.4528880000000  0.4394820000000 1.0
C      1  0.5551040000000  0.4539990000000  0.5206420000000 1.0
C      1  0.5418870000000  0.5028260000000  0.4256060000000 1.0
C      1  0.5430560000000  0.5027330000000  0.5751580000000 1.0
C      1  0.4136540000000  0.5016950000000  0.5007110000000 1.0
C      1  0.4996990000000  0.4976110000000  0.5006780000000 1.0
END
