TITL C-2782228-2999-1126 0.00538117053729285 125000 -1154.03164578055 0 0 198 (C1) n - 1
REM
REM in /home/nfs/bkarasulu/CARBON/AIRSS/Generating-Clusters/REBO/Higher-Symm/SD-CG/HFTN-CG
REM
REM
REM
REM
REM
REM ./C.cell (12c818d87b63d06a65506943cc24bca4)
REM
REM compiler GCC version 9.2.1 20190827 (Red Hat 9.2.1-1)
REM options -cpp -mtune=generic -march=x86-64 -g -O0 -fpre-include=/usr/include/finclude/math-vector-fortran.h
REM seed 1907012611 483519355 -91988693 402478334 826499538 6675397 75766704 327770558 1637104766 -905824764 -684915382 -721727337 -619434027 1382115536 801053552 759389484 558122233 -912482347 -1027410209 1658705053 2027491915 832415186 -1549371485 -1664522191 -1439665923 -1845671579 327112256 1888699036 -2024149388 1304227530 -816238828 -464538768 -187797755
REM
CELL 1.54180   50.00000   50.00000   50.00000   90.00000   90.00000   90.00000
LATT -1
SFAC C  
C      1  0.4262560000000  0.5269300000000  0.5029380000000 1.0
C      1  0.5301640000000  0.5345220000000  0.4437010000000 1.0
C      1  0.5515310000000  0.5269370000000  0.5650880000000 1.0
C      1  0.4359880000000  0.5654670000000  0.4358220000000 1.0
C      1  0.5835440000000  0.5617870000000  0.4804060000000 1.0
C      1  0.4858700000000  0.5695310000000  0.5848100000000 1.0
C      1  0.5186680000000  0.5339510000000  0.4965530000000 1.0
C      1  0.4918340000000  0.5230740000000  0.5287540000000 1.0
C      1  0.4727900000000  0.5311290000000  0.4837250000000 1.0
C      1  0.4715440000000  0.4118110000000  0.5462310000000 1.0
C      1  0.4695880000000  0.4084590000000  0.4515270000000 1.0
C      1  0.5590500000000  0.4115860000000  0.4990650000000 1.0
C      1  0.5514090000000  0.5509130000000  0.5966040000000 1.0
C      1  0.3901750000000  0.5420770000000  0.4970240000000 1.0
C      1  0.5506070000000  0.5361430000000  0.4094190000000 1.0
C      1  0.6132660000000  0.5098180000000  0.5300340000000 1.0
C      1  0.4189610000000  0.5123580000000  0.5840430000000 1.0
C      1  0.4786050000000  0.5164670000000  0.3850770000000 1.0
C      1  0.4139550000000  0.5551790000000  0.5178100000000 1.0
C      1  0.5279980000000  0.5548020000000  0.4202000000000 1.0
C      1  0.5555900000000  0.5608750000000  0.5640430000000 1.0
C      1  0.4705290000000  0.5691220000000  0.5126860000000 1.0
C      1  0.4994960000000  0.5677410000000  0.4691200000000 1.0
C      1  0.5246290000000  0.5629680000000  0.5141300000000 1.0
C      1  0.5482960000000  0.5409730000000  0.4707760000000 1.0
C      1  0.4911550000000  0.5485440000000  0.5512290000000 1.0
C      1  0.4443320000000  0.5459170000000  0.4805150000000 1.0
C      1  0.4713320000000  0.5409020000000  0.5133350000000 1.0
C      1  0.4997810000000  0.5383150000000  0.4742340000000 1.0
C      1  0.5204740000000  0.5342250000000  0.5283650000000 1.0
C      1  0.5340770000000  0.4207650000000  0.5603510000000 1.0
C      1  0.4276090000000  0.4158750000000  0.4997170000000 1.0
C      1  0.5346320000000  0.4186310000000  0.4399240000000 1.0
C      1  0.5411960000000  0.4894750000000  0.4312230000000 1.0
C      1  0.5440420000000  0.4905090000000  0.5796200000000 1.0
C      1  0.4224790000000  0.4883950000000  0.4929570000000 1.0
C      1  0.5092480000000  0.5998960000000  0.4759670000000 1.0
C      1  0.5056960000000  0.6047980000000  0.5094410000000 1.0
C      1  0.4713110000000  0.6036950000000  0.5060440000000 1.0
C      1  0.5251470000000  0.4102150000000  0.4995290000000 1.0
C      1  0.4906690000000  0.4134730000000  0.5192140000000 1.0
C      1  0.4868020000000  0.4065190000000  0.4804080000000 1.0
C      1  0.5399530000000  0.5167330000000  0.5383740000000 1.0
C      1  0.4545900000000  0.5140570000000  0.5146910000000 1.0
C      1  0.5065780000000  0.5158140000000  0.4545880000000 1.0
C      1  0.3827790000000  0.4881740000000  0.4937610000000 1.0
C      1  0.5599900000000  0.4884420000000  0.3962180000000 1.0
C      1  0.5563390000000  0.4971020000000  0.6102260000000 1.0
C      1  0.4558520000000  0.4397000000000  0.5522840000000 1.0
C      1  0.4720360000000  0.4371100000000  0.4365410000000 1.0
C      1  0.5705110000000  0.4400510000000  0.5091920000000 1.0
C      1  0.5165150000000  0.3977580000000  0.4685680000000 1.0
C      1  0.5202260000000  0.3994440000000  0.5297670000000 1.0
C      1  0.4634710000000  0.3994120000000  0.5051090000000 1.0
C      1  0.4431410000000  0.4435210000000  0.5108640000000 1.0
C      1  0.5157920000000  0.4470520000000  0.4457810000000 1.0
C      1  0.5382420000000  0.4524710000000  0.5457340000000 1.0
C      1  0.4543080000000  0.5043770000000  0.4035620000000 1.0
C      1  0.6140850000000  0.4984230000000  0.5020550000000 1.0
C      1  0.4455570000000  0.5062670000000  0.5938080000000 1.0
C      1  0.5639730000000  0.4823180000000  0.4888020000000 1.0
C      1  0.4914540000000  0.4913940000000  0.5578320000000 1.0
C      1  0.4513810000000  0.4944380000000  0.4484720000000 1.0
C      1  0.5500700000000  0.4381030000000  0.5809400000000 1.0
C      1  0.4054900000000  0.4382480000000  0.4991120000000 1.0
C      1  0.5445740000000  0.4399720000000  0.4191910000000 1.0
C      1  0.4625970000000  0.4878600000000  0.4243980000000 1.0
C      1  0.5830830000000  0.4936740000000  0.5093840000000 1.0
C      1  0.4605000000000  0.4905720000000  0.5719110000000 1.0
C      1  0.4527150000000  0.4378110000000  0.4727480000000 1.0
C      1  0.5403470000000  0.4371210000000  0.4747710000000 1.0
C      1  0.5009300000000  0.4390670000000  0.5481300000000 1.0
C      1  0.4465580000000  0.4516760000000  0.4204090000000 1.0
C      1  0.5948190000000  0.4580650000000  0.4955330000000 1.0
C      1  0.4565000000000  0.4530980000000  0.5825550000000 1.0
C      1  0.5691240000000  0.4543430000000  0.4721310000000 1.0
C      1  0.4902610000000  0.4519090000000  0.5768180000000 1.0
C      1  0.4333930000000  0.4498090000000  0.4517880000000 1.0
C      1  0.5756050000000  0.4438020000000  0.5707470000000 1.0
C      1  0.4011550000000  0.4481200000000  0.5251550000000 1.0
C      1  0.5230610000000  0.4492720000000  0.4032730000000 1.0
C      1  0.5102020000000  0.5097560000000  0.6186650000000 1.0
C      1  0.3935850000000  0.5105100000000  0.4481310000000 1.0
C      1  0.5933910000000  0.5104240000000  0.4317000000000 1.0
C      1  0.5549860000000  0.5138880000000  0.4421500000000 1.0
C      1  0.5244830000000  0.5183320000000  0.5823080000000 1.0
C      1  0.4248950000000  0.5121200000000  0.4723640000000 1.0
C      1  0.5012650000000  0.4714180000000  0.5247880000000 1.0
C      1  0.4696810000000  0.4746700000000  0.4870620000000 1.0
C      1  0.5250490000000  0.4787520000000  0.4805960000000 1.0
C      1  0.5765390000000  0.5365900000000  0.4314310000000 1.0
C      1  0.5233970000000  0.5363360000000  0.6092560000000 1.0
C      1  0.4017260000000  0.5366830000000  0.4661380000000 1.0
C      1  0.6035820000000  0.5021570000000  0.4567310000000 1.0
C      1  0.4838120000000  0.5030730000000  0.6137710000000 1.0
C      1  0.4131800000000  0.5037820000000  0.4274080000000 1.0
C      1  0.5836790000000  0.4703340000000  0.5752300000000 1.0
C      1  0.3891000000000  0.4745140000000  0.5226230000000 1.0
C      1  0.5292650000000  0.4751030000000  0.3922390000000 1.0
C      1  0.4416200000000  0.4097540000000  0.5301680000000 1.0
C      1  0.5016060000000  0.4106700000000  0.4399370000000 1.0
C      1  0.5515420000000  0.4138710000000  0.5323080000000 1.0
C      1  0.5365780000000  0.4615590000000  0.5884680000000 1.0
C      1  0.4099190000000  0.4606190000000  0.4822770000000 1.0
C      1  0.5580850000000  0.4618390000000  0.4297500000000 1.0
C      1  0.5765790000000  0.5236800000000  0.5153550000000 1.0
C      1  0.4650640000000  0.5209980000000  0.5622020000000 1.0
C      1  0.4721300000000  0.5349810000000  0.4337110000000 1.0
C      1  0.4655950000000  0.5505510000000  0.5940320000000 1.0
C      1  0.4402710000000  0.5480340000000  0.4135650000000 1.0
C      1  0.6020160000000  0.5426820000000  0.4910390000000 1.0
C      1  0.4472920000000  0.4050680000000  0.4759510000000 1.0
C      1  0.5488610000000  0.4060910000000  0.4676980000000 1.0
C      1  0.5030690000000  0.4072930000000  0.5566560000000 1.0
C      1  0.5342690000000  0.5826840000000  0.4919200000000 1.0
C      1  0.4937360000000  0.5824660000000  0.5302870000000 1.0
C      1  0.4718720000000  0.5862730000000  0.4765750000000 1.0
C      1  0.5178490000000  0.5652180000000  0.5965050000000 1.0
C      1  0.4157810000000  0.5623800000000  0.4558770000000 1.0
C      1  0.5772500000000  0.5608480000000  0.4511940000000 1.0
C      1  0.6046040000000  0.4897180000000  0.5485690000000 1.0
C      1  0.4094100000000  0.4898730000000  0.5671720000000 1.0
C      1  0.4819980000000  0.4825310000000  0.3847640000000 1.0
C      1  0.5584600000000  0.5366100000000  0.4986660000000 1.0
C      1  0.4579390000000  0.5533860000000  0.5551020000000 1.0
C      1  0.4740950000000  0.5665710000000  0.4239860000000 1.0
C      1  0.5765840000000  0.4360600000000  0.5409120000000 1.0
C      1  0.4234450000000  0.4356510000000  0.5443780000000 1.0
C      1  0.4967860000000  0.4338060000000  0.4145320000000 1.0
C      1  0.4813300000000  0.4542720000000  0.4645180000000 1.0
C      1  0.5421700000000  0.4574450000000  0.5013290000000 1.0
C      1  0.4780720000000  0.4501970000000  0.5287740000000 1.0
C      1  0.4745630000000  0.4568350000000  0.4022790000000 1.0
C      1  0.5964050000000  0.4620910000000  0.5296860000000 1.0
C      1  0.4255720000000  0.4595590000000  0.5688780000000 1.0
C      1  0.5324240000000  0.5996580000000  0.5276930000000 1.0
C      1  0.4577410000000  0.5972550000000  0.5368320000000 1.0
C      1  0.4932280000000  0.5988920000000  0.4458030000000 1.0
C      1  0.4343030000000  0.5179550000000  0.5480150000000 1.0
C      1  0.4962530000000  0.5286610000000  0.4186300000000 1.0
C      1  0.5789030000000  0.5200260000000  0.5476790000000 1.0
C      1  0.5558550000000  0.5070700000000  0.4720740000000 1.0
C      1  0.4988500000000  0.5201290000000  0.5678850000000 1.0
C      1  0.4487020000000  0.5264800000000  0.4527210000000 1.0
C      1  0.5568700000000  0.5765970000000  0.5334260000000 1.0
C      1  0.4377250000000  0.5718600000000  0.5357030000000 1.0
C      1  0.5054530000000  0.5791780000000  0.4224950000000 1.0
C      1  0.5803980000000  0.5537000000000  0.5426170000000 1.0
C      1  0.4192810000000  0.5465070000000  0.5495820000000 1.0
C      1  0.5025520000000  0.5543950000000  0.3990850000000 1.0
C      1  0.5098400000000  0.5022440000000  0.3851410000000 1.0
C      1  0.5945030000000  0.5016290000000  0.5791090000000 1.0
C      1  0.3945370000000  0.4961490000000  0.5433550000000 1.0
C      1  0.4647360000000  0.5231150000000  0.6064930000000 1.0
C      1  0.4316240000000  0.5201370000000  0.4124240000000 1.0
C      1  0.6105520000000  0.5171610000000  0.4797860000000 1.0
C      1  0.5274930000000  0.4878180000000  0.6167760000000 1.0
C      1  0.3862030000000  0.4877470000000  0.4651760000000 1.0
C      1  0.5834400000000  0.4888060000000  0.4148220000000 1.0
C      1  0.5321680000000  0.5057040000000  0.4944990000000 1.0
C      1  0.4921110000000  0.4971580000000  0.5112580000000 1.0
C      1  0.4819360000000  0.5026780000000  0.4829940000000 1.0
C      1  0.4455980000000  0.4688770000000  0.4983020000000 1.0
C      1  0.5272630000000  0.4720510000000  0.4531080000000 1.0
C      1  0.5185660000000  0.4747730000000  0.5496310000000 1.0
C      1  0.4899910000000  0.4860270000000  0.4546450000000 1.0
C      1  0.5448370000000  0.4974220000000  0.5210720000000 1.0
C      1  0.4681220000000  0.4912300000000  0.5331860000000 1.0
C      1  0.4358040000000  0.5421490000000  0.5792590000000 1.0
C      1  0.4693480000000  0.5474070000000  0.3959070000000 1.0
C      1  0.6041920000000  0.5408440000000  0.5243260000000 1.0
C      1  0.5216340000000  0.4378240000000  0.5201930000000 1.0
C      1  0.4737230000000  0.4372570000000  0.5003860000000 1.0
C      1  0.5057730000000  0.4350150000000  0.4754590000000 1.0
C      1  0.5226530000000  0.5818870000000  0.5708680000000 1.0
C      1  0.4190980000000  0.5803770000000  0.4767600000000 1.0
C      1  0.5557460000000  0.5774630000000  0.4452680000000 1.0
C      1  0.4294300000000  0.4937560000000  0.5247950000000 1.0
C      1  0.5120470000000  0.5003490000000  0.4247670000000 1.0
C      1  0.5645840000000  0.4903680000000  0.5561930000000 1.0
C      1  0.4775210000000  0.4716960000000  0.6022540000000 1.0
C      1  0.4217890000000  0.4734100000000  0.4290720000000 1.0
C      1  0.5976320000000  0.4712690000000  0.4640580000000 1.0
C      1  0.3962530000000  0.5126150000000  0.5132990000000 1.0
C      1  0.5407600000000  0.5129300000000  0.3949320000000 1.0
C      1  0.5707380000000  0.5222810000000  0.5928980000000 1.0
C      1  0.5869050000000  0.4646050000000  0.4339010000000 1.0
C      1  0.5096350000000  0.4623670000000  0.6028830000000 1.0
C      1  0.4013530000000  0.4617580000000  0.4523090000000 1.0
C      1  0.4427460000000  0.4772510000000  0.5491090000000 1.0
C      1  0.4920990000000  0.4765090000000  0.4228330000000 1.0
C      1  0.5651430000000  0.4741170000000  0.5294020000000 1.0
C      1  0.5314310000000  0.5695320000000  0.4628160000000 1.0
C      1  0.5158670000000  0.5688310000000  0.5468590000000 1.0
C      1  0.4458520000000  0.5761340000000  0.4922950000000 1.0
C      1  0.4794300000000  0.5865140000000  0.5608710000000 1.0
C      1  0.4610730000000  0.5866490000000  0.4451870000000 1.0
C      1  0.5655720000000  0.5757930000000  0.5003330000000 1.0
END
