TITL C-2782226-7400-1206 0.00219973350047356 125000 -1021.94822418615 0 0 172 (C1) n - 1
REM
REM in /home/nfs/bkarasulu/CARBON/AIRSS/Generating-Clusters/REBO/Higher-Symm/SD-CG/HFTN-CG
REM
REM
REM
REM
REM
REM ./C.cell (12c818d87b63d06a65506943cc24bca4)
REM
REM compiler GCC version 9.2.1 20190827 (Red Hat 9.2.1-1)
REM options -cpp -mtune=generic -march=x86-64 -g -O0 -fpre-include=/usr/include/finclude/math-vector-fortran.h
REM seed 655755917 627997575 -133295412 -2068945447 -1095027144 -79984706 300014847 -2028026311 -1718311765 -1439256268 231238568 -2123460081 -965135598 1283008964 -508934470 -121671344 202292790 -338938084 1725572027 -2138606181 295863346 1147938036 1823236423 -1142108498 649968579 1179960484 -531172541 348830010 -1419474613 933883175 2001663054 -1298431818 654757856
REM
CELL 1.54180   50.00000   50.00000   50.00000   90.00000   90.00000   90.00000
LATT -1
SFAC C  
C      1  0.4632250000000  0.6044870000000  0.4876890000000 1.0
C      1  0.4625680000000  0.4372490000000  0.4179270000000 1.0
C      1  0.4613050000000  0.4597540000000  0.5956130000000 1.0
C      1  0.4860460000000  0.4323730000000  0.5193040000000 1.0
C      1  0.4896010000000  0.5493320000000  0.5505380000000 1.0
C      1  0.4845750000000  0.5174140000000  0.4323040000000 1.0
C      1  0.5557890000000  0.5949660000000  0.5199390000000 1.0
C      1  0.5547440000000  0.4704210000000  0.4093160000000 1.0
C      1  0.5543660000000  0.4368500000000  0.5722400000000 1.0
C      1  0.5589380000000  0.4192860000000  0.5512620000000 1.0
C      1  0.5604440000000  0.5849840000000  0.5453320000000 1.0
C      1  0.5585030000000  0.4975120000000  0.4053520000000 1.0
C      1  0.5388230000000  0.4906030000000  0.5538120000000 1.0
C      1  0.5390440000000  0.5483940000000  0.4818370000000 1.0
C      1  0.5421640000000  0.4610030000000  0.4684150000000 1.0
C      1  0.4213640000000  0.5581140000000  0.4968320000000 1.0
C      1  0.4201430000000  0.4685350000000  0.4500100000000 1.0
C      1  0.4190320000000  0.4737490000000  0.5517530000000 1.0
C      1  0.4591510000000  0.4675270000000  0.4572550000000 1.0
C      1  0.4581550000000  0.4799850000000  0.5507280000000 1.0
C      1  0.4645300000000  0.5595400000000  0.4969070000000 1.0
C      1  0.5472370000000  0.5939600000000  0.4868990000000 1.0
C      1  0.5472800000000  0.4413350000000  0.4255870000000 1.0
C      1  0.5461810000000  0.4656340000000  0.5888190000000 1.0
C      1  0.5020340000000  0.4531860000000  0.4420040000000 1.0
C      1  0.5001180000000  0.4724860000000  0.5699790000000 1.0
C      1  0.5012570000000  0.5735550000000  0.4897260000000 1.0
C      1  0.5167580000000  0.4751810000000  0.5929920000000 1.0
C      1  0.5181090000000  0.5928140000000  0.4768060000000 1.0
C      1  0.5182330000000  0.4324080000000  0.4316290000000 1.0
C      1  0.5009090000000  0.5187060000000  0.6112080000000 1.0
C      1  0.5040700000000  0.5890580000000  0.4290110000000 1.0
C      1  0.5043190000000  0.3948050000000  0.4592250000000 1.0
C      1  0.5569650000000  0.5181440000000  0.5823930000000 1.0
C      1  0.5559020000000  0.5622540000000  0.4449910000000 1.0
C      1  0.5571810000000  0.4209410000000  0.4747410000000 1.0
C      1  0.5622550000000  0.5340620000000  0.4748680000000 1.0
C      1  0.5636630000000  0.4650750000000  0.4858870000000 1.0
C      1  0.5596480000000  0.5041880000000  0.5413360000000 1.0
C      1  0.5484640000000  0.5234320000000  0.4110620000000 1.0
C      1  0.5498510000000  0.4103130000000  0.5257760000000 1.0
C      1  0.5505290000000  0.5667850000000  0.5648090000000 1.0
C      1  0.4004970000000  0.4713810000000  0.4981390000000 1.0
C      1  0.3980410000000  0.5140050000000  0.5243030000000 1.0
C      1  0.3987770000000  0.5149900000000  0.4735250000000 1.0
C      1  0.5825910000000  0.4590860000000  0.4512260000000 1.0
C      1  0.5827210000000  0.4791020000000  0.5621400000000 1.0
C      1  0.5827750000000  0.5643660000000  0.4904540000000 1.0
C      1  0.4028050000000  0.4865990000000  0.4719730000000 1.0
C      1  0.4012540000000  0.4827890000000  0.5240720000000 1.0
C      1  0.4016310000000  0.5305130000000  0.5008010000000 1.0
C      1  0.5376460000000  0.5567820000000  0.5147640000000 1.0
C      1  0.5389470000000  0.4857050000000  0.4448270000000 1.0
C      1  0.5383640000000  0.4583880000000  0.5426000000000 1.0
C      1  0.5281230000000  0.5232630000000  0.5931640000000 1.0
C      1  0.5260830000000  0.5666130000000  0.4379540000000 1.0
C      1  0.5274100000000  0.4121460000000  0.4741310000000 1.0
C      1  0.4758280000000  0.5549360000000  0.4059090000000 1.0
C      1  0.4763570000000  0.3912400000000  0.4999410000000 1.0
C      1  0.4725090000000  0.5537970000000  0.5961000000000 1.0
C      1  0.5822980000000  0.5200020000000  0.4436790000000 1.0
C      1  0.5822010000000  0.4423210000000  0.5127540000000 1.0
C      1  0.5807570000000  0.5378230000000  0.5421000000000 1.0
C      1  0.5003830000000  0.4066430000000  0.5535050000000 1.0
C      1  0.5015680000000  0.5943960000000  0.5542290000000 1.0
C      1  0.5000630000000  0.5007910000000  0.3928720000000 1.0
C      1  0.4735350000000  0.4369630000000  0.5823920000000 1.0
C      1  0.4751850000000  0.6032840000000  0.5140590000000 1.0
C      1  0.4741610000000  0.4607110000000  0.4054450000000 1.0
C      1  0.4236810000000  0.5071700000000  0.5459120000000 1.0
C      1  0.4192700000000  0.5416870000000  0.4669790000000 1.0
C      1  0.4238560000000  0.4534770000000  0.4803660000000 1.0
C      1  0.4749660000000  0.5834540000000  0.4423880000000 1.0
C      1  0.4761020000000  0.4110440000000  0.4579460000000 1.0
C      1  0.4726980000000  0.5079670000000  0.5990160000000 1.0
C      1  0.5635790000000  0.5375250000000  0.4307580000000 1.0
C      1  0.5644950000000  0.4214030000000  0.5037500000000 1.0
C      1  0.5644800000000  0.5415850000000  0.5657100000000 1.0
C      1  0.5743490000000  0.4814700000000  0.5120610000000 1.0
C      1  0.5660710000000  0.5147560000000  0.5096640000000 1.0
C      1  0.5739450000000  0.5029500000000  0.4787610000000 1.0
C      1  0.4278820000000  0.4407440000000  0.5522670000000 1.0
C      1  0.4322560000000  0.5706940000000  0.5266640000000 1.0
C      1  0.4306160000000  0.4887060000000  0.4246680000000 1.0
C      1  0.4595790000000  0.5656420000000  0.4266500000000 1.0
C      1  0.4606540000000  0.4047970000000  0.4805340000000 1.0
C      1  0.4569550000000  0.5304980000000  0.5917340000000 1.0
C      1  0.5170580000000  0.5171400000000  0.4931000000000 1.0
C      1  0.5170600000000  0.4842270000000  0.4884880000000 1.0
C      1  0.5191180000000  0.4959980000000  0.5196630000000 1.0
C      1  0.4867160000000  0.4990940000000  0.4676200000000 1.0
C      1  0.4884090000000  0.4716550000000  0.5132940000000 1.0
C      1  0.4894000000000  0.5225420000000  0.5210400000000 1.0
C      1  0.4564620000000  0.5917360000000  0.5333180000000 1.0
C      1  0.4549310000000  0.4825510000000  0.4042370000000 1.0
C      1  0.4544970000000  0.4238640000000  0.5650220000000 1.0
C      1  0.4428970000000  0.4467150000000  0.4369310000000 1.0
C      1  0.4416060000000  0.4710720000000  0.5773690000000 1.0
C      1  0.4431900000000  0.5825950000000  0.4876080000000 1.0
C      1  0.5161120000000  0.4406940000000  0.4769760000000 1.0
C      1  0.5145960000000  0.5093630000000  0.5685520000000 1.0
C      1  0.5134580000000  0.5497960000000  0.4603670000000 1.0
C      1  0.4486170000000  0.4320130000000  0.4906390000000 1.0
C      1  0.4483280000000  0.5247110000000  0.5615800000000 1.0
C      1  0.4467110000000  0.5434430000000  0.4468000000000 1.0
C      1  0.5180360000000  0.5692770000000  0.5703280000000 1.0
C      1  0.5170490000000  0.5282670000000  0.4039940000000 1.0
C      1  0.5179600000000  0.4018910000000  0.5245660000000 1.0
C      1  0.4025050000000  0.4238240000000  0.5558710000000 1.0
C      1  0.4073600000000  0.5794220000000  0.5427360000000 1.0
C      1  0.4059980000000  0.4974960000000  0.4082220000000 1.0
C      1  0.5018060000000  0.4859720000000  0.6145870000000 1.0
C      1  0.5039880000000  0.6067130000000  0.4564600000000 1.0
C      1  0.5038000000000  0.4081100000000  0.4296650000000 1.0
C      1  0.4773570000000  0.5707760000000  0.4705350000000 1.0
C      1  0.4780270000000  0.4427210000000  0.4552830000000 1.0
C      1  0.4764480000000  0.4901230000000  0.5727340000000 1.0
C      1  0.4783200000000  0.6155000000000  0.4659920000000 1.0
C      1  0.4777820000000  0.4128320000000  0.4180930000000 1.0
C      1  0.4762800000000  0.4724480000000  0.6167410000000 1.0
C      1  0.5062140000000  0.5492050000000  0.5951160000000 1.0
C      1  0.5074880000000  0.5603790000000  0.4101410000000 1.0
C      1  0.5081680000000  0.3918810000000  0.4935040000000 1.0
C      1  0.5069880000000  0.5468640000000  0.5048610000000 1.0
C      1  0.5093000000000  0.4786600000000  0.4564990000000 1.0
C      1  0.5075400000000  0.4713710000000  0.5403860000000 1.0
C      1  0.5174090000000  0.5081660000000  0.4310840000000 1.0
C      1  0.5187740000000  0.4351940000000  0.5283440000000 1.0
C      1  0.5219330000000  0.5516930000000  0.5414770000000 1.0
C      1  0.4733880000000  0.5273040000000  0.4060220000000 1.0
C      1  0.4737120000000  0.4052210000000  0.5239680000000 1.0
C      1  0.4777320000000  0.5676490000000  0.5714150000000 1.0
C      1  0.5154520000000  0.5208380000000  0.5397500000000 1.0
C      1  0.5119530000000  0.5182280000000  0.4612570000000 1.0
C      1  0.5146800000000  0.4557750000000  0.5043850000000 1.0
C      1  0.5915590000000  0.5099450000000  0.5399720000000 1.0
C      1  0.5956660000000  0.5342370000000  0.4676620000000 1.0
C      1  0.5949770000000  0.4559670000000  0.4892400000000 1.0
C      1  0.4381560000000  0.4655230000000  0.5088420000000 1.0
C      1  0.4362680000000  0.5159440000000  0.5143100000000 1.0
C      1  0.4373080000000  0.5184700000000  0.4822000000000 1.0
C      1  0.4703160000000  0.5929160000000  0.5590310000000 1.0
C      1  0.4684160000000  0.5040160000000  0.3897530000000 1.0
C      1  0.4685940000000  0.4019580000000  0.5522330000000 1.0
C      1  0.5682800000000  0.5472630000000  0.5132600000000 1.0
C      1  0.5703080000000  0.4887640000000  0.4501010000000 1.0
C      1  0.5701470000000  0.4628830000000  0.5371010000000 1.0
C      1  0.4808970000000  0.5431120000000  0.4518530000000 1.0
C      1  0.4833780000000  0.4369670000000  0.4875040000000 1.0
C      1  0.4827890000000  0.5209700000000  0.5627400000000 1.0
C      1  0.4424340000000  0.5403600000000  0.5340930000000 1.0
C      1  0.4379010000000  0.5113590000000  0.4489690000000 1.0
C      1  0.4437820000000  0.4376500000000  0.5238940000000 1.0
C      1  0.5658930000000  0.5754470000000  0.4701460000000 1.0
C      1  0.5665760000000  0.4356810000000  0.4498800000000 1.0
C      1  0.5660770000000  0.4893740000000  0.5827110000000 1.0
C      1  0.5024880000000  0.6038900000000  0.5259150000000 1.0
C      1  0.5014080000000  0.4713220000000  0.3994140000000 1.0
C      1  0.5010250000000  0.4272120000000  0.5758450000000 1.0
C      1  0.4553970000000  0.4773510000000  0.4851300000000 1.0
C      1  0.4508880000000  0.4898220000000  0.5226870000000 1.0
C      1  0.4648640000000  0.5295110000000  0.4902460000000 1.0
C      1  0.5261400000000  0.4603760000000  0.4049410000000 1.0
C      1  0.5254400000000  0.4381410000000  0.5824010000000 1.0
C      1  0.5271310000000  0.6043640000000  0.5135600000000 1.0
C      1  0.4646060000000  0.4954930000000  0.4446140000000 1.0
C      1  0.4689590000000  0.4560070000000  0.5337310000000 1.0
C      1  0.4709330000000  0.5488810000000  0.5246970000000 1.0
C      1  0.6106000000000  0.5179010000000  0.4852690000000 1.0
C      1  0.6024710000000  0.4849620000000  0.4839770000000 1.0
C      1  0.6031840000000  0.5005900000000  0.5134790000000 1.0
C      1  0.4768900000000  0.4993150000000  0.5001900000000 1.0
END
