TITL C-2782237-5345-276 0.00235135170492082 125000 -884.659947545919 0 0 157 (C1) n - 1
REM
REM in /home/nfs/bkarasulu/CARBON/AIRSS/Generating-Clusters/REBO/Higher-Symm/SD-CG/HFTN-CG
REM
REM
REM
REM
REM
REM ./C.cell (12c818d87b63d06a65506943cc24bca4)
REM
REM compiler GCC version 9.2.1 20190827 (Red Hat 9.2.1-1)
REM options -cpp -mtune=generic -march=x86-64 -g -O0 -fpre-include=/usr/include/finclude/math-vector-fortran.h
REM seed -534940766 -502248002 1547319560 114637865 1911346279 -1592930376 -2057469555 435705961 -2099047773 -40379604 -1114335741 -1963203075 -1449462636 -1124463895 -394568882 1740923786 1548161162 168842139 1814406430 368938665 1521391435 2106330604 -634315870 -1655434248 460593511 1990689394 738273302 1289905224 1222213775 -465915816 -572059915 -1671861697 219673736
REM
CELL 1.54180   50.00000   50.00000   50.00000   90.00000   90.00000   90.00000
LATT -1
SFAC C  
C      1  0.4564570000000  0.4639200000000  0.5358860000000 1.0
C      1  0.4504750000000  0.5512650000000  0.5027060000000 1.0
C      1  0.4427240000000  0.4833460000000  0.4542930000000 1.0
C      1  0.5534010000000  0.4645660000000  0.5379630000000 1.0
C      1  0.5571900000000  0.5455160000000  0.5175010000000 1.0
C      1  0.5522590000000  0.4982740000000  0.4495070000000 1.0
C      1  0.4882110000000  0.5625330000000  0.5270630000000 1.0
C      1  0.4829630000000  0.4950710000000  0.4414540000000 1.0
C      1  0.4843710000000  0.4483740000000  0.5385520000000 1.0
C      1  0.5193020000000  0.5564260000000  0.5209250000000 1.0
C      1  0.5147390000000  0.4947220000000  0.4363680000000 1.0
C      1  0.5146690000000  0.4560460000000  0.5325160000000 1.0
C      1  0.5667760000000  0.5838560000000  0.4900740000000 1.0
C      1  0.5695750000000  0.4369540000000  0.4360170000000 1.0
C      1  0.5783630000000  0.4669060000000  0.5835490000000 1.0
C      1  0.4203130000000  0.5678410000000  0.4748400000000 1.0
C      1  0.4230320000000  0.4333090000000  0.4402930000000 1.0
C      1  0.4303490000000  0.4808500000000  0.5805160000000 1.0
C      1  0.5395340000000  0.5828460000000  0.5425900000000 1.0
C      1  0.5426850000000  0.4952600000000  0.4081900000000 1.0
C      1  0.5372960000000  0.4272230000000  0.5481420000000 1.0
C      1  0.4597920000000  0.5848340000000  0.5431870000000 1.0
C      1  0.4626120000000  0.4927170000000  0.4075400000000 1.0
C      1  0.4551490000000  0.4247370000000  0.5506070000000 1.0
C      1  0.3890310000000  0.4778610000000  0.5156130000000 1.0
C      1  0.3966300000000  0.5094000000000  0.5090150000000 1.0
C      1  0.3852880000000  0.4898090000000  0.4846890000000 1.0
C      1  0.6038110000000  0.4812100000000  0.5029930000000 1.0
C      1  0.6100570000000  0.5130720000000  0.5070970000000 1.0
C      1  0.6091500000000  0.5004990000000  0.4767380000000 1.0
C      1  0.4123440000000  0.4488310000000  0.5263520000000 1.0
C      1  0.4179630000000  0.5504530000000  0.5268120000000 1.0
C      1  0.4122330000000  0.4944170000000  0.4342660000000 1.0
C      1  0.5850170000000  0.4433710000000  0.5257360000000 1.0
C      1  0.5890420000000  0.5471320000000  0.5408230000000 1.0
C      1  0.5899310000000  0.5098310000000  0.4442230000000 1.0
C      1  0.4219030000000  0.4494620000000  0.4690450000000 1.0
C      1  0.4334290000000  0.4976670000000  0.5547900000000 1.0
C      1  0.4083520000000  0.5398030000000  0.4664730000000 1.0
C      1  0.5727480000000  0.4516110000000  0.4665680000000 1.0
C      1  0.5813770000000  0.4891550000000  0.5588480000000 1.0
C      1  0.5814250000000  0.5534740000000  0.4846170000000 1.0
C      1  0.4558270000000  0.5402830000000  0.5339050000000 1.0
C      1  0.4485130000000  0.5133400000000  0.4499500000000 1.0
C      1  0.4588570000000  0.4570790000000  0.5041160000000 1.0
C      1  0.5448100000000  0.5343310000000  0.5420460000000 1.0
C      1  0.5388620000000  0.5234130000000  0.4502400000000 1.0
C      1  0.5454510000000  0.4560200000000  0.5072870000000 1.0
C      1  0.5216390000000  0.4707610000000  0.4139630000000 1.0
C      1  0.5138370000000  0.4450320000000  0.5651410000000 1.0
C      1  0.5156650000000  0.5903170000000  0.5195160000000 1.0
C      1  0.4882440000000  0.4721770000000  0.4166880000000 1.0
C      1  0.4808120000000  0.4374730000000  0.5694860000000 1.0
C      1  0.4816200000000  0.5939640000000  0.5184790000000 1.0
C      1  0.4860330000000  0.5342250000000  0.5086850000000 1.0
C      1  0.4739740000000  0.4940000000000  0.4739820000000 1.0
C      1  0.4848190000000  0.4851550000000  0.5174330000000 1.0
C      1  0.5246660000000  0.5250020000000  0.5088310000000 1.0
C      1  0.5189290000000  0.4939760000000  0.4702980000000 1.0
C      1  0.5242740000000  0.4861510000000  0.5227780000000 1.0
C      1  0.5157200000000  0.5223810000000  0.5405850000000 1.0
C      1  0.5073070000000  0.5246040000000  0.4615140000000 1.0
C      1  0.5213360000000  0.4567070000000  0.4925130000000 1.0
C      1  0.4827740000000  0.5257450000000  0.5414590000000 1.0
C      1  0.4734480000000  0.5261290000000  0.4642460000000 1.0
C      1  0.4907240000000  0.4579020000000  0.5006410000000 1.0
C      1  0.5121210000000  0.4224690000000  0.5260410000000 1.0
C      1  0.5163830000000  0.5620050000000  0.5552640000000 1.0
C      1  0.5209650000000  0.5204780000000  0.4146080000000 1.0
C      1  0.4809960000000  0.4152740000000  0.5300120000000 1.0
C      1  0.4834060000000  0.5667980000000  0.5604560000000 1.0
C      1  0.4874830000000  0.5157030000000  0.4146430000000 1.0
C      1  0.4637370000000  0.4084300000000  0.4688460000000 1.0
C      1  0.4676240000000  0.5250140000000  0.6041400000000 1.0
C      1  0.4658410000000  0.5747500000000  0.4283010000000 1.0
C      1  0.5242930000000  0.4009370000000  0.4695650000000 1.0
C      1  0.5249140000000  0.5189570000000  0.5998390000000 1.0
C      1  0.5263980000000  0.5779620000000  0.4387770000000 1.0
C      1  0.4445580000000  0.5583790000000  0.5592790000000 1.0
C      1  0.4481110000000  0.5211840000000  0.4174060000000 1.0
C      1  0.4457880000000  0.4287080000000  0.5176550000000 1.0
C      1  0.5609430000000  0.5359720000000  0.5668100000000 1.0
C      1  0.5588360000000  0.5445380000000  0.4402230000000 1.0
C      1  0.5509130000000  0.4248600000000  0.5166430000000 1.0
C      1  0.5909140000000  0.4754220000000  0.5317700000000 1.0
C      1  0.5954390000000  0.5405630000000  0.5093480000000 1.0
C      1  0.5864980000000  0.4800280000000  0.4616700000000 1.0
C      1  0.4175700000000  0.4822480000000  0.5341640000000 1.0
C      1  0.4082220000000  0.5377580000000  0.4990060000000 1.0
C      1  0.4048490000000  0.4755120000000  0.4619780000000 1.0
C      1  0.5105040000000  0.5505360000000  0.4428650000000 1.0
C      1  0.5110480000000  0.4267250000000  0.4863090000000 1.0
C      1  0.5088550000000  0.5234090000000  0.5715040000000 1.0
C      1  0.4809170000000  0.5491930000000  0.4443200000000 1.0
C      1  0.4811730000000  0.4283000000000  0.4879670000000 1.0
C      1  0.4794010000000  0.5265050000000  0.5730970000000 1.0
C      1  0.4446370000000  0.4453260000000  0.4218140000000 1.0
C      1  0.4550600000000  0.4691450000000  0.5919540000000 1.0
C      1  0.4441090000000  0.5836930000000  0.4802830000000 1.0
C      1  0.5448790000000  0.4307540000000  0.4245810000000 1.0
C      1  0.5550390000000  0.4634670000000  0.5984180000000 1.0
C      1  0.5418400000000  0.5944600000000  0.4866970000000 1.0
C      1  0.5296870000000  0.4050820000000  0.5026880000000 1.0
C      1  0.5329760000000  0.5444880000000  0.5788300000000 1.0
C      1  0.5337830000000  0.5496930000000  0.4206620000000 1.0
C      1  0.4632000000000  0.4052390000000  0.5027920000000 1.0
C      1  0.4641290000000  0.5530110000000  0.5849090000000 1.0
C      1  0.4689000000000  0.5442580000000  0.4138460000000 1.0
C      1  0.5248220000000  0.5955520000000  0.4600590000000 1.0
C      1  0.5229570000000  0.4236030000000  0.4482560000000 1.0
C      1  0.5374050000000  0.4920300000000  0.6001860000000 1.0
C      1  0.4678060000000  0.5865020000000  0.4568500000000 1.0
C      1  0.4608010000000  0.4207760000000  0.4402650000000 1.0
C      1  0.4758660000000  0.4946070000000  0.5967880000000 1.0
C      1  0.5486450000000  0.4890600000000  0.5687120000000 1.0
C      1  0.5478760000000  0.5512820000000  0.4776210000000 1.0
C      1  0.5398090000000  0.4516580000000  0.4581030000000 1.0
C      1  0.4656950000000  0.4900830000000  0.5644560000000 1.0
C      1  0.4704210000000  0.5621690000000  0.4806660000000 1.0
C      1  0.4547810000000  0.4463330000000  0.4604410000000 1.0
C      1  0.5550410000000  0.5247090000000  0.4933420000000 1.0
C      1  0.5502070000000  0.4826190000000  0.4778860000000 1.0
C      1  0.5559740000000  0.4971470000000  0.5292590000000 1.0
C      1  0.4594270000000  0.5187210000000  0.5005990000000 1.0
C      1  0.4462780000000  0.4768180000000  0.4848530000000 1.0
C      1  0.4534890000000  0.4931440000000  0.5205110000000 1.0
C      1  0.4214330000000  0.5274830000000  0.4375420000000 1.0
C      1  0.4196710000000  0.4387270000000  0.4983110000000 1.0
C      1  0.4295690000000  0.5286250000000  0.5502960000000 1.0
C      1  0.5826460000000  0.5369870000000  0.4547660000000 1.0
C      1  0.5765300000000  0.4343680000000  0.4957510000000 1.0
C      1  0.5864390000000  0.5218880000000  0.5605690000000 1.0
C      1  0.4374200000000  0.5740320000000  0.5232520000000 1.0
C      1  0.4386260000000  0.4759400000000  0.4226040000000 1.0
C      1  0.4323140000000  0.4484890000000  0.5493620000000 1.0
C      1  0.5644170000000  0.5688870000000  0.5376380000000 1.0
C      1  0.5685370000000  0.4951260000000  0.4237710000000 1.0
C      1  0.5669410000000  0.4392660000000  0.5502800000000 1.0
C      1  0.3952340000000  0.5089560000000  0.4602210000000 1.0
C      1  0.4200030000000  0.4782540000000  0.5004120000000 1.0
C      1  0.4290790000000  0.5148150000000  0.5127640000000 1.0
C      1  0.5753080000000  0.5061900000000  0.4810820000000 1.0
C      1  0.5720810000000  0.4728850000000  0.5023080000000 1.0
C      1  0.5792020000000  0.5125200000000  0.5225460000000 1.0
C      1  0.5064270000000  0.4573930000000  0.4614190000000 1.0
C      1  0.5228000000000  0.4868810000000  0.5558940000000 1.0
C      1  0.5231010000000  0.5598500000000  0.4796020000000 1.0
C      1  0.4781690000000  0.4623800000000  0.4632910000000 1.0
C      1  0.4917100000000  0.4864960000000  0.5479900000000 1.0
C      1  0.4986060000000  0.5541510000000  0.4868540000000 1.0
C      1  0.4736180000000  0.6009660000000  0.4873680000000 1.0
C      1  0.4785000000000  0.4412790000000  0.4197680000000 1.0
C      1  0.4887390000000  0.4633990000000  0.5901800000000 1.0
C      1  0.5077190000000  0.6004690000000  0.4890400000000 1.0
C      1  0.5117550000000  0.4401930000000  0.4209500000000 1.0
C      1  0.5218240000000  0.4631960000000  0.5905430000000 1.0
C      1  0.5081290000000  0.4996860000000  0.4988550000000 1.0
END
