TITL C-2782238-9940-970 0.00074166821259495 125000 -835.328857831794 0 0 147 (C1) n - 1
REM
REM in /home/nfs/bkarasulu/CARBON/AIRSS/Generating-Clusters/REBO/Higher-Symm/SD-CG/HFTN-CG
REM
REM
REM
REM
REM
REM ./C.cell (12c818d87b63d06a65506943cc24bca4)
REM
REM compiler GCC version 9.2.1 20190827 (Red Hat 9.2.1-1)
REM options -cpp -mtune=generic -march=x86-64 -g -O0 -fpre-include=/usr/include/finclude/math-vector-fortran.h
REM seed -1449607167 -1293402717 1965596184 -1814817704 1737481914 -978800189 -284858534 -1079900215 -990362635 -776118173 -60754018 -518262457 1035325810 1314830556 -1407424715 35033483 -940939278 -696305252 870311997 2085783242 260179324 -654242836 1089794063 -688387674 261772474 -1725613131 2090725191 1327681501 -1691230469 -537838322 1579249685 -1731232315 -423249470
REM
CELL 1.54180   50.00000   50.00000   50.00000   90.00000   90.00000   90.00000
LATT -1
SFAC C  
C      1  0.5266890000000  0.5140090000000  0.5283760000000 1.0
C      1  0.4716940000000  0.5149590000000  0.5310200000000 1.0
C      1  0.4798820000000  0.5084150000000  0.4867900000000 1.0
C      1  0.5341920000000  0.5134000000000  0.4809010000000 1.0
C      1  0.4687920000000  0.4820830000000  0.5233770000000 1.0
C      1  0.5144500000000  0.4833720000000  0.5334750000000 1.0
C      1  0.5183250000000  0.4843470000000  0.4798120000000 1.0
C      1  0.4731830000000  0.4810880000000  0.4688970000000 1.0
C      1  0.4988750000000  0.4228010000000  0.5554570000000 1.0
C      1  0.4442280000000  0.4268880000000  0.4993400000000 1.0
C      1  0.4992530000000  0.4199800000000  0.4424910000000 1.0
C      1  0.5567670000000  0.4248560000000  0.5067750000000 1.0
C      1  0.5032780000000  0.5778820000000  0.5527990000000 1.0
C      1  0.5572880000000  0.5699310000000  0.4942150000000 1.0
C      1  0.4962850000000  0.5823120000000  0.4405620000000 1.0
C      1  0.4381000000000  0.5744860000000  0.5030710000000 1.0
C      1  0.5726240000000  0.4557080000000  0.5266130000000 1.0
C      1  0.4657060000000  0.4546650000000  0.5876810000000 1.0
C      1  0.4178510000000  0.4554430000000  0.4646730000000 1.0
C      1  0.5337630000000  0.4529810000000  0.4298150000000 1.0
C      1  0.4286310000000  0.5428380000000  0.5278840000000 1.0
C      1  0.5338900000000  0.5431510000000  0.5739480000000 1.0
C      1  0.5747400000000  0.5443220000000  0.4690120000000 1.0
C      1  0.4660160000000  0.5404610000000  0.4379660000000 1.0
C      1  0.4761930000000  0.4276070000000  0.4650710000000 1.0
C      1  0.5347000000000  0.4294640000000  0.4810290000000 1.0
C      1  0.5214610000000  0.4267830000000  0.5324370000000 1.0
C      1  0.4701500000000  0.4277490000000  0.5190380000000 1.0
C      1  0.5178860000000  0.5747140000000  0.4658790000000 1.0
C      1  0.4616930000000  0.5687130000000  0.4792290000000 1.0
C      1  0.4793420000000  0.5691310000000  0.5311850000000 1.0
C      1  0.5344150000000  0.5684440000000  0.5178860000000 1.0
C      1  0.5965030000000  0.4797870000000  0.5313140000000 1.0
C      1  0.4672960000000  0.4864910000000  0.5953200000000 1.0
C      1  0.4057980000000  0.4854350000000  0.4636700000000 1.0
C      1  0.5333470000000  0.4750350000000  0.4119890000000 1.0
C      1  0.4067910000000  0.5185920000000  0.5335130000000 1.0
C      1  0.5319460000000  0.5157290000000  0.5906770000000 1.0
C      1  0.5890120000000  0.5141550000000  0.4742210000000 1.0
C      1  0.4713950000000  0.5188520000000  0.4142560000000 1.0
C      1  0.5671430000000  0.5638730000000  0.5265160000000 1.0
C      1  0.4742210000000  0.5657880000000  0.5646330000000 1.0
C      1  0.4284560000000  0.5671610000000  0.4713690000000 1.0
C      1  0.5258380000000  0.5669760000000  0.4334610000000 1.0
C      1  0.4402530000000  0.4308480000000  0.5330370000000 1.0
C      1  0.5290190000000  0.4342070000000  0.5649700000000 1.0
C      1  0.5683350000000  0.4338190000000  0.4769820000000 1.0
C      1  0.4714380000000  0.4349930000000  0.4319900000000 1.0
C      1  0.4929270000000  0.4747530000000  0.4447550000000 1.0
C      1  0.5558830000000  0.4717840000000  0.4753350000000 1.0
C      1  0.5076850000000  0.4758650000000  0.5609330000000 1.0
C      1  0.4425730000000  0.4781690000000  0.5079670000000 1.0
C      1  0.5122230000000  0.5339660000000  0.4513330000000 1.0
C      1  0.4474100000000  0.5170650000000  0.4818780000000 1.0
C      1  0.4926420000000  0.5273200000000  0.5529730000000 1.0
C      1  0.5637100000000  0.5251360000000  0.5182320000000 1.0
C      1  0.5145630000000  0.4537180000000  0.4837240000000 1.0
C      1  0.5191170000000  0.4551860000000  0.5168880000000 1.0
C      1  0.4847160000000  0.4552550000000  0.5134350000000 1.0
C      1  0.4829480000000  0.4530510000000  0.4802980000000 1.0
C      1  0.4779840000000  0.5425920000000  0.4847460000000 1.0
C      1  0.4855030000000  0.5422380000000  0.5166690000000 1.0
C      1  0.5179720000000  0.5412520000000  0.5162490000000 1.0
C      1  0.5089910000000  0.5529520000000  0.4861920000000 1.0
C      1  0.4797660000000  0.4582410000000  0.4107860000000 1.0
C      1  0.5935580000000  0.4534700000000  0.4813300000000 1.0
C      1  0.5220340000000  0.4573960000000  0.5865610000000 1.0
C      1  0.4207340000000  0.4543330000000  0.5202690000000 1.0
C      1  0.5195760000000  0.5435690000000  0.4116990000000 1.0
C      1  0.4053610000000  0.5446530000000  0.4768280000000 1.0
C      1  0.4801970000000  0.5436390000000  0.5873020000000 1.0
C      1  0.5920810000000  0.5411220000000  0.5212150000000 1.0
C      1  0.4611440000000  0.4855080000000  0.5559220000000 1.0
C      1  0.4446130000000  0.4827780000000  0.4550270000000 1.0
C      1  0.5359860000000  0.4862260000000  0.4518430000000 1.0
C      1  0.5592200000000  0.4787690000000  0.5448360000000 1.0
C      1  0.5508050000000  0.5178680000000  0.5484880000000 1.0
C      1  0.5541790000000  0.5217920000000  0.4567450000000 1.0
C      1  0.4582590000000  0.5137190000000  0.4514540000000 1.0
C      1  0.4448970000000  0.5216890000000  0.5448420000000 1.0
C      1  0.4431940000000  0.5605720000000  0.5531830000000 1.0
C      1  0.4409190000000  0.5590900000000  0.4415930000000 1.0
C      1  0.5561380000000  0.5599310000000  0.4451080000000 1.0
C      1  0.5590300000000  0.5558100000000  0.5586300000000 1.0
C      1  0.5596350000000  0.4401490000000  0.5542170000000 1.0
C      1  0.5563590000000  0.4384170000000  0.4458240000000 1.0
C      1  0.4409850000000  0.4421410000000  0.4450640000000 1.0
C      1  0.4486330000000  0.4415410000000  0.5642190000000 1.0
C      1  0.5239700000000  0.4038970000000  0.5155640000000 1.0
C      1  0.4844800000000  0.4034680000000  0.5199550000000 1.0
C      1  0.4732180000000  0.4043200000000  0.4817080000000 1.0
C      1  0.5210840000000  0.4033610000000  0.4715780000000 1.0
C      1  0.4720910000000  0.5915680000000  0.5152680000000 1.0
C      1  0.5186720000000  0.5920760000000  0.5188570000000 1.0
C      1  0.5220720000000  0.6017390000000  0.4803440000000 1.0
C      1  0.4782160000000  0.5919590000000  0.4758500000000 1.0
C      1  0.5746350000000  0.4954790000000  0.4491940000000 1.0
C      1  0.5564680000000  0.5003780000000  0.5774050000000 1.0
C      1  0.4232360000000  0.4971250000000  0.5542090000000 1.0
C      1  0.4453740000000  0.5013100000000  0.4205930000000 1.0
C      1  0.4203910000000  0.5057540000000  0.4432910000000 1.0
C      1  0.4441500000000  0.5039590000000  0.5801870000000 1.0
C      1  0.5844380000000  0.4989420000000  0.5569450000000 1.0
C      1  0.5512630000000  0.4995090000000  0.4242840000000 1.0
C      1  0.4944010000000  0.4665410000000  0.6018640000000 1.0
C      1  0.4050330000000  0.4684490000000  0.4936050000000 1.0
C      1  0.5036290000000  0.4754260000000  0.4062370000000 1.0
C      1  0.6047050000000  0.4633860000000  0.5040000000000 1.0
C      1  0.5032390000000  0.5332000000000  0.5972580000000 1.0
C      1  0.6039130000000  0.5304700000000  0.4960940000000 1.0
C      1  0.4973070000000  0.5328190000000  0.4005340000000 1.0
C      1  0.4015490000000  0.5279020000000  0.5011100000000 1.0
C      1  0.5506810000000  0.4582720000000  0.5032370000000 1.0
C      1  0.4886890000000  0.4510470000000  0.5654780000000 1.0
C      1  0.4418320000000  0.4552950000000  0.4863870000000 1.0
C      1  0.5079730000000  0.4507080000000  0.4408310000000 1.0
C      1  0.4405740000000  0.5412650000000  0.4988700000000 1.0
C      1  0.5096240000000  0.5477080000000  0.5604240000000 1.0
C      1  0.5523710000000  0.5366960000000  0.4937530000000 1.0
C      1  0.4918210000000  0.5510880000000  0.4471130000000 1.0
C      1  0.5689610000000  0.4946120000000  0.5181830000000 1.0
C      1  0.4829860000000  0.5053090000000  0.5715210000000 1.0
C      1  0.4195360000000  0.5046880000000  0.4852890000000 1.0
C      1  0.5167390000000  0.5095370000000  0.4417850000000 1.0
C      1  0.4133200000000  0.4930510000000  0.5156990000000 1.0
C      1  0.5081750000000  0.4946810000000  0.5888490000000 1.0
C      1  0.5643600000000  0.4989730000000  0.4880310000000 1.0
C      1  0.4946590000000  0.4998590000000  0.4229820000000 1.0
C      1  0.4175630000000  0.5357390000000  0.4497800000000 1.0
C      1  0.5454380000000  0.5329550000000  0.4267300000000 1.0
C      1  0.5821610000000  0.5323100000000  0.5525390000000 1.0
C      1  0.4509210000000  0.5354980000000  0.5753230000000 1.0
C      1  0.5787790000000  0.4632820000000  0.4526160000000 1.0
C      1  0.4505540000000  0.4679590000000  0.4247970000000 1.0
C      1  0.4333320000000  0.4670190000000  0.5480960000000 1.0
C      1  0.5500570000000  0.4669660000000  0.5736080000000 1.0
C      1  0.4648390000000  0.5801890000000  0.4337970000000 1.0
C      1  0.5588310000000  0.5807370000000  0.4683150000000 1.0
C      1  0.5349610000000  0.5792600000000  0.5570120000000 1.0
C      1  0.4360180000000  0.5817720000000  0.5323830000000 1.0
C      1  0.5320250000000  0.4155960000000  0.4437370000000 1.0
C      1  0.4369610000000  0.4205900000000  0.4676610000000 1.0
C      1  0.4676950000000  0.4176950000000  0.5586600000000 1.0
C      1  0.5626910000000  0.4176630000000  0.5330750000000 1.0
C      1  0.5016440000000  0.3919250000000  0.4933230000000 1.0
C      1  0.4962040000000  0.6075530000000  0.4997590000000 1.0
C      1  0.5053600000000  0.5003260000000  0.5052550000000 1.0
END
