TITL C-2782234-8014-808 0.00572886435352926 125000 -549.640602352613 0 0 92 (C1) n - 1
REM
REM in /home/nfs/bkarasulu/CARBON/AIRSS/Generating-Clusters/REBO/Higher-Symm/SD-CG/HFTN-CG
REM
REM
REM
REM
REM
REM ./C.cell (12c818d87b63d06a65506943cc24bca4)
REM
REM compiler GCC version 9.2.1 20190827 (Red Hat 9.2.1-1)
REM options -cpp -mtune=generic -march=x86-64 -g -O0 -fpre-include=/usr/include/finclude/math-vector-fortran.h
REM seed 368285882 -911005101 1024809717 -244168690 -1211550078 1356977599 -589995324 1186740694 838827405 -108431588 890616742 1066515225 -705566160 858064547 -2138130653 1180245467 -122587911 -1152320565 -1986120717 -1937600221 1581539936 -1884514867 -1137629982 -1532205560 481622479 1115030563 33825930 799865590 -224681129 -2103001740 -1013578651 591467867 1836794418
REM
CELL 1.54180   50.00000   50.00000   50.00000   90.00000   90.00000   90.00000
LATT -1
SFAC C  
C      1  0.4435720000000  0.5448160000000  0.5365230000000 1.0
C      1  0.4467950000000  0.5458070000000  0.4558730000000 1.0
C      1  0.5200490000000  0.5436160000000  0.4336960000000 1.0
C      1  0.5653140000000  0.5438160000000  0.5016280000000 1.0
C      1  0.5217410000000  0.5425190000000  0.5694070000000 1.0
C      1  0.5608770000000  0.4549750000000  0.5412830000000 1.0
C      1  0.5565610000000  0.4555380000000  0.4607140000000 1.0
C      1  0.4772390000000  0.4541740000000  0.4353520000000 1.0
C      1  0.4312130000000  0.4557630000000  0.5009400000000 1.0
C      1  0.4815940000000  0.4528860000000  0.5622600000000 1.0
C      1  0.5347720000000  0.5078270000000  0.4775890000000 1.0
C      1  0.5404200000000  0.5008570000000  0.5308170000000 1.0
C      1  0.4760380000000  0.5142410000000  0.5419120000000 1.0
C      1  0.4536080000000  0.5062050000000  0.4978760000000 1.0
C      1  0.4868260000000  0.5056810000000  0.4577820000000 1.0
C      1  0.4627220000000  0.4895010000000  0.4739820000000 1.0
C      1  0.4615020000000  0.4921310000000  0.5265160000000 1.0
C      1  0.5221940000000  0.4844910000000  0.5447910000000 1.0
C      1  0.5441020000000  0.4903870000000  0.5007560000000 1.0
C      1  0.5130100000000  0.4900780000000  0.4592940000000 1.0
C      1  0.4331070000000  0.5160630000000  0.4461930000000 1.0
C      1  0.5285600000000  0.5136420000000  0.4200040000000 1.0
C      1  0.5845730000000  0.5156550000000  0.5002680000000 1.0
C      1  0.5243890000000  0.5119290000000  0.5840080000000 1.0
C      1  0.4267240000000  0.5167940000000  0.5468230000000 1.0
C      1  0.5685640000000  0.4857900000000  0.4504640000000 1.0
C      1  0.4728540000000  0.4830600000000  0.4177900000000 1.0
C      1  0.4116940000000  0.4841210000000  0.5003120000000 1.0
C      1  0.4742360000000  0.4823520000000  0.5777440000000 1.0
C      1  0.5784510000000  0.4830330000000  0.5493110000000 1.0
C      1  0.5512320000000  0.5601600000000  0.5252460000000 1.0
C      1  0.4940410000000  0.5556190000000  0.5576310000000 1.0
C      1  0.4518070000000  0.5615100000000  0.5100920000000 1.0
C      1  0.4723760000000  0.5608450000000  0.4434820000000 1.0
C      1  0.5286870000000  0.5595090000000  0.4608870000000 1.0
C      1  0.4545780000000  0.4389220000000  0.5150490000000 1.0
C      1  0.5101520000000  0.4394430000000  0.5555090000000 1.0
C      1  0.5568990000000  0.4418750000000  0.5124970000000 1.0
C      1  0.5276260000000  0.4403490000000  0.4577030000000 1.0
C      1  0.4566480000000  0.4408020000000  0.4566040000000 1.0
C      1  0.4767950000000  0.5099030000000  0.5696880000000 1.0
C      1  0.4235080000000  0.5104170000000  0.4985000000000 1.0
C      1  0.4779430000000  0.5092150000000  0.4287280000000 1.0
C      1  0.5585720000000  0.5117470000000  0.4581380000000 1.0
C      1  0.5649080000000  0.5087280000000  0.5444180000000 1.0
C      1  0.5226570000000  0.4853920000000  0.5733630000000 1.0
C      1  0.5748680000000  0.4883440000000  0.4999110000000 1.0
C      1  0.5245560000000  0.4874330000000  0.4308920000000 1.0
C      1  0.4398050000000  0.4890020000000  0.4534110000000 1.0
C      1  0.4352620000000  0.4892610000000  0.5425270000000 1.0
C      1  0.5478310000000  0.4710060000000  0.4317220000000 1.0
C      1  0.5836580000000  0.4704800000000  0.5205410000000 1.0
C      1  0.5019800000000  0.4689050000000  0.5842770000000 1.0
C      1  0.4180510000000  0.4714600000000  0.5282210000000 1.0
C      1  0.4474380000000  0.4711350000000  0.4323100000000 1.0
C      1  0.4562120000000  0.5277320000000  0.4281810000000 1.0
C      1  0.4181360000000  0.5293970000000  0.5193740000000 1.0
C      1  0.4959580000000  0.5255470000000  0.5838580000000 1.0
C      1  0.5791510000000  0.5282880000000  0.5287770000000 1.0
C      1  0.5506270000000  0.5287750000000  0.4367030000000 1.0
C      1  0.4858840000000  0.5328560000000  0.5230090000000 1.0
C      1  0.4724970000000  0.5298300000000  0.4974120000000 1.0
C      1  0.4911510000000  0.5295290000000  0.4761900000000 1.0
C      1  0.5176870000000  0.5315080000000  0.4871320000000 1.0
C      1  0.5150060000000  0.5420800000000  0.5140790000000 1.0
C      1  0.5239420000000  0.4667650000000  0.5011710000000 1.0
C      1  0.5065090000000  0.4670130000000  0.4785950000000 1.0
C      1  0.4794350000000  0.4674320000000  0.4878200000000 1.0
C      1  0.4799660000000  0.4697710000000  0.5168330000000 1.0
C      1  0.5077370000000  0.4679350000000  0.5258260000000 1.0
C      1  0.4669170000000  0.4193250000000  0.4717370000000 1.0
C      1  0.5207420000000  0.4269180000000  0.4808010000000 1.0
C      1  0.5336340000000  0.4273660000000  0.5090700000000 1.0
C      1  0.5072610000000  0.4188120000000  0.5377310000000 1.0
C      1  0.4720700000000  0.4230230000000  0.4993630000000 1.0
C      1  0.5088940000000  0.5758470000000  0.4730550000000 1.0
C      1  0.4844820000000  0.5806290000000  0.4594550000000 1.0
C      1  0.4749260000000  0.5762720000000  0.5112010000000 1.0
C      1  0.5058360000000  0.5655880000000  0.5336410000000 1.0
C      1  0.5372840000000  0.5820900000000  0.5157900000000 1.0
C      1  0.5445490000000  0.5500690000000  0.5497240000000 1.0
C      1  0.4674020000000  0.5504080000000  0.5566510000000 1.0
C      1  0.4426800000000  0.5537570000000  0.4854550000000 1.0
C      1  0.4902910000000  0.5486350000000  0.4269170000000 1.0
C      1  0.5504100000000  0.5512650000000  0.4753800000000 1.0
C      1  0.4611010000000  0.4441930000000  0.5410490000000 1.0
C      1  0.5355020000000  0.4493100000000  0.5583300000000 1.0
C      1  0.5683050000000  0.4497720000000  0.4889990000000 1.0
C      1  0.5069890000000  0.4471060000000  0.4410550000000 1.0
C      1  0.4357160000000  0.4527510000000  0.4695430000000 1.0
C      1  0.5005340000000  0.4187860000000  0.5066240000000 1.0
C      1  0.5071540000000  0.5801120000000  0.5028310000000 1.0
END
