TITL C-2782231-7322-1365 -0.0038397286555327 125000 -651.037516191704 0 0 112 (C1) n - 1
REM
REM in /home/nfs/bkarasulu/CARBON/AIRSS/Generating-Clusters/REBO/Higher-Symm/SD-CG/HFTN-CG
REM
REM
REM
REM
REM
REM ./C.cell (12c818d87b63d06a65506943cc24bca4)
REM
REM compiler GCC version 9.2.1 20190827 (Red Hat 9.2.1-1)
REM options -cpp -mtune=generic -march=x86-64 -g -O0 -fpre-include=/usr/include/finclude/math-vector-fortran.h
REM seed -1704403839 -100647944 167104169 1704434448 268793406 -1995684257 -1303828 222461387 1311743349 -712455377 1700642730 -1692214343 907737260 1763611851 998373870 -506611195 -1129852286 195094890 -390793458 -1924536696 817363895 386024179 246874954 -1505344541 -1678292686 -987138260 18117531 558446923 593052175 137491943 -1575012597 140134953 335360681
REM
CELL 1.54180   50.00000   50.00000   50.00000   90.00000   90.00000   90.00000
LATT -1
SFAC C  
C      1  0.5495370000000  0.5623920000000  0.4472980000000 1.0
C      1  0.5336730000000  0.5463230000000  0.5756200000000 1.0
C      1  0.5766040000000  0.4603840000000  0.4898450000000 1.0
C      1  0.5426580000000  0.5335180000000  0.4321810000000 1.0
C      1  0.5017630000000  0.4144030000000  0.4650970000000 1.0
C      1  0.5259930000000  0.4494650000000  0.4954420000000 1.0
C      1  0.5636460000000  0.4771680000000  0.5621290000000 1.0
C      1  0.5684500000000  0.4713280000000  0.5352330000000 1.0
C      1  0.5344040000000  0.5157100000000  0.5841520000000 1.0
C      1  0.3993810000000  0.4870370000000  0.4995780000000 1.0
C      1  0.5484290000000  0.4338980000000  0.4663410000000 1.0
C      1  0.4501130000000  0.4309710000000  0.4851280000000 1.0
C      1  0.5115980000000  0.4608810000000  0.5170840000000 1.0
C      1  0.5272220000000  0.4243930000000  0.4495010000000 1.0
C      1  0.4145780000000  0.4808640000000  0.4782930000000 1.0
C      1  0.4832060000000  0.5410290000000  0.5600080000000 1.0
C      1  0.4728750000000  0.4301050000000  0.5094110000000 1.0
C      1  0.5344130000000  0.5142730000000  0.4102240000000 1.0
C      1  0.4057340000000  0.5338750000000  0.5608840000000 1.0
C      1  0.4476030000000  0.4416780000000  0.5482620000000 1.0
C      1  0.4540480000000  0.5338180000000  0.5861830000000 1.0
C      1  0.4171070000000  0.4855260000000  0.5486550000000 1.0
C      1  0.4519510000000  0.4765390000000  0.5096990000000 1.0
C      1  0.5140420000000  0.5693590000000  0.4916150000000 1.0
C      1  0.3824040000000  0.5402210000000  0.4795250000000 1.0
C      1  0.5221010000000  0.5607870000000  0.4318390000000 1.0
C      1  0.5165270000000  0.5527780000000  0.4704800000000 1.0
C      1  0.4409120000000  0.4656950000000  0.4530930000000 1.0
C      1  0.4808490000000  0.4872800000000  0.4743080000000 1.0
C      1  0.4971740000000  0.4661210000000  0.4736840000000 1.0
C      1  0.5397320000000  0.5308420000000  0.5476340000000 1.0
C      1  0.5889900000000  0.5275870000000  0.5332570000000 1.0
C      1  0.5172980000000  0.4224120000000  0.5263440000000 1.0
C      1  0.5641830000000  0.4891420000000  0.4385200000000 1.0
C      1  0.4249360000000  0.4935560000000  0.4506660000000 1.0
C      1  0.4884800000000  0.4390280000000  0.4824910000000 1.0
C      1  0.5448750000000  0.4881410000000  0.4153070000000 1.0
C      1  0.5565840000000  0.4619510000000  0.4554510000000 1.0
C      1  0.5129120000000  0.5259880000000  0.4577340000000 1.0
C      1  0.4613840000000  0.5600760000000  0.4724840000000 1.0
C      1  0.4566410000000  0.5304930000000  0.5433040000000 1.0
C      1  0.5148930000000  0.5192590000000  0.4918900000000 1.0
C      1  0.4749850000000  0.4379790000000  0.5567360000000 1.0
C      1  0.4997760000000  0.5962330000000  0.4982460000000 1.0
C      1  0.5714790000000  0.5236390000000  0.5532520000000 1.0
C      1  0.4699170000000  0.4250620000000  0.4580840000000 1.0
C      1  0.5099450000000  0.5071540000000  0.5926940000000 1.0
C      1  0.5394640000000  0.5596150000000  0.5203170000000 1.0
C      1  0.5772780000000  0.5272270000000  0.4711530000000 1.0
C      1  0.5211190000000  0.4167340000000  0.4929790000000 1.0
C      1  0.5661650000000  0.4401580000000  0.5265170000000 1.0
C      1  0.5178970000000  0.5329660000000  0.5213290000000 1.0
C      1  0.4621610000000  0.4348800000000  0.3921310000000 1.0
C      1  0.5411420000000  0.5028310000000  0.5335850000000 1.0
C      1  0.4533640000000  0.5647460000000  0.5719390000000 1.0
C      1  0.5117140000000  0.4936760000000  0.5217640000000 1.0
C      1  0.4746400000000  0.4959900000000  0.5361520000000 1.0
C      1  0.4315370000000  0.5330710000000  0.5627060000000 1.0
C      1  0.4859250000000  0.5418060000000  0.5938980000000 1.0
C      1  0.5588290000000  0.5525830000000  0.4974840000000 1.0
C      1  0.4639210000000  0.4528140000000  0.4124670000000 1.0
C      1  0.4393130000000  0.4836110000000  0.5633570000000 1.0
C      1  0.5108930000000  0.5776460000000  0.5245510000000 1.0
C      1  0.5571430000000  0.5648950000000  0.5671310000000 1.0
C      1  0.5776100000000  0.5273930000000  0.5035790000000 1.0
C      1  0.5583570000000  0.5639090000000  0.4732130000000 1.0
C      1  0.5611020000000  0.4816880000000  0.4914880000000 1.0
C      1  0.4838130000000  0.6023410000000  0.4757280000000 1.0
C      1  0.4692520000000  0.5800630000000  0.5556500000000 1.0
C      1  0.5585950000000  0.5703310000000  0.5427260000000 1.0
C      1  0.5521200000000  0.4305080000000  0.4998680000000 1.0
C      1  0.5890400000000  0.4252880000000  0.5332180000000 1.0
C      1  0.5074660000000  0.5585780000000  0.5751940000000 1.0
C      1  0.4456030000000  0.5067630000000  0.5215270000000 1.0
C      1  0.5250730000000  0.4400330000000  0.4257360000000 1.0
C      1  0.4965020000000  0.5774450000000  0.5511690000000 1.0
C      1  0.4641770000000  0.5316950000000  0.4697910000000 1.0
C      1  0.5316720000000  0.4521500000000  0.5637980000000 1.0
C      1  0.4458870000000  0.5200570000000  0.4498110000000 1.0
C      1  0.5291110000000  0.4692230000000  0.4711930000000 1.0
C      1  0.5008340000000  0.4818340000000  0.4272050000000 1.0
C      1  0.4976680000000  0.5710010000000  0.4399610000000 1.0
C      1  0.4018550000000  0.4877450000000  0.5265620000000 1.0
C      1  0.4418340000000  0.5696110000000  0.4891000000000 1.0
C      1  0.5097330000000  0.5183340000000  0.3993030000000 1.0
C      1  0.5565210000000  0.5148360000000  0.4549430000000 1.0
C      1  0.5571140000000  0.5035440000000  0.5711020000000 1.0
C      1  0.5247700000000  0.4678850000000  0.4195880000000 1.0
C      1  0.4780020000000  0.5094150000000  0.5853510000000 1.0
C      1  0.5024700000000  0.5107730000000  0.4378620000000 1.0
C      1  0.4802870000000  0.5117670000000  0.4112200000000 1.0
C      1  0.4899340000000  0.5252450000000  0.5336740000000 1.0
C      1  0.4224870000000  0.5190010000000  0.5061640000000 1.0
C      1  0.4385250000000  0.4598290000000  0.4844620000000 1.0
C      1  0.4763720000000  0.4779710000000  0.4096860000000 1.0
C      1  0.4784040000000  0.5791800000000  0.4592530000000 1.0
C      1  0.4707660000000  0.4866520000000  0.5665150000000 1.0
C      1  0.5291910000000  0.4731700000000  0.5422760000000 1.0
C      1  0.5372660000000  0.5002970000000  0.4763420000000 1.0
C      1  0.4564650000000  0.4464940000000  0.4391780000000 1.0
C      1  0.4830500000000  0.5144530000000  0.4813890000000 1.0
C      1  0.4545430000000  0.5247590000000  0.4173240000000 1.0
C      1  0.4471230000000  0.4462880000000  0.5208300000000 1.0
C      1  0.5666500000000  0.4993020000000  0.5159680000000 1.0
C      1  0.4240190000000  0.5134350000000  0.4240320000000 1.0
C      1  0.4849070000000  0.4594280000000  0.5727920000000 1.0
C      1  0.4023750000000  0.5296480000000  0.4927980000000 1.0
C      1  0.5385290000000  0.4331890000000  0.5415200000000 1.0
C      1  0.5889040000000  0.4673010000000  0.4461770000000 1.0
C      1  0.4906370000000  0.4270360000000  0.5339790000000 1.0
C      1  0.5110710000000  0.4551660000000  0.5827690000000 1.0
C      1  0.4838060000000  0.4763360000000  0.5126420000000 1.0
END
