TITL C-2782230-7391-657 0.0007225843113738 125000 -673.124854517509 0 0 112 (C1) n - 1
REM
REM in /home/nfs/bkarasulu/CARBON/AIRSS/Generating-Clusters/REBO/Higher-Symm/SD-CG/HFTN-CG
REM
REM
REM
REM
REM
REM ./C.cell (12c818d87b63d06a65506943cc24bca4)
REM
REM compiler GCC version 9.2.1 20190827 (Red Hat 9.2.1-1)
REM options -cpp -mtune=generic -march=x86-64 -g -O0 -fpre-include=/usr/include/finclude/math-vector-fortran.h
REM seed -996468130 -1922710321 1554084276 1832145747 77989423 -1836964752 249300343 1930233814 -908816959 -1291818139 -565190546 -2101777253 -1333325850 2094805010 453680950 1833930339 1665307222 -819080866 -719135185 -1648170855 -343163250 1458268742 16961366 1860650706 -1944964771 655025293 -1435918329 -2098179293 2054428326 -978735985 1638754116 1140688089 152800344
REM
CELL 1.54180   50.00000   50.00000   50.00000   90.00000   90.00000   90.00000
LATT -1
SFAC C  
C      1  0.5084070000000  0.4350360000000  0.5535030000000 1.0
C      1  0.5440360000000  0.4525540000000  0.4447190000000 1.0
C      1  0.5644450000000  0.4883510000000  0.5544730000000 1.0
C      1  0.5592800000000  0.5287420000000  0.4451870000000 1.0
C      1  0.5318000000000  0.5577080000000  0.5543290000000 1.0
C      1  0.4922950000000  0.5655380000000  0.4456200000000 1.0
C      1  0.4558060000000  0.5489930000000  0.5544340000000 1.0
C      1  0.4361490000000  0.5136400000000  0.4449190000000 1.0
C      1  0.4399370000000  0.4734510000000  0.5530390000000 1.0
C      1  0.4678970000000  0.4441270000000  0.4435800000000 1.0
C      1  0.4405330000000  0.5423430000000  0.5075410000000 1.0
C      1  0.4272800000000  0.4995510000000  0.4924150000000 1.0
C      1  0.4397030000000  0.4557940000000  0.5162370000000 1.0
C      1  0.4797380000000  0.4315490000000  0.4908810000000 1.0
C      1  0.5251830000000  0.4278110000000  0.5165160000000 1.0
C      1  0.5579620000000  0.4603710000000  0.4900910000000 1.0
C      1  0.5728500000000  0.5021660000000  0.5084680000000 1.0
C      1  0.5579520000000  0.5457970000000  0.4924080000000 1.0
C      1  0.5210870000000  0.5702840000000  0.5077860000000 1.0
C      1  0.4762590000000  0.5691950000000  0.4922920000000 1.0
C      1  0.5736540000000  0.5350090000000  0.5312150000000 1.0
C      1  0.5395210000000  0.5720010000000  0.4685080000000 1.0
C      1  0.4905380000000  0.5810570000000  0.5312440000000 1.0
C      1  0.4450250000000  0.5602090000000  0.4684490000000 1.0
C      1  0.4194390000000  0.5185870000000  0.5317150000000 1.0
C      1  0.4256130000000  0.4663190000000  0.4675470000000 1.0
C      1  0.4591090000000  0.4262770000000  0.5320330000000 1.0
C      1  0.5097450000000  0.4184870000000  0.4679340000000 1.0
C      1  0.5586780000000  0.4409760000000  0.5316850000000 1.0
C      1  0.5799000000000  0.4854240000000  0.4681060000000 1.0
C      1  0.4905040000000  0.4504310000000  0.5156610000000 1.0
C      1  0.5187880000000  0.4430140000000  0.4884860000000 1.0
C      1  0.5444930000000  0.4750980000000  0.5163980000000 1.0
C      1  0.5508130000000  0.5074190000000  0.4843630000000 1.0
C      1  0.5369890000000  0.5343860000000  0.5153490000000 1.0
C      1  0.5103230000000  0.5498350000000  0.4844670000000 1.0
C      1  0.4794990000000  0.5460310000000  0.5154480000000 1.0
C      1  0.4566300000000  0.5255200000000  0.4845340000000 1.0
C      1  0.4497880000000  0.4944860000000  0.5161390000000 1.0
C      1  0.4520400000000  0.4663560000000  0.4879990000000 1.0
C      1  0.5753110000000  0.4687090000000  0.5300710000000 1.0
C      1  0.5793660000000  0.5183730000000  0.4697040000000 1.0
C      1  0.5534440000000  0.5609010000000  0.5291570000000 1.0
C      1  0.5078250000000  0.5807300000000  0.4707090000000 1.0
C      1  0.4596400000000  0.5700080000000  0.5290660000000 1.0
C      1  0.4266620000000  0.5328470000000  0.4703420000000 1.0
C      1  0.4189960000000  0.4864980000000  0.5294900000000 1.0
C      1  0.4484930000000  0.4405030000000  0.4676400000000 1.0
C      1  0.4895400000000  0.4185880000000  0.5303640000000 1.0
C      1  0.5417650000000  0.4314530000000  0.4679570000000 1.0
C      1  0.4820950000000  0.5525250000000  0.5686030000000 1.0
C      1  0.4552840000000  0.5322160000000  0.4311990000000 1.0
C      1  0.4447090000000  0.5000340000000  0.5677720000000 1.0
C      1  0.4562160000000  0.4680360000000  0.4295850000000 1.0
C      1  0.4836810000000  0.4475920000000  0.5674780000000 1.0
C      1  0.5178190000000  0.4490050000000  0.4303700000000 1.0
C      1  0.5456990000000  0.4692830000000  0.5685080000000 1.0
C      1  0.5544900000000  0.5020020000000  0.4316900000000 1.0
C      1  0.5437510000000  0.5338830000000  0.5685060000000 1.0
C      1  0.5158640000000  0.5533090000000  0.4314300000000 1.0
C      1  0.5063880000000  0.4743950000000  0.4169900000000 1.0
C      1  0.5208630000000  0.4825320000000  0.5823100000000 1.0
C      1  0.5271520000000  0.4985300000000  0.4174990000000 1.0
C      1  0.5233330000000  0.5146660000000  0.5823580000000 1.0
C      1  0.5105960000000  0.5259270000000  0.4176280000000 1.0
C      1  0.4936550000000  0.5269850000000  0.5823230000000 1.0
C      1  0.4795130000000  0.5182440000000  0.4177550000000 1.0
C      1  0.4725320000000  0.5026290000000  0.5820240000000 1.0
C      1  0.4772430000000  0.4866940000000  0.4169950000000 1.0
C      1  0.4892590000000  0.4749360000000  0.5820230000000 1.0
C      1  0.4566100000000  0.4471970000000  0.5537980000000 1.0
C      1  0.4958380000000  0.4342440000000  0.4440840000000 1.0
C      1  0.5389030000000  0.4434040000000  0.5545420000000 1.0
C      1  0.5619110000000  0.4771210000000  0.4466610000000 1.0
C      1  0.5652100000000  0.5187310000000  0.5541160000000 1.0
C      1  0.5423340000000  0.5541120000000  0.4452810000000 1.0
C      1  0.5032430000000  0.5681690000000  0.5543250000000 1.0
C      1  0.4631190000000  0.5572080000000  0.4455820000000 1.0
C      1  0.4365630000000  0.5256100000000  0.5543100000000 1.0
C      1  0.4352610000000  0.4841320000000  0.4434320000000 1.0
C      1  0.4817800000000  0.5397380000000  0.4761500000000 1.0
C      1  0.4618270000000  0.5212920000000  0.5238000000000 1.0
C      1  0.4564480000000  0.4956620000000  0.4752770000000 1.0
C      1  0.4690050000000  0.4704200000000  0.5238930000000 1.0
C      1  0.4919190000000  0.4579240000000  0.4763980000000 1.0
C      1  0.5191580000000  0.4603380000000  0.5244500000000 1.0
C      1  0.5371640000000  0.4814650000000  0.4777360000000 1.0
C      1  0.5431170000000  0.5059660000000  0.5235000000000 1.0
C      1  0.5320900000000  0.5308910000000  0.4759560000000 1.0
C      1  0.5081730000000  0.5431450000000  0.5237220000000 1.0
C      1  0.4734510000000  0.4968900000000  0.4508000000000 1.0
C      1  0.4809500000000  0.4825680000000  0.5487770000000 1.0
C      1  0.4942960000000  0.4738190000000  0.4505280000000 1.0
C      1  0.5115820000000  0.4761190000000  0.5491670000000 1.0
C      1  0.5230480000000  0.4869730000000  0.4507400000000 1.0
C      1  0.5267530000000  0.5036090000000  0.5491090000000 1.0
C      1  0.5198360000000  0.5187700000000  0.4508560000000 1.0
C      1  0.5053620000000  0.5268120000000  0.5490850000000 1.0
C      1  0.4889750000000  0.5245180000000  0.4509630000000 1.0
C      1  0.4769810000000  0.5135390000000  0.5488670000000 1.0
C      1  0.4117040000000  0.5278860000000  0.5003070000000 1.0
C      1  0.4141210000000  0.4707100000000  0.4995240000000 1.0
C      1  0.4488910000000  0.4282720000000  0.4995510000000 1.0
C      1  0.5019730000000  0.4089590000000  0.5000150000000 1.0
C      1  0.5544570000000  0.4295430000000  0.4997820000000 1.0
C      1  0.5870100000000  0.4742580000000  0.4987340000000 1.0
C      1  0.5864110000000  0.5312270000000  0.5002430000000 1.0
C      1  0.5524780000000  0.5774240000000  0.4994450000000 1.0
C      1  0.4979720000000  0.5928820000000  0.5006800000000 1.0
C      1  0.4443140000000  0.5742170000000  0.4990840000000 1.0
C      1  0.5086640000000  0.4810000000000  0.4918730000000 1.0
C      1  0.5002810000000  0.4961010000000  0.5115920000000 1.0
END
