TITL C-2782226-7400-11 0.00847124833927392 125000 -847.462995330103 0 0 147 (C1) n - 1
REM
REM in /home/nfs/bkarasulu/CARBON/AIRSS/Generating-Clusters/REBO/Higher-Symm/SD-CG/HFTN-CG
REM
REM
REM
REM
REM
REM ./C.cell (12c818d87b63d06a65506943cc24bca4)
REM
REM compiler GCC version 9.2.1 20190827 (Red Hat 9.2.1-1)
REM options -cpp -mtune=generic -march=x86-64 -g -O0 -fpre-include=/usr/include/finclude/math-vector-fortran.h
REM seed -940208098 -1739115275 1654877261 -1656580221 -1784815739 -599600691 -1721388927 -1375441445 433254071 -904381698 -652411302 -1319899283 -1896641341 1726524030 -1149324598 -307685546 2106016923 1802924371 -1192967167 781950560 2099404632 -2056543202 841264160 502137229 -1761134923 -1036182416 1612699282 -1551581956 1775263693 1514522641 675768989 1620817693 -1185284834
REM
CELL 1.54180   50.00000   50.00000   50.00000   90.00000   90.00000   90.00000
LATT -1
SFAC C  
C      1  0.5180370000000  0.4433290000000  0.5288420000000 1.0
C      1  0.5198240000000  0.4474530000000  0.4760200000000 1.0
C      1  0.4456780000000  0.4639360000000  0.5828130000000 1.0
C      1  0.4475210000000  0.4630640000000  0.4146950000000 1.0
C      1  0.5100860000000  0.5453830000000  0.4691610000000 1.0
C      1  0.5122970000000  0.5406430000000  0.5281490000000 1.0
C      1  0.5745320000000  0.4971180000000  0.4417120000000 1.0
C      1  0.5776250000000  0.4957100000000  0.5572540000000 1.0
C      1  0.4962400000000  0.4054660000000  0.5708980000000 1.0
C      1  0.4997940000000  0.4068180000000  0.4290400000000 1.0
C      1  0.4245550000000  0.5106490000000  0.4385590000000 1.0
C      1  0.4250630000000  0.5086450000000  0.5606560000000 1.0
C      1  0.5075930000000  0.6029850000000  0.5292160000000 1.0
C      1  0.5053090000000  0.6032380000000  0.4724840000000 1.0
C      1  0.5553470000000  0.4449530000000  0.4581730000000 1.0
C      1  0.5555080000000  0.4430980000000  0.5483150000000 1.0
C      1  0.5158340000000  0.4923240000000  0.6069280000000 1.0
C      1  0.5155130000000  0.4929040000000  0.3919700000000 1.0
C      1  0.5505840000000  0.5518130000000  0.5295550000000 1.0
C      1  0.5497750000000  0.5545320000000  0.4695120000000 1.0
C      1  0.4897180000000  0.4853130000000  0.5250040000000 1.0
C      1  0.4872020000000  0.4852660000000  0.4706450000000 1.0
C      1  0.4635820000000  0.5427440000000  0.5727710000000 1.0
C      1  0.4654030000000  0.5446890000000  0.4241100000000 1.0
C      1  0.4945230000000  0.3979090000000  0.5445090000000 1.0
C      1  0.4959860000000  0.3985330000000  0.4550070000000 1.0
C      1  0.5113490000000  0.4503370000000  0.5848290000000 1.0
C      1  0.5139600000000  0.4519690000000  0.4165480000000 1.0
C      1  0.5211610000000  0.4641940000000  0.6076080000000 1.0
C      1  0.5216090000000  0.4649900000000  0.3925460000000 1.0
C      1  0.4621250000000  0.5853910000000  0.4514480000000 1.0
C      1  0.4666380000000  0.5836750000000  0.5399670000000 1.0
C      1  0.4959770000000  0.4674340000000  0.5677630000000 1.0
C      1  0.4979640000000  0.4682160000000  0.4336450000000 1.0
C      1  0.4586360000000  0.4870540000000  0.5631640000000 1.0
C      1  0.4567550000000  0.4872280000000  0.4347790000000 1.0
C      1  0.5371110000000  0.4192960000000  0.5537320000000 1.0
C      1  0.5381730000000  0.4228670000000  0.4507170000000 1.0
C      1  0.4211740000000  0.4630640000000  0.4673590000000 1.0
C      1  0.4206330000000  0.4639170000000  0.5288360000000 1.0
C      1  0.5275190000000  0.5055910000000  0.5823210000000 1.0
C      1  0.5254910000000  0.5069630000000  0.4168040000000 1.0
C      1  0.4664890000000  0.4385190000000  0.4695510000000 1.0
C      1  0.4645420000000  0.4386110000000  0.5300920000000 1.0
C      1  0.5165360000000  0.5658570000000  0.4436140000000 1.0
C      1  0.5157040000000  0.5584350000000  0.5561500000000 1.0
C      1  0.4178170000000  0.4876960000000  0.5442480000000 1.0
C      1  0.4189530000000  0.4877210000000  0.4528380000000 1.0
C      1  0.4942250000000  0.4996910000000  0.4284650000000 1.0
C      1  0.4962460000000  0.4996560000000  0.5700270000000 1.0
C      1  0.4905830000000  0.5669000000000  0.5266490000000 1.0
C      1  0.4848340000000  0.5684230000000  0.4671960000000 1.0
C      1  0.4396590000000  0.4442450000000  0.4567180000000 1.0
C      1  0.4372080000000  0.4443970000000  0.5410560000000 1.0
C      1  0.5370460000000  0.4698420000000  0.5390340000000 1.0
C      1  0.5418300000000  0.4717060000000  0.4720280000000 1.0
C      1  0.5178290000000  0.4236170000000  0.5751510000000 1.0
C      1  0.5210720000000  0.4259710000000  0.4270870000000 1.0
C      1  0.5289600000000  0.5804160000000  0.4722760000000 1.0
C      1  0.5290210000000  0.5769830000000  0.5305130000000 1.0
C      1  0.5768110000000  0.4466550000000  0.5658590000000 1.0
C      1  0.5826290000000  0.4450960000000  0.4534230000000 1.0
C      1  0.5372070000000  0.4997720000000  0.4611760000000 1.0
C      1  0.5342300000000  0.5005190000000  0.5397620000000 1.0
C      1  0.4702170000000  0.5136080000000  0.4486980000000 1.0
C      1  0.4733920000000  0.5130240000000  0.5482460000000 1.0
C      1  0.4449870000000  0.5110590000000  0.4728000000000 1.0
C      1  0.4463510000000  0.5100230000000  0.5268890000000 1.0
C      1  0.4454280000000  0.5625640000000  0.4674420000000 1.0
C      1  0.4513960000000  0.5643930000000  0.5198350000000 1.0
C      1  0.5510140000000  0.5117850000000  0.4261830000000 1.0
C      1  0.5535110000000  0.5096740000000  0.5733200000000 1.0
C      1  0.4727390000000  0.5391810000000  0.5310130000000 1.0
C      1  0.4709430000000  0.5396240000000  0.4640480000000 1.0
C      1  0.4705010000000  0.4074100000000  0.5279920000000 1.0
C      1  0.4716630000000  0.4072930000000  0.4714740000000 1.0
C      1  0.4890460000000  0.5000300000000  0.6113620000000 1.0
C      1  0.4888300000000  0.5002590000000  0.3863790000000 1.0
C      1  0.5248880000000  0.3991360000000  0.5292180000000 1.0
C      1  0.5244810000000  0.4004950000000  0.4716290000000 1.0
C      1  0.4746900000000  0.5204200000000  0.4096130000000 1.0
C      1  0.4743680000000  0.5192460000000  0.5876250000000 1.0
C      1  0.5548440000000  0.5283750000000  0.4557580000000 1.0
C      1  0.5560290000000  0.5256010000000  0.5432720000000 1.0
C      1  0.4610730000000  0.4900430000000  0.4014340000000 1.0
C      1  0.4609990000000  0.4892650000000  0.5969960000000 1.0
C      1  0.4899100000000  0.4565440000000  0.5396040000000 1.0
C      1  0.4929090000000  0.4558860000000  0.4621400000000 1.0
C      1  0.4588780000000  0.4807710000000  0.5298200000000 1.0
C      1  0.4563180000000  0.4819950000000  0.4684310000000 1.0
C      1  0.4861920000000  0.5649710000000  0.4275820000000 1.0
C      1  0.4838940000000  0.5624720000000  0.5680700000000 1.0
C      1  0.4330860000000  0.5409870000000  0.5268270000000 1.0
C      1  0.4264070000000  0.5371760000000  0.4683510000000 1.0
C      1  0.4403970000000  0.5374350000000  0.4369750000000 1.0
C      1  0.4395230000000  0.5340180000000  0.5580390000000 1.0
C      1  0.5018250000000  0.5892930000000  0.5571160000000 1.0
C      1  0.4976270000000  0.5944380000000  0.4405270000000 1.0
C      1  0.4392150000000  0.4415520000000  0.4283720000000 1.0
C      1  0.4354870000000  0.4431200000000  0.5694140000000 1.0
C      1  0.5770880000000  0.5073520000000  0.4715890000000 1.0
C      1  0.5790840000000  0.5062410000000  0.5269190000000 1.0
C      1  0.5100510000000  0.5100290000000  0.5326690000000 1.0
C      1  0.5072510000000  0.5119470000000  0.4634680000000 1.0
C      1  0.6172670000000  0.5462140000000  0.4954450000000 1.0
C      1  0.5320680000000  0.4717580000000  0.5051350000000 1.0
C      1  0.4095720000000  0.4582470000000  0.4971740000000 1.0
C      1  0.5972420000000  0.5900270000000  0.4993070000000 1.0
C      1  0.5197250000000  0.5162700000000  0.4944000000000 1.0
C      1  0.5023590000000  0.4553830000000  0.5017370000000 1.0
C      1  0.4161310000000  0.5311870000000  0.4990330000000 1.0
C      1  0.6065900000000  0.4867330000000  0.4929680000000 1.0
C      1  0.5602290000000  0.4488210000000  0.5170390000000 1.0
C      1  0.5873640000000  0.5379060000000  0.4982950000000 1.0
C      1  0.3921740000000  0.4847540000000  0.5065420000000 1.0
C      1  0.4473710000000  0.5782060000000  0.4931760000000 1.0
C      1  0.4637040000000  0.6257140000000  0.5072560000000 1.0
C      1  0.5645170000000  0.4160570000000  0.4955120000000 1.0
C      1  0.5833400000000  0.4643810000000  0.5037470000000 1.0
C      1  0.4804560000000  0.3947880000000  0.4999530000000 1.0
C      1  0.4131250000000  0.5891380000000  0.5104770000000 1.0
C      1  0.4771840000000  0.5436860000000  0.4973510000000 1.0
C      1  0.4403570000000  0.4454420000000  0.4990200000000 1.0
C      1  0.5437920000000  0.5849930000000  0.5012810000000 1.0
C      1  0.5088660000000  0.3908560000000  0.5003110000000 1.0
C      1  0.4741110000000  0.4500480000000  0.5002290000000 1.0
C      1  0.4905250000000  0.5751940000000  0.4974190000000 1.0
C      1  0.4951340000000  0.4973120000000  0.4979490000000 1.0
C      1  0.5702510000000  0.5911660000000  0.5011580000000 1.0
C      1  0.4958810000000  0.6143410000000  0.5034190000000 1.0
C      1  0.5350340000000  0.4324350000000  0.5012520000000 1.0
C      1  0.4703900000000  0.5995360000000  0.4877110000000 1.0
C      1  0.5423930000000  0.4995100000000  0.5006670000000 1.0
C      1  0.4548520000000  0.5215380000000  0.4994990000000 1.0
C      1  0.5862290000000  0.4327060000000  0.4912770000000 1.0
C      1  0.4430080000000  0.4797230000000  0.4997010000000 1.0
C      1  0.5702350000000  0.5020360000000  0.4993200000000 1.0
C      1  0.5602580000000  0.5487120000000  0.4993980000000 1.0
C      1  0.4532960000000  0.4157570000000  0.4994250000000 1.0
C      1  0.5420970000000  0.3935450000000  0.5001030000000 1.0
C      1  0.6196990000000  0.5742980000000  0.4965970000000 1.0
C      1  0.4375790000000  0.6074370000000  0.5085280000000 1.0
C      1  0.6107900000000  0.4544930000000  0.4866050000000 1.0
C      1  0.6087650000000  0.5137140000000  0.4951390000000 1.0
C      1  0.4172480000000  0.4996800000000  0.5016080000000 1.0
C      1  0.4065650000000  0.5629030000000  0.5067520000000 1.0
C      1  0.5260110000000  0.5464380000000  0.4992270000000 1.0
END
