TITL C-2782234-8014-1057 -0.125016236849674 125000 -677.232135958095 0 0 120 (C1) n - 1
REM
REM in /home/nfs/bkarasulu/CARBON/AIRSS/Generating-Clusters/REBO/Higher-Symm/SD-CG/HFTN-CG
REM
REM
REM
REM
REM
REM ./C.cell (12c818d87b63d06a65506943cc24bca4)
REM
REM compiler GCC version 9.2.1 20190827 (Red Hat 9.2.1-1)
REM options -cpp -mtune=generic -march=x86-64 -g -O0 -fpre-include=/usr/include/finclude/math-vector-fortran.h
REM seed -1200003792 -1826474303 1563506634 -617695419 -175367582 2048511756 -920594732 1905883622 -1554333550 -1653492397 425513623 1677531674 -231776790 304668734 -619646933 -1206577666 193053335 -1923778048 2015715651 -1291223543 -692872973 -1611732998 -1510016609 -903167129 1140261721 -1626714830 2019746949 427207403 1606865950 -1124724890 -910349374 995942024 -1923805972
REM
CELL 1.54180   50.00000   50.00000   50.00000   90.00000   90.00000   90.00000
LATT -1
SFAC C  
C      1  0.5170450000000  0.4500630000000  0.5591480000000 1.0
C      1  0.4885160000000  0.4198180000000  0.5295500000000 1.0
C      1  0.5086280000000  0.4043240000000  0.4877410000000 1.0
C      1  0.4881890000000  0.4381900000000  0.4507790000000 1.0
C      1  0.5114640000000  0.4747680000000  0.4278890000000 1.0
C      1  0.4897550000000  0.5171820000000  0.4168150000000 1.0
C      1  0.5111660000000  0.5575160000000  0.4359790000000 1.0
C      1  0.4863410000000  0.5788990000000  0.4724230000000 1.0
C      1  0.5065600000000  0.5859200000000  0.5162510000000 1.0
C      1  0.4832810000000  0.5657800000000  0.5557300000000 1.0
C      1  0.5088390000000  0.5301120000000  0.5758240000000 1.0
C      1  0.4927600000000  0.4870990000000  0.5757980000000 1.0
C      1  0.5295400000000  0.5567160000000  0.5451640000000 1.0
C      1  0.4665020000000  0.5173670000000  0.5434720000000 1.0
C      1  0.5346540000000  0.4982340000000  0.5445450000000 1.0
C      1  0.4739100000000  0.4630150000000  0.5402930000000 1.0
C      1  0.5329080000000  0.4353430000000  0.5179810000000 1.0
C      1  0.4689880000000  0.4353450000000  0.4857480000000 1.0
C      1  0.5245570000000  0.4677620000000  0.4710800000000 1.0
C      1  0.4681510000000  0.4842800000000  0.4540170000000 1.0
C      1  0.5342620000000  0.5180500000000  0.4369660000000 1.0
C      1  0.4699310000000  0.5388990000000  0.4558770000000 1.0
C      1  0.5286020000000  0.5518580000000  0.4863960000000 1.0
C      1  0.4647800000000  0.5630850000000  0.5124460000000 1.0
C      1  0.4357820000000  0.5077830000000  0.5513520000000 1.0
C      1  0.5631560000000  0.4815270000000  0.5454740000000 1.0
C      1  0.4363080000000  0.4589750000000  0.5276470000000 1.0
C      1  0.5640090000000  0.4474470000000  0.5086690000000 1.0
C      1  0.4377090000000  0.4489930000000  0.4824970000000 1.0
C      1  0.5621550000000  0.4735260000000  0.4592320000000 1.0
C      1  0.4367900000000  0.4912470000000  0.4458870000000 1.0
C      1  0.5661700000000  0.5187890000000  0.4495490000000 1.0
C      1  0.4322230000000  0.5399180000000  0.4688890000000 1.0
C      1  0.5640140000000  0.5499700000000  0.4924990000000 1.0
C      1  0.4331800000000  0.5503330000000  0.5142190000000 1.0
C      1  0.5751940000000  0.5303960000000  0.5429890000000 1.0
C      1  0.4833790000000  0.5767250000000  0.5295690000000 1.0
C      1  0.5088290000000  0.5557450000000  0.5636770000000 1.0
C      1  0.4869750000000  0.5138340000000  0.5686030000000 1.0
C      1  0.5164260000000  0.4781760000000  0.5638050000000 1.0
C      1  0.4919280000000  0.4419760000000  0.5476040000000 1.0
C      1  0.5118050000000  0.4151310000000  0.5141090000000 1.0
C      1  0.4892500000000  0.4176690000000  0.4723510000000 1.0
C      1  0.5103050000000  0.4562100000000  0.4499760000000 1.0
C      1  0.4885230000000  0.4913890000000  0.4289580000000 1.0
C      1  0.5128650000000  0.5320530000000  0.4235570000000 1.0
C      1  0.4868600000000  0.5608870000000  0.4501930000000 1.0
C      1  0.5088260000000  0.5752450000000  0.4894800000000 1.0
C      1  0.5266840000000  0.5994980000000  0.5284010000000 1.0
C      1  0.4598770000000  0.5519680000000  0.5644830000000 1.0
C      1  0.5338010000000  0.5163070000000  0.5800150000000 1.0
C      1  0.4757760000000  0.4712280000000  0.5897720000000 1.0
C      1  0.5426280000000  0.4382580000000  0.5564280000000 1.0
C      1  0.4619810000000  0.4158940000000  0.5196780000000 1.0
C      1  0.5255190000000  0.3856170000000  0.4775990000000 1.0
C      1  0.4636960000000  0.4472610000000  0.4395930000000 1.0
C      1  0.5376630000000  0.4824840000000  0.4196910000000 1.0
C      1  0.4685380000000  0.5281360000000  0.4038230000000 1.0
C      1  0.5357180000000  0.5668080000000  0.4461300000000 1.0
C      1  0.4600010000000  0.5864790000000  0.4808460000000 1.0
C      1  0.4133200000000  0.4256790000000  0.5200450000000 1.0
C      1  0.5842930000000  0.4338230000000  0.4452920000000 1.0
C      1  0.4146350000000  0.4483960000000  0.4346610000000 1.0
C      1  0.5868160000000  0.4790790000000  0.4260680000000 1.0
C      1  0.4049330000000  0.5501630000000  0.4311940000000 1.0
C      1  0.5662360000000  0.5637810000000  0.4384740000000 1.0
C      1  0.4114510000000  0.5761000000000  0.4765040000000 1.0
C      1  0.6148630000000  0.5470230000000  0.5634740000000 1.0
C      1  0.4106650000000  0.5479510000000  0.5654620000000 1.0
C      1  0.5830030000000  0.5093890000000  0.5824800000000 1.0
C      1  0.4104070000000  0.4470910000000  0.5658610000000 1.0
C      1  0.5915320000000  0.4410540000000  0.5500330000000 1.0
C      1  0.4180950000000  0.4775600000000  0.5157570000000 1.0
C      1  0.5834040000000  0.4705100000000  0.5030320000000 1.0
C      1  0.4180020000000  0.4722120000000  0.4876340000000 1.0
C      1  0.5828960000000  0.4823950000000  0.4770850000000 1.0
C      1  0.4180750000000  0.4937790000000  0.4697640000000 1.0
C      1  0.5848900000000  0.5107220000000  0.4727910000000 1.0
C      1  0.4157960000000  0.5198450000000  0.4809720000000 1.0
C      1  0.5837580000000  0.5276550000000  0.4950120000000 1.0
C      1  0.4155930000000  0.5251200000000  0.5091530000000 1.0
C      1  0.5875140000000  0.5163260000000  0.5212300000000 1.0
C      1  0.4176250000000  0.5037080000000  0.5271170000000 1.0
C      1  0.5844020000000  0.4881780000000  0.5247930000000 1.0
C      1  0.5683870000000  0.4035820000000  0.5324610000000 1.0
C      1  0.4309460000000  0.3990210000000  0.4848060000000 1.0
C      1  0.5413290000000  0.4435700000000  0.4281410000000 1.0
C      1  0.4412840000000  0.4694200000000  0.4016560000000 1.0
C      1  0.5697490000000  0.5144810000000  0.3993170000000 1.0
C      1  0.4469140000000  0.5716190000000  0.4364880000000 1.0
C      1  0.5631860000000  0.5985350000000  0.4791330000000 1.0
C      1  0.4261910000000  0.6004280000000  0.5146980000000 1.0
C      1  0.5725210000000  0.5571650000000  0.5823080000000 1.0
C      1  0.4360000000000  0.5245050000000  0.5978680000000 1.0
C      1  0.5541680000000  0.4732490000000  0.5943650000000 1.0
C      1  0.4538670000000  0.4289060000000  0.5602030000000 1.0
C      1  0.5675770000000  0.4317210000000  0.5375050000000 1.0
C      1  0.4352670000000  0.4215210000000  0.5020570000000 1.0
C      1  0.5624410000000  0.4501480000000  0.4440830000000 1.0
C      1  0.4382660000000  0.4635990000000  0.4294680000000 1.0
C      1  0.5658620000000  0.4983220000000  0.4226560000000 1.0
C      1  0.4279760000000  0.5540580000000  0.4452600000000 1.0
C      1  0.5590420000000  0.5723400000000  0.4705930000000 1.0
C      1  0.4319930000000  0.5791820000000  0.4963030000000 1.0
C      1  0.5876610000000  0.5450200000000  0.5631430000000 1.0
C      1  0.4346440000000  0.5333130000000  0.5707130000000 1.0
C      1  0.5587650000000  0.4951700000000  0.5763080000000 1.0
C      1  0.4334950000000  0.4448260000000  0.5515150000000 1.0
C      1  0.4596630000000  0.5425840000000  0.4855270000000 1.0
C      1  0.5413300000000  0.5486640000000  0.5158940000000 1.0
C      1  0.4617910000000  0.5307490000000  0.5176370000000 1.0
C      1  0.5443880000000  0.5271110000000  0.5410700000000 1.0
C      1  0.4609920000000  0.4849550000000  0.5517100000000 1.0
C      1  0.5366480000000  0.4677410000000  0.5292370000000 1.0
C      1  0.4641830000000  0.4579850000000  0.5108020000000 1.0
C      1  0.5346120000000  0.4598190000000  0.4961940000000 1.0
C      1  0.4664400000000  0.4677000000000  0.4779090000000 1.0
C      1  0.5370620000000  0.4943900000000  0.4612920000000 1.0
C      1  0.4604340000000  0.5156440000000  0.4439470000000 1.0
C      1  0.5388570000000  0.5279120000000  0.4686890000000 1.0
END
