TITL C-2782227-3064-149 0.00110028579198168 125000 -101.470926544517 0 0 21 (C1) n - 1
REM
REM in /home/nfs/bkarasulu/CARBON/AIRSS/Generating-Clusters/REBO/Higher-Symm/SD-CG/HFTN-CG
REM
REM
REM
REM
REM
REM ./C.cell (12c818d87b63d06a65506943cc24bca4)
REM
REM compiler GCC version 9.2.1 20190827 (Red Hat 9.2.1-1)
REM options -cpp -mtune=generic -march=x86-64 -g -O0 -fpre-include=/usr/include/finclude/math-vector-fortran.h
REM seed -636623440 789459331 836213089 -1131189188 1525417922 399486343 347798696 -1358125661 -1464196704 1034201736 2018701792 146784637 -1634939598 -309610779 -651336934 805430098 841501360 1693224178 784726549 -644205388 1582415364 -1394125100 -707270212 -224143160 -345460104 430179330 -1155406678 -1309807987 -1063186781 -1461241026 1485428270 339977952 -1305570743
REM
CELL 1.54180   50.00000   50.00000   50.00000   90.00000   90.00000   90.00000
LATT -1
SFAC C  
C      1  0.4206720000000  0.4860850000000  0.4961120000000 1.0
C      1  0.4783640000000  0.4882890000000  0.4229750000000 1.0
C      1  0.5686440000000  0.4936900000000  0.4573490000000 1.0
C      1  0.5621230000000  0.4774760000000  0.5510940000000 1.0
C      1  0.4712100000000  0.4984530000000  0.5750330000000 1.0
C      1  0.4913100000000  0.5110820000000  0.4716830000000 1.0
C      1  0.5227690000000  0.5132500000000  0.4842810000000 1.0
C      1  0.5211310000000  0.5048830000000  0.5172900000000 1.0
C      1  0.4911360000000  0.5107700000000  0.5258300000000 1.0
C      1  0.4706510000000  0.5098240000000  0.4986930000000 1.0
C      1  0.5406400000000  0.4835960000000  0.5353470000000 1.0
C      1  0.4814180000000  0.4929410000000  0.5500670000000 1.0
C      1  0.4480550000000  0.4875930000000  0.4981400000000 1.0
C      1  0.4864940000000  0.4892840000000  0.4492130000000 1.0
C      1  0.5449840000000  0.4928360000000  0.4711510000000 1.0
C      1  0.5110040000000  0.4811530000000  0.5477770000000 1.0
C      1  0.4615620000000  0.4830730000000  0.5269470000000 1.0
C      1  0.4658070000000  0.4803020000000  0.4722120000000 1.0
C      1  0.5176780000000  0.4855300000000  0.4559090000000 1.0
C      1  0.5446210000000  0.4855270000000  0.5020950000000 1.0
C      1  0.4973950000000  0.5308870000000  0.4988340000000 1.0
END
