TITL C-2782238-9940-601 -0.0324304162618485 125000 -408.342847075636 0 0 72 (C1) n - 1
REM
REM in /home/nfs/bkarasulu/CARBON/AIRSS/Generating-Clusters/REBO/Higher-Symm/SD-CG/HFTN-CG
REM
REM
REM
REM
REM
REM ./C.cell (12c818d87b63d06a65506943cc24bca4)
REM
REM compiler GCC version 9.2.1 20190827 (Red Hat 9.2.1-1)
REM options -cpp -mtune=generic -march=x86-64 -g -O0 -fpre-include=/usr/include/finclude/math-vector-fortran.h
REM seed 309615078 -932571468 -31400412 643149881 1087567428 -452668787 1916026438 375250152 2073703993 2006864704 619240384 -820855146 -1659360008 -683221222 -468472185 943380184 1091818088 1522570468 -1098794309 175417495 1862988557 -1134582631 -139751440 -2014446757 -1406773786 -737336810 1450818874 -1191489281 -1048560461 -278616113 2107230215 523032524 863136231
REM
CELL 1.54180   50.00000   50.00000   50.00000   90.00000   90.00000   90.00000
LATT -1
SFAC C  
C      1  0.5179420000000  0.5290360000000  0.5795560000000 1.0
C      1  0.4684720000000  0.4964760000000  0.5831190000000 1.0
C      1  0.5199250000000  0.4692310000000  0.5765290000000 1.0
C      1  0.5616240000000  0.4467740000000  0.4712290000000 1.0
C      1  0.5165480000000  0.5780330000000  0.4635790000000 1.0
C      1  0.4204460000000  0.4822530000000  0.4636830000000 1.0
C      1  0.5077090000000  0.5726700000000  0.4939810000000 1.0
C      1  0.4268480000000  0.4748330000000  0.4951030000000 1.0
C      1  0.5639480000000  0.4468020000000  0.5052330000000 1.0
C      1  0.4918980000000  0.4418550000000  0.4602360000000 1.0
C      1  0.5633600000000  0.5199850000000  0.4644360000000 1.0
C      1  0.4440160000000  0.5396180000000  0.4549160000000 1.0
C      1  0.5005220000000  0.4711900000000  0.5015830000000 1.0
C      1  0.5223540000000  0.5196100000000  0.4993070000000 1.0
C      1  0.4657580000000  0.5145040000000  0.5051210000000 1.0
C      1  0.4662270000000  0.4402900000000  0.4782440000000 1.0
C      1  0.5787950000000  0.5036500000000  0.4862320000000 1.0
C      1  0.4584720000000  0.5608250000000  0.4752750000000 1.0
C      1  0.5279440000000  0.5573570000000  0.5110580000000 1.0
C      1  0.4303800000000  0.4988000000000  0.5146170000000 1.0
C      1  0.5364160000000  0.4435770000000  0.5188050000000 1.0
C      1  0.5554450000000  0.5556710000000  0.5036480000000 1.0
C      1  0.4187110000000  0.5238070000000  0.5051900000000 1.0
C      1  0.5190010000000  0.4244500000000  0.5053490000000 1.0
C      1  0.4575720000000  0.4761480000000  0.4297680000000 1.0
C      1  0.5416160000000  0.4705010000000  0.4331550000000 1.0
C      1  0.4966020000000  0.5496280000000  0.4281450000000 1.0
C      1  0.4749850000000  0.5317050000000  0.4459100000000 1.0
C      1  0.4821880000000  0.4708020000000  0.4510860000000 1.0
C      1  0.5442810000000  0.5010080000000  0.4473710000000 1.0
C      1  0.5515800000000  0.4494510000000  0.4464760000000 1.0
C      1  0.5103810000000  0.5695570000000  0.4388550000000 1.0
C      1  0.4331730000000  0.4798820000000  0.4399010000000 1.0
C      1  0.4500670000000  0.5191540000000  0.4811840000000 1.0
C      1  0.5150010000000  0.4624860000000  0.4737910000000 1.0
C      1  0.5352490000000  0.5334730000000  0.4772330000000 1.0
C      1  0.5107060000000  0.4834340000000  0.5511630000000 1.0
C      1  0.5087390000000  0.5169480000000  0.5532900000000 1.0
C      1  0.4802000000000  0.4984620000000  0.5550940000000 1.0
C      1  0.4928550000000  0.4169950000000  0.5146150000000 1.0
C      1  0.5749400000000  0.5409220000000  0.5186460000000 1.0
C      1  0.4275240000000  0.5496430000000  0.5148020000000 1.0
C      1  0.4589920000000  0.4975400000000  0.5331620000000 1.0
C      1  0.5219320000000  0.4708060000000  0.5260420000000 1.0
C      1  0.5144930000000  0.5331260000000  0.5294530000000 1.0
C      1  0.4117500000000  0.4537520000000  0.5058430000000 1.0
C      1  0.5856660000000  0.4352910000000  0.5181610000000 1.0
C      1  0.4962110000000  0.5945900000000  0.5072740000000 1.0
C      1  0.5279030000000  0.4569410000000  0.5984790000000 1.0
C      1  0.5259460000000  0.5395510000000  0.6024000000000 1.0
C      1  0.4583060000000  0.4947540000000  0.6074130000000 1.0
C      1  0.5682760000000  0.4751990000000  0.4878290000000 1.0
C      1  0.4867910000000  0.5546130000000  0.4763830000000 1.0
C      1  0.4537010000000  0.4662290000000  0.4787300000000 1.0
C      1  0.5267600000000  0.4910150000000  0.4991120000000 1.0
C      1  0.4919340000000  0.5297380000000  0.5061370000000 1.0
C      1  0.4738730000000  0.4824420000000  0.5083230000000 1.0
C      1  0.4946890000000  0.5172470000000  0.4226100000000 1.0
C      1  0.4891940000000  0.4852560000000  0.4226830000000 1.0
C      1  0.5205080000000  0.4956820000000  0.4243650000000 1.0
C      1  0.4438100000000  0.5658270000000  0.4991930000000 1.0
C      1  0.4695680000000  0.4235010000000  0.5009730000000 1.0
C      1  0.5861940000000  0.5178970000000  0.5083330000000 1.0
C      1  0.5607990000000  0.5528400000000  0.4732720000000 1.0
C      1  0.4189070000000  0.5252010000000  0.4731920000000 1.0
C      1  0.5186340000000  0.4298470000000  0.4768340000000 1.0
C      1  0.5404030000000  0.4806200000000  0.4718140000000 1.0
C      1  0.4889570000000  0.5205820000000  0.4732110000000 1.0
C      1  0.4774520000000  0.4906440000000  0.4753640000000 1.0
C      1  0.5338940000000  0.5499920000000  0.6250860000000 1.0
C      1  0.4482110000000  0.4930450000000  0.6315370000000 1.0
C      1  0.5358250000000  0.4447370000000  0.6202770000000 1.0
END
