TITL C-2782230-7391-1399 0.0297834675298859 125000 -475.195045258809 0 0 83 (C1) n - 1
REM
REM in /home/nfs/bkarasulu/CARBON/AIRSS/Generating-Clusters/REBO/Higher-Symm/SD-CG/HFTN-CG
REM
REM
REM
REM
REM
REM ./C.cell (12c818d87b63d06a65506943cc24bca4)
REM
REM compiler GCC version 9.2.1 20190827 (Red Hat 9.2.1-1)
REM options -cpp -mtune=generic -march=x86-64 -g -O0 -fpre-include=/usr/include/finclude/math-vector-fortran.h
REM seed -1384825820 1001150106 -1510992128 1236047359 458893945 -1760095507 -490851375 232981650 -243787407 -1787645383 -1150577119 1147789953 449103854 -511436964 547323734 -98020592 -2104985003 895629016 1611199606 -363746829 -126126842 -1932712734 1928183755 -1864597350 -1353461874 172376135 192884705 1611981659 704625387 1017213496 1008298759 -980395024 -1168884224
REM
CELL 1.54180   50.00000   50.00000   50.00000   90.00000   90.00000   90.00000
LATT -1
SFAC C  
C      1  0.5636430000000  0.4742640000000  0.4676320000000 1.0
C      1  0.4458710000000  0.4538360000000  0.4649900000000 1.0
C      1  0.4908650000000  0.5721010000000  0.4720700000000 1.0
C      1  0.5742730000000  0.4541740000000  0.4826930000000 1.0
C      1  0.4255270000000  0.4581960000000  0.4824150000000 1.0
C      1  0.5081080000000  0.5882280000000  0.4860330000000 1.0
C      1  0.5364200000000  0.5587730000000  0.4553070000000 1.0
C      1  0.5342230000000  0.4360700000000  0.4522030000000 1.0
C      1  0.4286230000000  0.5002580000000  0.4481410000000 1.0
C      1  0.4172370000000  0.5035210000000  0.4983610000000 1.0
C      1  0.5500830000000  0.5705840000000  0.5041490000000 1.0
C      1  0.5414090000000  0.4260070000000  0.5037270000000 1.0
C      1  0.5062930000000  0.4754390000000  0.4088770000000 1.0
C      1  0.4695150000000  0.5102870000000  0.4231800000000 1.0
C      1  0.5160170000000  0.5214680000000  0.4311190000000 1.0
C      1  0.5300010000000  0.5392380000000  0.5185820000000 1.0
C      1  0.5264410000000  0.4448780000000  0.5354730000000 1.0
C      1  0.4462140000000  0.5094630000000  0.5251150000000 1.0
C      1  0.4484140000000  0.4752730000000  0.4439460000000 1.0
C      1  0.5057650000000  0.5535170000000  0.4527430000000 1.0
C      1  0.5394630000000  0.4660650000000  0.4496240000000 1.0
C      1  0.4199610000000  0.4750880000000  0.5048160000000 1.0
C      1  0.5249360000000  0.5842210000000  0.5089540000000 1.0
C      1  0.5655530000000  0.4421350000000  0.5072570000000 1.0
C      1  0.4276280000000  0.4614710000000  0.5292770000000 1.0
C      1  0.5090240000000  0.5844950000000  0.5328580000000 1.0
C      1  0.5771960000000  0.4558100000000  0.5301860000000 1.0
C      1  0.5214540000000  0.5075320000000  0.4846630000000 1.0
C      1  0.4857090000000  0.4763980000000  0.4636470000000 1.0
C      1  0.4722430000000  0.5237340000000  0.4749120000000 1.0
C      1  0.4778700000000  0.5288490000000  0.5642450000000 1.0
C      1  0.5343930000000  0.5064190000000  0.5612380000000 1.0
C      1  0.4894480000000  0.4767390000000  0.5518830000000 1.0
C      1  0.5544100000000  0.5556740000000  0.4769460000000 1.0
C      1  0.5258980000000  0.4242390000000  0.4764530000000 1.0
C      1  0.4263670000000  0.5166180000000  0.4709240000000 1.0
C      1  0.4749580000000  0.4400040000000  0.4756190000000 1.0
C      1  0.4658400000000  0.5614280000000  0.4864390000000 1.0
C      1  0.5609480000000  0.5034910000000  0.4821190000000 1.0
C      1  0.5870110000000  0.5321830000000  0.5309570000000 1.0
C      1  0.4903580000000  0.4151560000000  0.5328360000000 1.0
C      1  0.4347710000000  0.5541890000000  0.5254280000000 1.0
C      1  0.4589860000000  0.5683270000000  0.5178810000000 1.0
C      1  0.5920790000000  0.5063990000000  0.5394710000000 1.0
C      1  0.4650950000000  0.4239580000000  0.5397160000000 1.0
C      1  0.5737970000000  0.5472100000000  0.5107680000000 1.0
C      1  0.5096050000000  0.4171790000000  0.5121100000000 1.0
C      1  0.4237970000000  0.5360530000000  0.5055300000000 1.0
C      1  0.5225440000000  0.4980270000000  0.5904970000000 1.0
C      1  0.4950590000000  0.4791070000000  0.5874430000000 1.0
C      1  0.4918730000000  0.5130370000000  0.5905000000000 1.0
C      1  0.4680770000000  0.5003460000000  0.4543280000000 1.0
C      1  0.5025730000000  0.5224350000000  0.4624600000000 1.0
C      1  0.5137840000000  0.4836470000000  0.4630280000000 1.0
C      1  0.4530550000000  0.4491880000000  0.5348430000000 1.0
C      1  0.4830790000000  0.5733700000000  0.5357290000000 1.0
C      1  0.5759290000000  0.4829800000000  0.5400790000000 1.0
C      1  0.4472680000000  0.5289530000000  0.5681290000000 1.0
C      1  0.5467250000000  0.5346720000000  0.5623370000000 1.0
C      1  0.4982050000000  0.4516720000000  0.5710010000000 1.0
C      1  0.5393340000000  0.4970710000000  0.5076770000000 1.0
C      1  0.4763620000000  0.4688380000000  0.4936220000000 1.0
C      1  0.4739020000000  0.5336330000000  0.5044080000000 1.0
C      1  0.5300690000000  0.4903750000000  0.4274860000000 1.0
C      1  0.4754340000000  0.4764380000000  0.4231320000000 1.0
C      1  0.4870760000000  0.5392180000000  0.4279600000000 1.0
C      1  0.5455720000000  0.5487430000000  0.5389940000000 1.0
C      1  0.5147010000000  0.4348040000000  0.5579980000000 1.0
C      1  0.4331830000000  0.5201910000000  0.5464210000000 1.0
C      1  0.5406140000000  0.5049670000000  0.4565480000000 1.0
C      1  0.4791650000000  0.4502120000000  0.4440640000000 1.0
C      1  0.4672640000000  0.5428020000000  0.4512210000000 1.0
C      1  0.4819410000000  0.5415500000000  0.5365570000000 1.0
C      1  0.5470510000000  0.4912760000000  0.5391930000000 1.0
C      1  0.4749210000000  0.4689630000000  0.5276270000000 1.0
C      1  0.5050110000000  0.5314030000000  0.5156330000000 1.0
C      1  0.5312590000000  0.4678320000000  0.5231060000000 1.0
C      1  0.4616090000000  0.4933690000000  0.5112360000000 1.0
C      1  0.4964940000000  0.4213240000000  0.4838600000000 1.0
C      1  0.4382520000000  0.5443510000000  0.4783620000000 1.0
C      1  0.5718190000000  0.5315370000000  0.4839500000000 1.0
C      1  0.5011270000000  0.5052710000000  0.5580200000000 1.0
C      1  0.4982730000000  0.5059240000000  0.4091660000000 1.0
END
