TITL C-2782233-7966-866 0.00396077039338358 125000 -740.230637452538 0 0 125 (C1) n - 1
REM
REM in /home/nfs/bkarasulu/CARBON/AIRSS/Generating-Clusters/REBO/Higher-Symm/SD-CG/HFTN-CG
REM
REM
REM
REM
REM
REM ./C.cell (12c818d87b63d06a65506943cc24bca4)
REM
REM compiler GCC version 9.2.1 20190827 (Red Hat 9.2.1-1)
REM options -cpp -mtune=generic -march=x86-64 -g -O0 -fpre-include=/usr/include/finclude/math-vector-fortran.h
REM seed -467728792 -2054450190 -860165298 -2023730620 761378221 217857912 268974187 -1946820790 2033477693 -504683958 1118841171 -1897410853 1482726672 -906864547 1274451409 601624769 -1426847340 -426319226 104008315 -235122413 1676438252 1466674904 2102431207 451431290 2096076136 -667004783 1378475289 556826035 484451853 -1746169525 625747450 -1090307163 246944018
REM
CELL 1.54180   50.00000   50.00000   50.00000   90.00000   90.00000   90.00000
LATT -1
SFAC C  
C      1  0.5610300000000  0.5726190000000  0.4819500000000 1.0
C      1  0.4645870000000  0.5778940000000  0.4855790000000 1.0
C      1  0.4167060000000  0.4871190000000  0.4856700000000 1.0
C      1  0.4859980000000  0.4118580000000  0.4884470000000 1.0
C      1  0.5729600000000  0.4633710000000  0.4859540000000 1.0
C      1  0.5603810000000  0.4413270000000  0.4860630000000 1.0
C      1  0.4620040000000  0.4190550000000  0.4888320000000 1.0
C      1  0.4159230000000  0.5123080000000  0.4857330000000 1.0
C      1  0.4889250000000  0.5853330000000  0.4858330000000 1.0
C      1  0.5766890000000  0.5488080000000  0.4826670000000 1.0
C      1  0.4516710000000  0.5679380000000  0.5220250000000 1.0
C      1  0.4193880000000  0.4721700000000  0.5229470000000 1.0
C      1  0.4991110000000  0.4108810000000  0.5261720000000 1.0
C      1  0.5768070000000  0.4749930000000  0.5239520000000 1.0
C      1  0.5538170000000  0.5724990000000  0.5308710000000 1.0
C      1  0.4490140000000  0.4266720000000  0.5257640000000 1.0
C      1  0.4197240000000  0.5249230000000  0.5234220000000 1.0
C      1  0.5014020000000  0.5851490000000  0.5237790000000 1.0
C      1  0.5843990000000  0.5311390000000  0.5310190000000 1.0
C      1  0.5516970000000  0.4268450000000  0.5254240000000 1.0
C      1  0.4410890000000  0.4370050000000  0.5537070000000 1.0
C      1  0.5384810000000  0.4254170000000  0.5542540000000 1.0
C      1  0.5812140000000  0.5145350000000  0.5570430000000 1.0
C      1  0.5119250000000  0.5808000000000  0.5537550000000 1.0
C      1  0.4218300000000  0.5384460000000  0.5505860000000 1.0
C      1  0.4391870000000  0.5613770000000  0.5498100000000 1.0
C      1  0.5390940000000  0.5731390000000  0.5573560000000 1.0
C      1  0.5789670000000  0.4862850000000  0.5531970000000 1.0
C      1  0.5111100000000  0.4155260000000  0.5550180000000 1.0
C      1  0.4258980000000  0.4613800000000  0.5524080000000 1.0
C      1  0.5505410000000  0.5156060000000  0.4584990000000 1.0
C      1  0.5025760000000  0.5529600000000  0.4548970000000 1.0
C      1  0.4522000000000  0.5186970000000  0.4532480000000 1.0
C      1  0.4664500000000  0.4584940000000  0.4493900000000 1.0
C      1  0.5279800000000  0.4565780000000  0.4486500000000 1.0
C      1  0.5436410000000  0.4854800000000  0.4536050000000 1.0
C      1  0.4975110000000  0.4484720000000  0.4579130000000 1.0
C      1  0.4523460000000  0.4866910000000  0.4597230000000 1.0
C      1  0.4715170000000  0.5443460000000  0.4462940000000 1.0
C      1  0.5309130000000  0.5379780000000  0.4463650000000 1.0
C      1  0.5884040000000  0.4914160000000  0.4982040000000 1.0
C      1  0.5488400000000  0.5866240000000  0.5036330000000 1.0
C      1  0.4332530000000  0.5681810000000  0.4957220000000 1.0
C      1  0.4162660000000  0.4546260000000  0.4964130000000 1.0
C      1  0.5150720000000  0.3999510000000  0.5012020000000 1.0
C      1  0.5887740000000  0.5233460000000  0.5018510000000 1.0
C      1  0.5436820000000  0.4132160000000  0.4965440000000 1.0
C      1  0.4305010000000  0.4262690000000  0.4998240000000 1.0
C      1  0.4131590000000  0.5436960000000  0.4987360000000 1.0
C      1  0.5192440000000  0.5945540000000  0.4985920000000 1.0
C      1  0.5855280000000  0.4871810000000  0.4646670000000 1.0
C      1  0.5459470000000  0.5771400000000  0.4573100000000 1.0
C      1  0.4415440000000  0.5667250000000  0.4627210000000 1.0
C      1  0.4217270000000  0.4615460000000  0.4634500000000 1.0
C      1  0.5140420000000  0.4100770000000  0.4685950000000 1.0
C      1  0.5887300000000  0.5201040000000  0.4679850000000 1.0
C      1  0.5447290000000  0.4210120000000  0.4634030000000 1.0
C      1  0.4393170000000  0.4338780000000  0.4676930000000 1.0
C      1  0.4207720000000  0.5399360000000  0.4657020000000 1.0
C      1  0.5162020000000  0.5891030000000  0.4650460000000 1.0
C      1  0.5428930000000  0.4896980000000  0.4875070000000 1.0
C      1  0.5328750000000  0.5444550000000  0.4792510000000 1.0
C      1  0.4739960000000  0.5397050000000  0.4790940000000 1.0
C      1  0.4559350000000  0.4851130000000  0.4929990000000 1.0
C      1  0.4975970000000  0.4500810000000  0.4904820000000 1.0
C      1  0.5497460000000  0.5197350000000  0.4922720000000 1.0
C      1  0.5266540000000  0.4621480000000  0.4814730000000 1.0
C      1  0.4677030000000  0.4579730000000  0.4824750000000 1.0
C      1  0.4556790000000  0.5159590000000  0.4864370000000 1.0
C      1  0.5029090000000  0.5480670000000  0.4886390000000 1.0
C      1  0.5004580000000  0.4584910000000  0.5517580000000 1.0
C      1  0.5347000000000  0.4872830000000  0.5399780000000 1.0
C      1  0.5265700000000  0.5301080000000  0.5620370000000 1.0
C      1  0.4741610000000  0.5339190000000  0.5682870000000 1.0
C      1  0.4591410000000  0.4830290000000  0.5571730000000 1.0
C      1  0.5013110000000  0.5422390000000  0.5534760000000 1.0
C      1  0.5382270000000  0.5132410000000  0.5433160000000 1.0
C      1  0.5248950000000  0.4693660000000  0.5589860000000 1.0
C      1  0.4770060000000  0.4616690000000  0.5661600000000 1.0
C      1  0.4578430000000  0.5120220000000  0.5697080000000 1.0
C      1  0.4897090000000  0.5702470000000  0.5706390000000 1.0
C      1  0.4276050000000  0.5182020000000  0.5707070000000 1.0
C      1  0.4650780000000  0.4360560000000  0.5709790000000 1.0
C      1  0.5450880000000  0.4507610000000  0.5681240000000 1.0
C      1  0.5706300000000  0.5331860000000  0.5770710000000 1.0
C      1  0.4877210000000  0.4172280000000  0.5728470000000 1.0
C      1  0.4279650000000  0.4859380000000  0.5707670000000 1.0
C      1  0.4596950000000  0.5612900000000  0.5701020000000 1.0
C      1  0.5459520000000  0.5485240000000  0.5728930000000 1.0
C      1  0.5700350000000  0.4653840000000  0.5714090000000 1.0
C      1  0.4989040000000  0.4441790000000  0.5236410000000 1.0
C      1  0.5457530000000  0.4749220000000  0.5146400000000 1.0
C      1  0.5347910000000  0.5505520000000  0.5127860000000 1.0
C      1  0.4696380000000  0.5422130000000  0.5130720000000 1.0
C      1  0.4520870000000  0.4816940000000  0.5260300000000 1.0
C      1  0.5016600000000  0.5510880000000  0.5224260000000 1.0
C      1  0.5541920000000  0.5265090000000  0.5221450000000 1.0
C      1  0.5308870000000  0.4475570000000  0.5122350000000 1.0
C      1  0.4663990000000  0.4520600000000  0.5161320000000 1.0
C      1  0.4495110000000  0.5152410000000  0.5184980000000 1.0
C      1  0.4967380000000  0.4522670000000  0.4243380000000 1.0
C      1  0.5390180000000  0.4831360000000  0.4211640000000 1.0
C      1  0.5269550000000  0.5320310000000  0.4152510000000 1.0
C      1  0.4737160000000  0.5423870000000  0.4122970000000 1.0
C      1  0.4571320000000  0.4896660000000  0.4264460000000 1.0
C      1  0.5020060000000  0.5479980000000  0.4210620000000 1.0
C      1  0.5364820000000  0.5072410000000  0.4067290000000 1.0
C      1  0.5249020000000  0.4572940000000  0.4147990000000 1.0
C      1  0.4703600000000  0.4644810000000  0.4162510000000 1.0
C      1  0.4567210000000  0.5188560000000  0.4195260000000 1.0
C      1  0.4888500000000  0.5894750000000  0.4461370000000 1.0
C      1  0.4133210000000  0.5136100000000  0.4459310000000 1.0
C      1  0.4631560000000  0.4187620000000  0.4489330000000 1.0
C      1  0.5644430000000  0.4404720000000  0.4463190000000 1.0
C      1  0.5711980000000  0.5378030000000  0.4447010000000 1.0
C      1  0.4868580000000  0.4111390000000  0.4485590000000 1.0
C      1  0.4149310000000  0.4887980000000  0.4458050000000 1.0
C      1  0.4647190000000  0.5836430000000  0.4460550000000 1.0
C      1  0.5611190000000  0.5624190000000  0.4374880000000 1.0
C      1  0.5765300000000  0.4620250000000  0.4461960000000 1.0
C      1  0.5790470000000  0.4428310000000  0.5247340000000 1.0
C      1  0.4711240000000  0.5924460000000  0.5228060000000 1.0
C      1  0.4028010000000  0.4986000000000  0.5231650000000 1.0
C      1  0.4689740000000  0.4026500000000  0.5269240000000 1.0
C      1  0.5828660000000  0.5621410000000  0.5349080000000 1.0
END
