TITL C-2782240-8521-1190 1.49275248482678e-05 125000 -309.783260175651 0 0 56 (C2) n - 1
REM
REM in /home/nfs/bkarasulu/CARBON/AIRSS/Generating-Clusters/REBO/Higher-Symm/SD-CG/HFTN-CG
REM
REM
REM
REM
REM
REM ./C.cell (12c818d87b63d06a65506943cc24bca4)
REM
REM compiler GCC version 9.2.1 20190827 (Red Hat 9.2.1-1)
REM options -cpp -mtune=generic -march=x86-64 -g -O0 -fpre-include=/usr/include/finclude/math-vector-fortran.h
REM seed 380901110 -118512372 127305334 -777585270 -1826786042 -63327834 -1417442718 -877338440 2006625809 -1723632818 502691961 -906290213 -915185482 400135264 -1266072035 303709196 -1922707507 480903698 1864286812 731651635 -353142771 289866683 294156479 -1195508425 379691222 1479779022 986828150 851147782 -1926291331 166292498 -1250327966 -966700920 299141665
REM
CELL 1.54180   50.00000   50.00000   50.00000   90.00000   90.00000   90.00000
LATT -1
SFAC C  
C      1  0.4931350000000  0.5362550000000  0.4408740000000 1.0
C      1  0.5100130000000  0.5721400000000  0.4777950000000 1.0
C      1  0.4896350000000  0.5641840000000  0.5363720000000 1.0
C      1  0.5086880000000  0.5154730000000  0.5675890000000 1.0
C      1  0.4931720000000  0.4637290000000  0.5591210000000 1.0
C      1  0.5101610000000  0.4278830000000  0.5222130000000 1.0
C      1  0.4898100000000  0.4357930000000  0.4636200000000 1.0
C      1  0.5087760000000  0.4845470000000  0.4324180000000 1.0
C      1  0.5276680000000  0.4419020000000  0.4981210000000 1.0
C      1  0.4706400000000  0.4613640000000  0.4561990000000 1.0
C      1  0.5202420000000  0.5087210000000  0.4505150000000 1.0
C      1  0.4850710000000  0.5399660000000  0.4721770000000 1.0
C      1  0.5275330000000  0.5581610000000  0.5019000000000 1.0
C      1  0.4705170000000  0.5385680000000  0.5437780000000 1.0
C      1  0.5202230000000  0.4913260000000  0.5495010000000 1.0
C      1  0.4851410000000  0.4600000000000  0.5278120000000 1.0
C      1  0.4538640000000  0.5465400000000  0.4846160000000 1.0
C      1  0.5472540000000  0.5402070000000  0.5219680000000 1.0
C      1  0.4509500000000  0.5116780000000  0.5441090000000 1.0
C      1  0.5488270000000  0.4752250000000  0.5432180000000 1.0
C      1  0.4539590000000  0.4533540000000  0.5153480000000 1.0
C      1  0.5473640000000  0.4599020000000  0.4780690000000 1.0
C      1  0.4510110000000  0.4882100000000  0.4558520000000 1.0
C      1  0.5488030000000  0.5248870000000  0.4568200000000 1.0
C      1  0.5635980000000  0.4881750000000  0.5211750000000 1.0
C      1  0.4373080000000  0.4767970000000  0.5078070000000 1.0
C      1  0.5627400000000  0.4826500000000  0.4905180000000 1.0
C      1  0.4365470000000  0.4937110000000  0.4812080000000 1.0
C      1  0.5635870000000  0.5119710000000  0.4788740000000 1.0
C      1  0.4372620000000  0.5230590000000  0.4921440000000 1.0
C      1  0.5626930000000  0.5174940000000  0.5095310000000 1.0
C      1  0.4365180000000  0.5061440000000  0.5187430000000 1.0
C      1  0.4786440000000  0.5163220000000  0.5654110000000 1.0
C      1  0.5260740000000  0.4634240000000  0.5669070000000 1.0
C      1  0.4785210000000  0.4287100000000  0.5191590000000 1.0
C      1  0.5192200000000  0.4413230000000  0.4669950000000 1.0
C      1  0.4787330000000  0.4836290000000  0.4345720000000 1.0
C      1  0.5260420000000  0.5366360000000  0.4331140000000 1.0
C      1  0.4783730000000  0.5712410000000  0.4808250000000 1.0
C      1  0.5190600000000  0.5587210000000  0.5330190000000 1.0
C      1  0.4717170000000  0.5241840000000  0.5124500000000 1.0
C      1  0.5254530000000  0.5068480000000  0.5193840000000 1.0
C      1  0.4733630000000  0.4906840000000  0.5181290000000 1.0
C      1  0.5267420000000  0.4745790000000  0.5089170000000 1.0
C      1  0.4717830000000  0.4757510000000  0.4875280000000 1.0
C      1  0.5254840000000  0.4932100000000  0.4806360000000 1.0
C      1  0.4733560000000  0.5092550000000  0.4818510000000 1.0
C      1  0.5266900000000  0.5254820000000  0.4911040000000 1.0
C      1  0.4715100000000  0.4873930000000  0.5525070000000 1.0
C      1  0.5237400000000  0.4534810000000  0.5355220000000 1.0
C      1  0.4725100000000  0.4415510000000  0.4900580000000 1.0
C      1  0.5264140000000  0.4701390000000  0.4549740000000 1.0
C      1  0.4715220000000  0.5125420000000  0.4474710000000 1.0
C      1  0.5236610000000  0.5465730000000  0.4644970000000 1.0
C      1  0.4723680000000  0.5583860000000  0.5099200000000 1.0
C      1  0.5263110000000  0.5299210000000  0.5450470000000 1.0
END
