TITL C-2782227-3064-500 -7.36879391478553e-05 125000 -1058.19909069002 0 0 177 (C1) n - 1
REM
REM in /home/nfs/bkarasulu/CARBON/AIRSS/Generating-Clusters/REBO/Higher-Symm/SD-CG/HFTN-CG
REM
REM
REM
REM
REM
REM ./C.cell (12c818d87b63d06a65506943cc24bca4)
REM
REM compiler GCC version 9.2.1 20190827 (Red Hat 9.2.1-1)
REM options -cpp -mtune=generic -march=x86-64 -g -O0 -fpre-include=/usr/include/finclude/math-vector-fortran.h
REM seed 549944706 2096887277 785611142 -677318370 1081199006 -69393062 1540707309 1422304214 150490211 -562586920 243465967 -1424028547 606617120 -1560404817 -376267195 -943983736 -13832289 282905600 -870177815 -752294217 -1818385675 -1485720303 -1959987463 -640091197 -138752800 1723720765 -310293450 -291831653 -1149110134 -1331249621 287101264 -186402215 1629475143
REM
CELL 1.54180   50.00000   50.00000   50.00000   90.00000   90.00000   90.00000
LATT -1
SFAC C  
C      1  0.5536280000000  0.5163720000000  0.5522950000000 1.0
C      1  0.4842100000000  0.4395710000000  0.5491880000000 1.0
C      1  0.4528260000000  0.5405170000000  0.5356610000000 1.0
C      1  0.5619510000000  0.5388770000000  0.4249540000000 1.0
C      1  0.4845080000000  0.4394270000000  0.4516930000000 1.0
C      1  0.4481780000000  0.5476780000000  0.4394820000000 1.0
C      1  0.4414610000000  0.5188690000000  0.5479380000000 1.0
C      1  0.5149880000000  0.4353300000000  0.5545250000000 1.0
C      1  0.5495490000000  0.5407470000000  0.5401180000000 1.0
C      1  0.4356430000000  0.5304140000000  0.4210270000000 1.0
C      1  0.5147510000000  0.4378120000000  0.4588650000000 1.0
C      1  0.5506310000000  0.5549310000000  0.4448750000000 1.0
C      1  0.4891270000000  0.5916380000000  0.5625630000000 1.0
C      1  0.5822990000000  0.4665060000000  0.5626070000000 1.0
C      1  0.4289050000000  0.4413890000000  0.5697470000000 1.0
C      1  0.4827540000000  0.5932980000000  0.4298920000000 1.0
C      1  0.5818640000000  0.4727820000000  0.4393040000000 1.0
C      1  0.4335370000000  0.4419520000000  0.4392180000000 1.0
C      1  0.5196260000000  0.5898690000000  0.5657460000000 1.0
C      1  0.4157880000000  0.4680800000000  0.5644720000000 1.0
C      1  0.5675670000000  0.4402040000000  0.5655320000000 1.0
C      1  0.5140580000000  0.5952660000000  0.4327560000000 1.0
C      1  0.4172220000000  0.4669980000000  0.4431940000000 1.0
C      1  0.5694330000000  0.4455980000000  0.4353180000000 1.0
C      1  0.5127740000000  0.4697920000000  0.6132570000000 1.0
C      1  0.4592100000000  0.5083940000000  0.6105320000000 1.0
C      1  0.5240080000000  0.5309690000000  0.6116260000000 1.0
C      1  0.5137560000000  0.4669210000000  0.3879850000000 1.0
C      1  0.4534770000000  0.5150830000000  0.3975560000000 1.0
C      1  0.5268280000000  0.5399690000000  0.3962170000000 1.0
C      1  0.4845590000000  0.4674970000000  0.6154940000000 1.0
C      1  0.5448990000000  0.5074720000000  0.6154280000000 1.0
C      1  0.4742920000000  0.5335280000000  0.6046150000000 1.0
C      1  0.4834110000000  0.4721580000000  0.3872190000000 1.0
C      1  0.5363510000000  0.5117100000000  0.3880560000000 1.0
C      1  0.4774630000000  0.5358260000000  0.3996340000000 1.0
C      1  0.5316190000000  0.4639300000000  0.4131910000000 1.0
C      1  0.4479660000000  0.4908040000000  0.4167740000000 1.0
C      1  0.5181560000000  0.5471470000000  0.4225520000000 1.0
C      1  0.5314090000000  0.4638100000000  0.5880000000000 1.0
C      1  0.4496490000000  0.4914790000000  0.5871810000000 1.0
C      1  0.5187500000000  0.5455340000000  0.5848920000000 1.0
C      1  0.4671610000000  0.4647230000000  0.4112180000000 1.0
C      1  0.5498040000000  0.4928030000000  0.4093600000000 1.0
C      1  0.4877190000000  0.5423170000000  0.4256420000000 1.0
C      1  0.4677280000000  0.4626220000000  0.5901400000000 1.0
C      1  0.5528870000000  0.4901800000000  0.5918970000000 1.0
C      1  0.4852390000000  0.5443830000000  0.5781390000000 1.0
C      1  0.5159260000000  0.5799570000000  0.5356500000000 1.0
C      1  0.5625500000000  0.4469570000000  0.5342250000000 1.0
C      1  0.4212770000000  0.4734680000000  0.5328800000000 1.0
C      1  0.5193010000000  0.5752120000000  0.4588600000000 1.0
C      1  0.5640470000000  0.4500890000000  0.4668230000000 1.0
C      1  0.4205410000000  0.4728980000000  0.4734340000000 1.0
C      1  0.4850960000000  0.5771030000000  0.5321550000000 1.0
C      1  0.4347770000000  0.4449280000000  0.5383660000000 1.0
C      1  0.5773410000000  0.4745270000000  0.5315500000000 1.0
C      1  0.4880870000000  0.5771880000000  0.4567720000000 1.0
C      1  0.4374870000000  0.4469580000000  0.4711040000000 1.0
C      1  0.5789150000000  0.4780050000000  0.4701650000000 1.0
C      1  0.4701870000000  0.5697620000000  0.5684950000000 1.0
C      1  0.5799040000000  0.4900550000000  0.5774800000000 1.0
C      1  0.4530260000000  0.4352230000000  0.5828760000000 1.0
C      1  0.4546700000000  0.5944830000000  0.4256310000000 1.0
C      1  0.5769640000000  0.4948610000000  0.4231590000000 1.0
C      1  0.4561420000000  0.4366860000000  0.4236740000000 1.0
C      1  0.5364940000000  0.5694300000000  0.5763120000000 1.0
C      1  0.4205940000000  0.4919860000000  0.5781710000000 1.0
C      1  0.5443530000000  0.4355490000000  0.5808670000000 1.0
C      1  0.5438530000000  0.6010150000000  0.4338190000000 1.0
C      1  0.4198990000000  0.4895280000000  0.4274350000000 1.0
C      1  0.5457270000000  0.4375560000000  0.4225450000000 1.0
C      1  0.5669480000000  0.5799040000000  0.5180950000000 1.0
C      1  0.5360260000000  0.4027330000000  0.5175520000000 1.0
C      1  0.3933620000000  0.5034110000000  0.5129860000000 1.0
C      1  0.5628550000000  0.5797610000000  0.4876530000000 1.0
C      1  0.5409070000000  0.4041390000000  0.4869120000000 1.0
C      1  0.3934670000000  0.5065600000000  0.4823690000000 1.0
C      1  0.4377420000000  0.5783780000000  0.5143390000000 1.0
C      1  0.4576320000000  0.4039360000000  0.5158760000000 1.0
C      1  0.6070230000000  0.5037810000000  0.5117460000000 1.0
C      1  0.4433450000000  0.5781360000000  0.4842820000000 1.0
C      1  0.4626100000000  0.4022230000000  0.4850390000000 1.0
C      1  0.6057050000000  0.5070420000000  0.4810740000000 1.0
C      1  0.6042150000000  0.4730190000000  0.4863500000000 1.0
C      1  0.4345770000000  0.4215790000000  0.4884500000000 1.0
C      1  0.4742430000000  0.5923850000000  0.4803080000000 1.0
C      1  0.6045280000000  0.4703630000000  0.5179790000000 1.0
C      1  0.4286170000000  0.4215980000000  0.5200060000000 1.0
C      1  0.4684060000000  0.5932010000000  0.5115990000000 1.0
C      1  0.3940560000000  0.4725980000000  0.4874980000000 1.0
C      1  0.5687560000000  0.4233400000000  0.4822960000000 1.0
C      1  0.5309810000000  0.5905110000000  0.4823560000000 1.0
C      1  0.3945630000000  0.4697050000000  0.5187720000000 1.0
C      1  0.5632260000000  0.4232540000000  0.5139580000000 1.0
C      1  0.5348290000000  0.5908480000000  0.5138650000000 1.0
C      1  0.5381060000000  0.4549350000000  0.5163360000000 1.0
C      1  0.4395520000000  0.4925580000000  0.5178740000000 1.0
C      1  0.5199650000000  0.5538690000000  0.5170750000000 1.0
C      1  0.5392260000000  0.4557320000000  0.4844260000000 1.0
C      1  0.4387700000000  0.4929470000000  0.4846310000000 1.0
C      1  0.5178090000000  0.5529160000000  0.4848110000000 1.0
C      1  0.4588510000000  0.4564740000000  0.5237010000000 1.0
C      1  0.5604520000000  0.4951830000000  0.5172850000000 1.0
C      1  0.4806070000000  0.5552450000000  0.5111570000000 1.0
C      1  0.4611040000000  0.4570990000000  0.4909290000000 1.0
C      1  0.5625950000000  0.4982920000000  0.4833730000000 1.0
C      1  0.4804070000000  0.5534680000000  0.4771860000000 1.0
C      1  0.5289260000000  0.5000550000000  0.5188330000000 1.0
C      1  0.4877330000000  0.4739710000000  0.5170550000000 1.0
C      1  0.4836910000000  0.5227060000000  0.5179500000000 1.0
C      1  0.5314080000000  0.4997280000000  0.4867070000000 1.0
C      1  0.4897740000000  0.4750960000000  0.4855910000000 1.0
C      1  0.4849580000000  0.5162390000000  0.4845070000000 1.0
C      1  0.4671880000000  0.4950540000000  0.5288710000000 1.0
C      1  0.5156670000000  0.4749140000000  0.5295760000000 1.0
C      1  0.5146620000000  0.5246930000000  0.5294320000000 1.0
C      1  0.4660960000000  0.4923390000000  0.4727710000000 1.0
C      1  0.5171740000000  0.4752080000000  0.4726720000000 1.0
C      1  0.5149870000000  0.5228790000000  0.4748780000000 1.0
C      1  0.5476210000000  0.5458130000000  0.4731320000000 1.0
C      1  0.5149610000000  0.4340520000000  0.4916030000000 1.0
C      1  0.4298730000000  0.5220800000000  0.4775550000000 1.0
C      1  0.5496830000000  0.5458270000000  0.5074180000000 1.0
C      1  0.5143710000000  0.4355010000000  0.5236630000000 1.0
C      1  0.4285360000000  0.5215990000000  0.5102440000000 1.0
C      1  0.4541500000000  0.5392910000000  0.4683840000000 1.0
C      1  0.4834050000000  0.4358910000000  0.4827620000000 1.0
C      1  0.5716690000000  0.5277460000000  0.4798790000000 1.0
C      1  0.4521070000000  0.5429280000000  0.5026850000000 1.0
C      1  0.4830050000000  0.4345500000000  0.5154940000000 1.0
C      1  0.5726860000000  0.5237510000000  0.5123350000000 1.0
C      1  0.5959450000000  0.5279050000000  0.5334320000000 1.0
C      1  0.4803660000000  0.4015820000000  0.5378820000000 1.0
C      1  0.4191170000000  0.5609070000000  0.5321110000000 1.0
C      1  0.5953780000000  0.5324020000000  0.4606320000000 1.0
C      1  0.4846860000000  0.4007410000000  0.4639630000000 1.0
C      1  0.4209410000000  0.5610830000000  0.4651460000000 1.0
C      1  0.4064250000000  0.5291050000000  0.5316780000000 1.0
C      1  0.5143370000000  0.3987620000000  0.5390670000000 1.0
C      1  0.5838360000000  0.5598470000000  0.5354060000000 1.0
C      1  0.4049370000000  0.5308460000000  0.4612840000000 1.0
C      1  0.5187350000000  0.3992780000000  0.4649150000000 1.0
C      1  0.5826440000000  0.5638300000000  0.4665680000000 1.0
C      1  0.4739480000000  0.4143290000000  0.4357450000000 1.0
C      1  0.4376190000000  0.5760620000000  0.4394170000000 1.0
C      1  0.5828630000000  0.5209370000000  0.4325190000000 1.0
C      1  0.4691690000000  0.4177040000000  0.5654800000000 1.0
C      1  0.4472010000000  0.5657480000000  0.5513860000000 1.0
C      1  0.5814970000000  0.5122390000000  0.5591040000000 1.0
C      1  0.5301200000000  0.4201470000000  0.4400980000000 1.0
C      1  0.5622410000000  0.5825860000000  0.4460800000000 1.0
C      1  0.4130500000000  0.5169880000000  0.4328050000000 1.0
C      1  0.5266220000000  0.4110230000000  0.5685020000000 1.0
C      1  0.5583210000000  0.5640790000000  0.5576850000000 1.0
C      1  0.4153980000000  0.5141810000000  0.5610070000000 1.0
C      1  0.4831890000000  0.5215910000000  0.5538780000000 1.0
C      1  0.5323380000000  0.4987770000000  0.5686820000000 1.0
C      1  0.4862140000000  0.4667740000000  0.5639510000000 1.0
C      1  0.4838890000000  0.5197860000000  0.4501930000000 1.0
C      1  0.5285350000000  0.4989830000000  0.4316220000000 1.0
C      1  0.4861860000000  0.4655540000000  0.4372360000000 1.0
C      1  0.5156070000000  0.5244780000000  0.5616090000000 1.0
C      1  0.4688190000000  0.4930710000000  0.5612860000000 1.0
C      1  0.5154250000000  0.4743060000000  0.5605720000000 1.0
C      1  0.5173360000000  0.5231010000000  0.4436230000000 1.0
C      1  0.4683860000000  0.4913160000000  0.4410330000000 1.0
C      1  0.5150140000000  0.4734860000000  0.4414530000000 1.0
C      1  0.5200310000000  0.4944520000000  0.6263830000000 1.0
C      1  0.4751840000000  0.4912440000000  0.6290520000000 1.0
C      1  0.5012800000000  0.5282150000000  0.3787410000000 1.0
C      1  0.5118580000000  0.4962500000000  0.3734710000000 1.0
C      1  0.4957930000000  0.5182940000000  0.6258150000000 1.0
C      1  0.4781570000000  0.5028970000000  0.3775540000000 1.0
C      1  0.5020760000000  0.5947310000000  0.5006490000000 1.0
C      1  0.4110620000000  0.4447710000000  0.5010390000000 1.0
C      1  0.5870550000000  0.4459740000000  0.5008060000000 1.0
END
