TITL C-2782229-3092-560 -0.00311816500356368 125000 -668.882320746372 0 0 114 (C1) n - 1
REM
REM in /home/nfs/bkarasulu/CARBON/AIRSS/Generating-Clusters/REBO/Higher-Symm/SD-CG/HFTN-CG
REM
REM
REM
REM
REM
REM ./C.cell (12c818d87b63d06a65506943cc24bca4)
REM
REM compiler GCC version 9.2.1 20190827 (Red Hat 9.2.1-1)
REM options -cpp -mtune=generic -march=x86-64 -g -O0 -fpre-include=/usr/include/finclude/math-vector-fortran.h
REM seed 422985700 -544217814 -618106599 -681312866 -674547758 245332551 -1504217852 -2119392830 -2032109818 -1335516662 -33519951 -539610100 1138528004 -1877615119 -642338255 348721309 -762012734 -1527223390 -257336047 -141629292 1210502865 -1426464402 2024503552 2073014686 692128807 742479830 1460572861 1669247802 -1618079109 2139709143 1326043311 -2019077340 392555349
REM
CELL 1.54180   50.00000   50.00000   50.00000   90.00000   90.00000   90.00000
LATT -1
SFAC C  
C      1  0.5480890000000  0.5514820000000  0.5455370000000 1.0
C      1  0.5633710000000  0.4929630000000  0.4491930000000 1.0
C      1  0.5194550000000  0.5214340000000  0.5047380000000 1.0
C      1  0.5098840000000  0.4546440000000  0.4193910000000 1.0
C      1  0.4634150000000  0.5494350000000  0.5093760000000 1.0
C      1  0.4246020000000  0.5379310000000  0.5027620000000 1.0
C      1  0.4531460000000  0.5621290000000  0.4391810000000 1.0
C      1  0.4466770000000  0.4681870000000  0.4510110000000 1.0
C      1  0.4477510000000  0.4230680000000  0.4923820000000 1.0
C      1  0.4793120000000  0.4737210000000  0.4504090000000 1.0
C      1  0.5047180000000  0.5564760000000  0.4607380000000 1.0
C      1  0.5887820000000  0.4853020000000  0.4965340000000 1.0
C      1  0.5126810000000  0.4048500000000  0.5265210000000 1.0
C      1  0.5233120000000  0.4436060000000  0.5291090000000 1.0
C      1  0.5702570000000  0.5276450000000  0.5789850000000 1.0
C      1  0.5494720000000  0.4825450000000  0.5015840000000 1.0
C      1  0.5039860000000  0.4626140000000  0.5853720000000 1.0
C      1  0.5287620000000  0.4122120000000  0.4982960000000 1.0
C      1  0.4400310000000  0.4902450000000  0.4836610000000 1.0
C      1  0.5090920000000  0.5135860000000  0.4328400000000 1.0
C      1  0.4810400000000  0.5724770000000  0.4375700000000 1.0
C      1  0.5564820000000  0.4326820000000  0.4579590000000 1.0
C      1  0.4330760000000  0.5091930000000  0.5110860000000 1.0
C      1  0.5071020000000  0.5970200000000  0.4974370000000 1.0
C      1  0.4718850000000  0.4120350000000  0.4810920000000 1.0
C      1  0.4443390000000  0.4302230000000  0.5255540000000 1.0
C      1  0.5194080000000  0.4567300000000  0.5604030000000 1.0
C      1  0.5315070000000  0.4816930000000  0.4726610000000 1.0
C      1  0.5261770000000  0.5524940000000  0.4253600000000 1.0
C      1  0.4271860000000  0.4830760000000  0.5405360000000 1.0
C      1  0.5166590000000  0.5150470000000  0.5837140000000 1.0
C      1  0.3975280000000  0.4813720000000  0.4869990000000 1.0
C      1  0.4486900000000  0.5477520000000  0.5360070000000 1.0
C      1  0.5750780000000  0.5406100000000  0.5549800000000 1.0
C      1  0.4437990000000  0.5132160000000  0.4357500000000 1.0
C      1  0.4538010000000  0.5045260000000  0.5355010000000 1.0
C      1  0.5754350000000  0.4738530000000  0.4671760000000 1.0
C      1  0.4248740000000  0.5365690000000  0.5430670000000 1.0
C      1  0.5114920000000  0.5480670000000  0.4913030000000 1.0
C      1  0.4781060000000  0.4495260000000  0.5856240000000 1.0
C      1  0.5541130000000  0.5628950000000  0.5070930000000 1.0
C      1  0.5416550000000  0.5683430000000  0.4511500000000 1.0
C      1  0.5364690000000  0.5653320000000  0.4834100000000 1.0
C      1  0.4928420000000  0.5887290000000  0.4613830000000 1.0
C      1  0.5261400000000  0.4317270000000  0.4474630000000 1.0
C      1  0.4868070000000  0.4489010000000  0.4803140000000 1.0
C      1  0.5100370000000  0.5844750000000  0.5271340000000 1.0
C      1  0.5149340000000  0.4810020000000  0.5402570000000 1.0
C      1  0.4935090000000  0.5614330000000  0.5095600000000 1.0
C      1  0.5912800000000  0.5271850000000  0.5360410000000 1.0
C      1  0.4612010000000  0.4892500000000  0.4284030000000 1.0
C      1  0.4970570000000  0.5404540000000  0.5721940000000 1.0
C      1  0.4329980000000  0.5696590000000  0.4939880000000 1.0
C      1  0.5690030000000  0.4646510000000  0.5584640000000 1.0
C      1  0.4597850000000  0.5827870000000  0.5088140000000 1.0
C      1  0.4804190000000  0.5325650000000  0.4124710000000 1.0
C      1  0.5648890000000  0.5185730000000  0.4637290000000 1.0
C      1  0.4544510000000  0.5212870000000  0.5651460000000 1.0
C      1  0.5759110000000  0.4536670000000  0.4946480000000 1.0
C      1  0.4604190000000  0.5286040000000  0.4879060000000 1.0
C      1  0.5367850000000  0.5245560000000  0.5300760000000 1.0
C      1  0.5149500000000  0.5279210000000  0.4548210000000 1.0
C      1  0.5573250000000  0.4278940000000  0.4884960000000 1.0
C      1  0.5668980000000  0.4642560000000  0.5248190000000 1.0
C      1  0.5161440000000  0.4847800000000  0.4160160000000 1.0
C      1  0.5605400000000  0.5345970000000  0.5115570000000 1.0
C      1  0.4342730000000  0.4468020000000  0.4744150000000 1.0
C      1  0.5270240000000  0.5135270000000  0.4754480000000 1.0
C      1  0.4336160000000  0.4568920000000  0.5071110000000 1.0
C      1  0.4992520000000  0.4796530000000  0.4763400000000 1.0
C      1  0.4838010000000  0.4929460000000  0.5369650000000 1.0
C      1  0.4710040000000  0.4216460000000  0.5449400000000 1.0
C      1  0.4223360000000  0.5114740000000  0.5583290000000 1.0
C      1  0.4819200000000  0.4254590000000  0.4554160000000 1.0
C      1  0.5330980000000  0.5029990000000  0.5493280000000 1.0
C      1  0.4945410000000  0.4396400000000  0.5181000000000 1.0
C      1  0.4328280000000  0.5128540000000  0.4611260000000 1.0
C      1  0.5590360000000  0.4379060000000  0.5452390000000 1.0
C      1  0.5481550000000  0.5057410000000  0.5781030000000 1.0
C      1  0.4985820000000  0.4916420000000  0.5866610000000 1.0
C      1  0.5448600000000  0.5275360000000  0.4218760000000 1.0
C      1  0.5451620000000  0.4981950000000  0.4254510000000 1.0
C      1  0.5567220000000  0.5397810000000  0.4473670000000 1.0
C      1  0.4361070000000  0.5638240000000  0.4618250000000 1.0
C      1  0.4464440000000  0.4585990000000  0.5449220000000 1.0
C      1  0.4128650000000  0.4816350000000  0.5115900000000 1.0
C      1  0.4753030000000  0.5086820000000  0.4869950000000 1.0
C      1  0.5401080000000  0.5773010000000  0.5307830000000 1.0
C      1  0.4726960000000  0.4943800000000  0.5690790000000 1.0
C      1  0.4597320000000  0.4650900000000  0.5716080000000 1.0
C      1  0.4942900000000  0.4124120000000  0.5000150000000 1.0
C      1  0.4161130000000  0.4740160000000  0.4647670000000 1.0
C      1  0.5265560000000  0.5414520000000  0.5647930000000 1.0
C      1  0.5969540000000  0.5072080000000  0.5188960000000 1.0
C      1  0.4974600000000  0.4157810000000  0.5500550000000 1.0
C      1  0.5665140000000  0.5110170000000  0.4933240000000 1.0
C      1  0.5624260000000  0.4785280000000  0.5801460000000 1.0
C      1  0.5300170000000  0.4249470000000  0.5560280000000 1.0
C      1  0.4713330000000  0.5504080000000  0.5596790000000 1.0
C      1  0.4698290000000  0.4601770000000  0.5233010000000 1.0
C      1  0.5404220000000  0.4606560000000  0.4532380000000 1.0
C      1  0.4779140000000  0.5963940000000  0.4889550000000 1.0
C      1  0.5367870000000  0.4510070000000  0.5025710000000 1.0
C      1  0.4624380000000  0.4684050000000  0.4924830000000 1.0
C      1  0.5249640000000  0.5921570000000  0.4688220000000 1.0
C      1  0.4961690000000  0.5031240000000  0.5084770000000 1.0
C      1  0.4986170000000  0.5530980000000  0.4209420000000 1.0
C      1  0.4909730000000  0.4481040000000  0.4382430000000 1.0
C      1  0.5034090000000  0.4717300000000  0.5093460000000 1.0
C      1  0.4247020000000  0.5374720000000  0.4723040000000 1.0
C      1  0.4540430000000  0.5370850000000  0.4244100000000 1.0
C      1  0.5169140000000  0.4373510000000  0.4785500000000 1.0
C      1  0.4863170000000  0.5010180000000  0.4122510000000 1.0
C      1  0.4783540000000  0.5744920000000  0.5366360000000 1.0
END
