TITL C-2782226-7400-1306 -0.000413743894025241 125000 -417.220960950491 0 0 69 (C1) n - 1
REM
REM in /home/nfs/bkarasulu/CARBON/AIRSS/Generating-Clusters/REBO/Higher-Symm/SD-CG/HFTN-CG
REM
REM
REM
REM
REM
REM ./C.cell (12c818d87b63d06a65506943cc24bca4)
REM
REM compiler GCC version 9.2.1 20190827 (Red Hat 9.2.1-1)
REM options -cpp -mtune=generic -march=x86-64 -g -O0 -fpre-include=/usr/include/finclude/math-vector-fortran.h
REM seed -1810798505 -1683838055 466121484 -1410566565 243645184 54764391 -92138444 1699442875 264486046 -1392989322 380137395 -1526020813 -1876011281 969412401 1661531015 518393086 -1671458969 -1966457550 1393884458 1834293867 1037103916 -994012308 -546763511 -439557339 1112051871 1014089687 -90831834 1723167312 708712110 1391375116 -1663603125 1118515538 -2112681560
REM
CELL 1.54180   50.00000   50.00000   50.00000   90.00000   90.00000   90.00000
LATT -1
SFAC C  
C      1  0.4925470000000  0.5296430000000  0.4517600000000 1.0
C      1  0.5425070000000  0.5340870000000  0.5180790000000 1.0
C      1  0.4671670000000  0.5273340000000  0.5276810000000 1.0
C      1  0.4882510000000  0.4733990000000  0.4561750000000 1.0
C      1  0.5403050000000  0.4784400000000  0.5117970000000 1.0
C      1  0.4636160000000  0.4689570000000  0.5288010000000 1.0
C      1  0.4922880000000  0.5322770000000  0.5464250000000 1.0
C      1  0.5408490000000  0.5303950000000  0.4867590000000 1.0
C      1  0.4657630000000  0.5230040000000  0.4683740000000 1.0
C      1  0.4921380000000  0.4762270000000  0.5415600000000 1.0
C      1  0.5414740000000  0.4712840000000  0.4805530000000 1.0
C      1  0.4617690000000  0.4673270000000  0.4715620000000 1.0
C      1  0.5539620000000  0.5244920000000  0.5629290000000 1.0
C      1  0.4206070000000  0.5278860000000  0.5190020000000 1.0
C      1  0.5306030000000  0.5248040000000  0.4220880000000 1.0
C      1  0.5535450000000  0.4718130000000  0.5571750000000 1.0
C      1  0.4175870000000  0.4749790000000  0.5225000000000 1.0
C      1  0.5287240000000  0.4714270000000  0.4245310000000 1.0
C      1  0.5575930000000  0.5236460000000  0.4427480000000 1.0
C      1  0.4197200000000  0.5258670000000  0.4851150000000 1.0
C      1  0.5242980000000  0.5227440000000  0.5795410000000 1.0
C      1  0.5598760000000  0.4708030000000  0.4381770000000 1.0
C      1  0.4162540000000  0.4730330000000  0.4885720000000 1.0
C      1  0.5251460000000  0.4699340000000  0.5751260000000 1.0
C      1  0.5274980000000  0.5592600000000  0.5265400000000 1.0
C      1  0.4706490000000  0.5510820000000  0.5083020000000 1.0
C      1  0.5052530000000  0.5553330000000  0.4623530000000 1.0
C      1  0.5221130000000  0.4527450000000  0.5104860000000 1.0
C      1  0.4640250000000  0.4428450000000  0.5132230000000 1.0
C      1  0.5057000000000  0.4470160000000  0.4577130000000 1.0
C      1  0.5257270000000  0.5549340000000  0.4763180000000 1.0
C      1  0.4719830000000  0.5498040000000  0.4836040000000 1.0
C      1  0.5059870000000  0.5584640000000  0.5390890000000 1.0
C      1  0.5263860000000  0.4465530000000  0.4714800000000 1.0
C      1  0.4651630000000  0.4419380000000  0.4883380000000 1.0
C      1  0.5013650000000  0.4516260000000  0.5242120000000 1.0
C      1  0.4973880000000  0.4721110000000  0.5705760000000 1.0
C      1  0.4314510000000  0.4702580000000  0.4652140000000 1.0
C      1  0.5672720000000  0.4724710000000  0.4657590000000 1.0
C      1  0.4961670000000  0.5251380000000  0.5751530000000 1.0
C      1  0.4352250000000  0.5242370000000  0.4618500000000 1.0
C      1  0.5656170000000  0.5256490000000  0.4699610000000 1.0
C      1  0.5008050000000  0.4707630000000  0.4259390000000 1.0
C      1  0.4377020000000  0.4737870000000  0.5426370000000 1.0
C      1  0.5630240000000  0.4748540000000  0.5308070000000 1.0
C      1  0.5026750000000  0.5260120000000  0.4227040000000 1.0
C      1  0.4397800000000  0.5277600000000  0.5398620000000 1.0
C      1  0.5648970000000  0.5280440000000  0.5368900000000 1.0
C      1  0.5865060000000  0.5173130000000  0.5205860000000 1.0
C      1  0.4425200000000  0.5175970000000  0.5669060000000 1.0
C      1  0.4742890000000  0.5148320000000  0.4194630000000 1.0
C      1  0.5858780000000  0.4862070000000  0.5163060000000 1.0
C      1  0.4445480000000  0.4863430000000  0.5682930000000 1.0
C      1  0.4718320000000  0.4835290000000  0.4214390000000 1.0
C      1  0.5857330000000  0.5137790000000  0.4875820000000 1.0
C      1  0.4464030000000  0.5106190000000  0.4358220000000 1.0
C      1  0.4708290000000  0.5123750000000  0.5831610000000 1.0
C      1  0.5874850000000  0.4827720000000  0.4834920000000 1.0
C      1  0.4434750000000  0.4795590000000  0.4382450000000 1.0
C      1  0.4732370000000  0.4811720000000  0.5839960000000 1.0
C      1  0.5003730000000  0.5055230000000  0.5299600000000 1.0
C      1  0.4995010000000  0.5018310000000  0.4678320000000 1.0
C      1  0.5251880000000  0.5006120000000  0.4823110000000 1.0
C      1  0.5254120000000  0.5068200000000  0.5149110000000 1.0
C      1  0.4716870000000  0.4956330000000  0.4847090000000 1.0
C      1  0.4724280000000  0.4970540000000  0.5139240000000 1.0
C      1  0.4082020000000  0.5010960000000  0.5042020000000 1.0
C      1  0.5493520000000  0.4978710000000  0.4230550000000 1.0
C      1  0.5446820000000  0.4964400000000  0.5777610000000 1.0
END
