TITL C-2782227-3064-1055 -0.00149897916909855 125000 -625.974671758236 0 0 106 (C1) n - 1
REM
REM in /home/nfs/bkarasulu/CARBON/AIRSS/Generating-Clusters/REBO/Higher-Symm/SD-CG/HFTN-CG
REM
REM
REM
REM
REM
REM ./C.cell (12c818d87b63d06a65506943cc24bca4)
REM
REM compiler GCC version 9.2.1 20190827 (Red Hat 9.2.1-1)
REM options -cpp -mtune=generic -march=x86-64 -g -O0 -fpre-include=/usr/include/finclude/math-vector-fortran.h
REM seed 1161973190 -1307200857 1758289420 -905731052 -16501035 1044237913 -595808368 1891554870 -303842143 1656847794 -138936640 29953053 -2009387295 -1393369493 1227455212 824437827 -202799650 -1235386788 957654919 1217761864 -1737923728 469609529 -1784143922 -225307944 1880675185 -1316299953 1750112826 -803593512 1732030933 -583841030 1693707175 874833328 263793936
REM
CELL 1.54180   50.00000   50.00000   50.00000   90.00000   90.00000   90.00000
LATT -1
SFAC C  
C      1  0.5715140000000  0.4495320000000  0.4798850000000 1.0
C      1  0.5842550000000  0.5351240000000  0.5023350000000 1.0
C      1  0.4909670000000  0.5672140000000  0.6341510000000 1.0
C      1  0.4535910000000  0.4738150000000  0.4167060000000 1.0
C      1  0.4324430000000  0.6151710000000  0.4798820000000 1.0
C      1  0.4580000000000  0.4891260000000  0.5617840000000 1.0
C      1  0.4745330000000  0.5893120000000  0.4876290000000 1.0
C      1  0.5898840000000  0.4804150000000  0.4413380000000 1.0
C      1  0.5293570000000  0.5235140000000  0.4247460000000 1.0
C      1  0.5784740000000  0.5504540000000  0.4763630000000 1.0
C      1  0.4889710000000  0.5618860000000  0.6085690000000 1.0
C      1  0.5540080000000  0.5030680000000  0.4841770000000 1.0
C      1  0.4590810000000  0.4609020000000  0.5587200000000 1.0
C      1  0.5176430000000  0.4911700000000  0.4496440000000 1.0
C      1  0.5026850000000  0.4996840000000  0.4936340000000 1.0
C      1  0.4394200000000  0.5335580000000  0.5553110000000 1.0
C      1  0.4150220000000  0.5724660000000  0.4982500000000 1.0
C      1  0.5002660000000  0.5072750000000  0.5772820000000 1.0
C      1  0.4805100000000  0.5665500000000  0.5022920000000 1.0
C      1  0.4687880000000  0.5167960000000  0.5058280000000 1.0
C      1  0.4792030000000  0.5333460000000  0.4802090000000 1.0
C      1  0.5311560000000  0.4240760000000  0.5084410000000 1.0
C      1  0.5421080000000  0.5403690000000  0.5726150000000 1.0
C      1  0.5426160000000  0.4753380000000  0.5721570000000 1.0
C      1  0.5545080000000  0.5554620000000  0.5196620000000 1.0
C      1  0.5066580000000  0.5594170000000  0.5104060000000 1.0
C      1  0.4559930000000  0.5006360000000  0.4609050000000 1.0
C      1  0.5909540000000  0.5254940000000  0.4641710000000 1.0
C      1  0.4326340000000  0.5031560000000  0.5525420000000 1.0
C      1  0.5301530000000  0.5212610000000  0.5396370000000 1.0
C      1  0.5331910000000  0.4638950000000  0.5091460000000 1.0
C      1  0.4869430000000  0.5564710000000  0.5825730000000 1.0
C      1  0.5412390000000  0.4536670000000  0.4647520000000 1.0
C      1  0.4095140000000  0.4956100000000  0.5667980000000 1.0
C      1  0.5439630000000  0.4358580000000  0.5351390000000 1.0
C      1  0.5924900000000  0.4712780000000  0.4728290000000 1.0
C      1  0.4848120000000  0.4021960000000  0.5230650000000 1.0
C      1  0.4953000000000  0.4400690000000  0.4811880000000 1.0
C      1  0.4876800000000  0.5118610000000  0.4006720000000 1.0
C      1  0.5118490000000  0.5294600000000  0.4847800000000 1.0
C      1  0.5226730000000  0.4626390000000  0.5400740000000 1.0
C      1  0.4560980000000  0.4318350000000  0.4936060000000 1.0
C      1  0.5392380000000  0.5588500000000  0.5494970000000 1.0
C      1  0.5325900000000  0.5628230000000  0.4524180000000 1.0
C      1  0.5280900000000  0.4810610000000  0.4803530000000 1.0
C      1  0.5194400000000  0.4260090000000  0.5548930000000 1.0
C      1  0.4862140000000  0.4504380000000  0.5546460000000 1.0
C      1  0.4243960000000  0.4652480000000  0.4854520000000 1.0
C      1  0.5335730000000  0.4556540000000  0.4359350000000 1.0
C      1  0.5622360000000  0.5199880000000  0.5724960000000 1.0
C      1  0.5043720000000  0.4330530000000  0.5068070000000 1.0
C      1  0.4560740000000  0.4464360000000  0.4282600000000 1.0
C      1  0.4196180000000  0.4151510000000  0.4375240000000 1.0
C      1  0.4591940000000  0.6097500000000  0.4788620000000 1.0
C      1  0.4600080000000  0.5466030000000  0.5432810000000 1.0
C      1  0.5010850000000  0.4095830000000  0.5435630000000 1.0
C      1  0.4694280000000  0.4079950000000  0.5010880000000 1.0
C      1  0.4593160000000  0.4840430000000  0.5078340000000 1.0
C      1  0.4764000000000  0.4872970000000  0.4799330000000 1.0
C      1  0.5167990000000  0.5299220000000  0.5810100000000 1.0
C      1  0.4533670000000  0.5331350000000  0.4597600000000 1.0
C      1  0.4593660000000  0.5468400000000  0.5126440000000 1.0
C      1  0.5423550000000  0.5288750000000  0.4724380000000 1.0
C      1  0.4882560000000  0.4438700000000  0.5271990000000 1.0
C      1  0.4835700000000  0.4570420000000  0.4371030000000 1.0
C      1  0.4375470000000  0.4336640000000  0.4463710000000 1.0
C      1  0.4819350000000  0.5030460000000  0.5556990000000 1.0
C      1  0.5068290000000  0.4653270000000  0.4215230000000 1.0
C      1  0.4136730000000  0.5978420000000  0.4895710000000 1.0
C      1  0.4311220000000  0.4968730000000  0.5225750000000 1.0
C      1  0.4307950000000  0.5467870000000  0.5006500000000 1.0
C      1  0.4852740000000  0.4609080000000  0.4657630000000 1.0
C      1  0.4268350000000  0.4900360000000  0.4716350000000 1.0
C      1  0.5866930000000  0.5106200000000  0.5125720000000 1.0
C      1  0.5096870000000  0.5484420000000  0.5387630000000 1.0
C      1  0.4661770000000  0.4937090000000  0.4315450000000 1.0
C      1  0.5149880000000  0.4554310000000  0.5714050000000 1.0
C      1  0.5637980000000  0.4512480000000  0.5121810000000 1.0
C      1  0.5846150000000  0.4772930000000  0.5054660000000 1.0
C      1  0.5690900000000  0.4964570000000  0.4342690000000 1.0
C      1  0.5572690000000  0.5650450000000  0.4644870000000 1.0
C      1  0.4170450000000  0.5176620000000  0.5069040000000 1.0
C      1  0.4615090000000  0.4531900000000  0.5148640000000 1.0
C      1  0.4578140000000  0.5421770000000  0.4308760000000 1.0
C      1  0.5611380000000  0.4932870000000  0.5623720000000 1.0
C      1  0.5715320000000  0.4905210000000  0.5346030000000 1.0
C      1  0.5818500000000  0.5016790000000  0.4739890000000 1.0
C      1  0.5560600000000  0.5275400000000  0.5316730000000 1.0
C      1  0.5049530000000  0.4851470000000  0.5932040000000 1.0
C      1  0.4378520000000  0.4418220000000  0.4744710000000 1.0
C      1  0.4920450000000  0.5035210000000  0.4435880000000 1.0
C      1  0.5409230000000  0.4853050000000  0.4254930000000 1.0
C      1  0.5477720000000  0.4932060000000  0.5129360000000 1.0
C      1  0.4848290000000  0.5508310000000  0.5554900000000 1.0
C      1  0.5147920000000  0.5444450000000  0.4392550000000 1.0
C      1  0.4385620000000  0.4510660000000  0.5378330000000 1.0
C      1  0.4920340000000  0.5317160000000  0.4503110000000 1.0
C      1  0.4702510000000  0.5300300000000  0.4102020000000 1.0
C      1  0.5344040000000  0.5530730000000  0.4950390000000 1.0
C      1  0.4903030000000  0.5021180000000  0.5254940000000 1.0
C      1  0.5131830000000  0.4971310000000  0.4103880000000 1.0
C      1  0.5195210000000  0.4937920000000  0.5313850000000 1.0
C      1  0.5516120000000  0.5196010000000  0.4427250000000 1.0
C      1  0.5464240000000  0.4275590000000  0.4850410000000 1.0
C      1  0.4240140000000  0.4669490000000  0.5148070000000 1.0
C      1  0.4271150000000  0.5238140000000  0.4756910000000 1.0
END
