TITL C-2782239-8622-888 -0.00260987553878891 125000 -539.671651779746 0 0 92 (C1) n - 1
REM
REM in /home/nfs/bkarasulu/CARBON/AIRSS/Generating-Clusters/REBO/Higher-Symm/SD-CG/HFTN-CG
REM
REM
REM
REM
REM
REM ./C.cell (12c818d87b63d06a65506943cc24bca4)
REM
REM compiler GCC version 9.2.1 20190827 (Red Hat 9.2.1-1)
REM options -cpp -mtune=generic -march=x86-64 -g -O0 -fpre-include=/usr/include/finclude/math-vector-fortran.h
REM seed 325829017 -1426224070 209322948 169061986 -504453986 228494305 1295199313 1984845467 -1375936875 508403803 -235805029 220612418 -2074323523 -2014052016 806586263 1293175974 129418369 -1392693895 576318331 -1393732564 -1122583096 1970232409 -81276296 667241522 577766962 116449140 276814401 -1396041840 275214501 794141340 -1462396042 -1091463141 1910467325
REM
CELL 1.54180   50.00000   50.00000   50.00000   90.00000   90.00000   90.00000
LATT -1
SFAC C  
C      1  0.5060060000000  0.4874910000000  0.4767090000000 1.0
C      1  0.5226710000000  0.4866420000000  0.5014740000000 1.0
C      1  0.5039000000000  0.4882180000000  0.5251800000000 1.0
C      1  0.4753040000000  0.4888250000000  0.5144100000000 1.0
C      1  0.4770430000000  0.4890930000000  0.4841550000000 1.0
C      1  0.5724890000000  0.5442990000000  0.4800870000000 1.0
C      1  0.5249420000000  0.5501370000000  0.5512170000000 1.0
C      1  0.4575520000000  0.5513030000000  0.5385750000000 1.0
C      1  0.4383820000000  0.5490190000000  0.4630850000000 1.0
C      1  0.5216200000000  0.5494170000000  0.4374050000000 1.0
C      1  0.4931820000000  0.5021300000000  0.4242870000000 1.0
C      1  0.5919030000000  0.4937160000000  0.4664050000000 1.0
C      1  0.5487590000000  0.4995970000000  0.5540190000000 1.0
C      1  0.4571330000000  0.5013670000000  0.5660170000000 1.0
C      1  0.4221140000000  0.5015030000000  0.4791100000000 1.0
C      1  0.5628040000000  0.4418550000000  0.5177710000000 1.0
C      1  0.4961900000000  0.4490610000000  0.5335360000000 1.0
C      1  0.4514320000000  0.4397270000000  0.5140870000000 1.0
C      1  0.4832470000000  0.4501370000000  0.4776510000000 1.0
C      1  0.5440820000000  0.4426400000000  0.4500140000000 1.0
C      1  0.5733870000000  0.4991550000000  0.5320350000000 1.0
C      1  0.4810530000000  0.5105520000000  0.5886820000000 1.0
C      1  0.4085730000000  0.5117570000000  0.5085640000000 1.0
C      1  0.4602010000000  0.5042720000000  0.4147760000000 1.0
C      1  0.5656660000000  0.4983650000000  0.4461250000000 1.0
C      1  0.4733000000000  0.5290730000000  0.4789890000000 1.0
C      1  0.4995400000000  0.5393960000000  0.4593720000000 1.0
C      1  0.5250540000000  0.5262420000000  0.4971350000000 1.0
C      1  0.5067620000000  0.5290390000000  0.5322190000000 1.0
C      1  0.4692510000000  0.5280160000000  0.5187020000000 1.0
C      1  0.4374070000000  0.5174500000000  0.4567870000000 1.0
C      1  0.5197250000000  0.5167340000000  0.4333630000000 1.0
C      1  0.5721640000000  0.5116300000000  0.4832280000000 1.0
C      1  0.5268460000000  0.5190560000000  0.5650820000000 1.0
C      1  0.4413790000000  0.5218950000000  0.5462710000000 1.0
C      1  0.4244380000000  0.4856070000000  0.5152790000000 1.0
C      1  0.4617790000000  0.4812400000000  0.4363510000000 1.0
C      1  0.5445430000000  0.4732650000000  0.4436780000000 1.0
C      1  0.5723600000000  0.4711790000000  0.5137450000000 1.0
C      1  0.4919540000000  0.4848780000000  0.5752050000000 1.0
C      1  0.5390260000000  0.5708610000000  0.4767500000000 1.0
C      1  0.5459100000000  0.5706070000000  0.5178690000000 1.0
C      1  0.4880370000000  0.5830590000000  0.5617440000000 1.0
C      1  0.4426890000000  0.5861710000000  0.5052090000000 1.0
C      1  0.4780740000000  0.5773050000000  0.4574800000000 1.0
C      1  0.4325190000000  0.5665040000000  0.5212750000000 1.0
C      1  0.4582560000000  0.5617660000000  0.4453640000000 1.0
C      1  0.5468440000000  0.5578200000000  0.4524460000000 1.0
C      1  0.5652100000000  0.5561230000000  0.5063370000000 1.0
C      1  0.5052980000000  0.5649070000000  0.5739970000000 1.0
C      1  0.5273850000000  0.5283270000000  0.4708610000000 1.0
C      1  0.5382960000000  0.5174440000000  0.5269250000000 1.0
C      1  0.4807540000000  0.5203550000000  0.5501510000000 1.0
C      1  0.4452230000000  0.5206100000000  0.4957360000000 1.0
C      1  0.4766080000000  0.5224500000000  0.4457890000000 1.0
C      1  0.4843910000000  0.4109210000000  0.4854130000000 1.0
C      1  0.5125800000000  0.4121480000000  0.4740510000000 1.0
C      1  0.5321470000000  0.4102130000000  0.4960830000000 1.0
C      1  0.5163220000000  0.4091250000000  0.5210820000000 1.0
C      1  0.4873160000000  0.4063620000000  0.5149980000000 1.0
C      1  0.5502070000000  0.5238210000000  0.4474460000000 1.0
C      1  0.5677800000000  0.5240750000000  0.5139440000000 1.0
C      1  0.4988850000000  0.5335440000000  0.5762150000000 1.0
C      1  0.4262200000000  0.5353640000000  0.5200590000000 1.0
C      1  0.4501020000000  0.5327460000000  0.4288340000000 1.0
C      1  0.5185250000000  0.4318140000000  0.4537890000000 1.0
C      1  0.5567170000000  0.4262350000000  0.4949020000000 1.0
C      1  0.5197330000000  0.4324960000000  0.5377400000000 1.0
C      1  0.4680310000000  0.4208370000000  0.5322800000000 1.0
C      1  0.4594890000000  0.4291720000000  0.4764760000000 1.0
C      1  0.4347680000000  0.4433830000000  0.4893720000000 1.0
C      1  0.4979290000000  0.4513170000000  0.4530530000000 1.0
C      1  0.5653590000000  0.4369570000000  0.4700170000000 1.0
C      1  0.5454890000000  0.4419860000000  0.5419460000000 1.0
C      1  0.4733530000000  0.4449010000000  0.5542730000000 1.0
C      1  0.4671740000000  0.4686770000000  0.5675530000000 1.0
C      1  0.4233990000000  0.4689160000000  0.4887590000000 1.0
C      1  0.4899010000000  0.4695290000000  0.4336390000000 1.0
C      1  0.5752610000000  0.4663480000000  0.4574300000000 1.0
C      1  0.5606670000000  0.4700270000000  0.5460450000000 1.0
C      1  0.4495590000000  0.4943920000000  0.5275850000000 1.0
C      1  0.4572280000000  0.4920920000000  0.4630490000000 1.0
C      1  0.5195340000000  0.4895160000000  0.4515090000000 1.0
C      1  0.5513670000000  0.4910220000000  0.4985560000000 1.0
C      1  0.5095430000000  0.4927770000000  0.5533750000000 1.0
C      1  0.5155210000000  0.5748790000000  0.4923340000000 1.0
C      1  0.5134560000000  0.5676820000000  0.5244340000000 1.0
C      1  0.4817540000000  0.5742650000000  0.5317030000000 1.0
C      1  0.4711830000000  0.5867570000000  0.5049240000000 1.0
C      1  0.4892900000000  0.5824960000000  0.4831250000000 1.0
C      1  0.4810510000000  0.4497690000000  0.5079910000000 1.0
C      1  0.4956070000000  0.5347040000000  0.5026470000000 1.0
END
