TITL C-2782234-8014-1406 0.54266062945867 125000 -541.172733211514 0 0 94 (C1) n - 1
REM
REM in /home/nfs/bkarasulu/CARBON/AIRSS/Generating-Clusters/REBO/Higher-Symm/SD-CG/HFTN-CG
REM
REM
REM
REM
REM
REM ./C.cell (12c818d87b63d06a65506943cc24bca4)
REM
REM compiler GCC version 9.2.1 20190827 (Red Hat 9.2.1-1)
REM options -cpp -mtune=generic -march=x86-64 -g -O0 -fpre-include=/usr/include/finclude/math-vector-fortran.h
REM seed -989422752 -551317713 1990718809 -1668577986 1540053086 -1247985933 436476916 945812109 -1280550957 416735903 -631017313 1915449949 -2006149904 401838517 -165536817 1835341103 -1706087295 864653489 709274245 691776290 526440356 -275016188 -773036027 1921001627 -1827526835 -1637248542 -36195400 -1278559794 546068983 -652237776 -2094018818 105926046 113764295
REM
CELL 1.54180   50.00000   50.00000   50.00000   90.00000   90.00000   90.00000
LATT -1
SFAC C  
C      1  0.4834180000000  0.5455710000000  0.4304210000000 1.0
C      1  0.4938280000000  0.4255530000000  0.5541360000000 1.0
C      1  0.4671420000000  0.5144390000000  0.4782370000000 1.0
C      1  0.4796360000000  0.5326470000000  0.5660630000000 1.0
C      1  0.4781940000000  0.4326160000000  0.4973320000000 1.0
C      1  0.4416900000000  0.5589360000000  0.5378380000000 1.0
C      1  0.4497410000000  0.4357620000000  0.5157810000000 1.0
C      1  0.4643810000000  0.5511380000000  0.4562900000000 1.0
C      1  0.4972670000000  0.4681560000000  0.4611740000000 1.0
C      1  0.4695290000000  0.4620420000000  0.4423740000000 1.0
C      1  0.4523800000000  0.4878630000000  0.6484850000000 1.0
C      1  0.4898490000000  0.5910160000000  0.4724280000000 1.0
C      1  0.5447340000000  0.5100190000000  0.5773930000000 1.0
C      1  0.5105780000000  0.5941740000000  0.4535910000000 1.0
C      1  0.5461400000000  0.5770490000000  0.5017980000000 1.0
C      1  0.4500200000000  0.4402580000000  0.4821800000000 1.0
C      1  0.5079590000000  0.4856660000000  0.5593490000000 1.0
C      1  0.4892940000000  0.4068370000000  0.5337930000000 1.0
C      1  0.5140180000000  0.4440550000000  0.4436340000000 1.0
C      1  0.4861610000000  0.4757340000000  0.5349110000000 1.0
C      1  0.5299550000000  0.4804600000000  0.5354970000000 1.0
C      1  0.5925720000000  0.4948190000000  0.5205840000000 1.0
C      1  0.4356040000000  0.4918000000000  0.5062090000000 1.0
C      1  0.5267320000000  0.5539900000000  0.5030610000000 1.0
C      1  0.4513640000000  0.5222800000000  0.5502640000000 1.0
C      1  0.5664260000000  0.4260660000000  0.4792340000000 1.0
C      1  0.4402020000000  0.5449550000000  0.4675650000000 1.0
C      1  0.5724200000000  0.6058710000000  0.4723450000000 1.0
C      1  0.4639950000000  0.4972710000000  0.5243180000000 1.0
C      1  0.4531830000000  0.5313490000000  0.4235740000000 1.0
C      1  0.4283100000000  0.5398320000000  0.5211400000000 1.0
C      1  0.4255190000000  0.4334660000000  0.5570890000000 1.0
C      1  0.4470200000000  0.4744980000000  0.4341480000000 1.0
C      1  0.5103250000000  0.5489870000000  0.5997980000000 1.0
C      1  0.5205690000000  0.4019800000000  0.4749770000000 1.0
C      1  0.5419980000000  0.4848400000000  0.4934210000000 1.0
C      1  0.4891290000000  0.5152180000000  0.5401270000000 1.0
C      1  0.5390550000000  0.4208500000000  0.4856680000000 1.0
C      1  0.5345430000000  0.5509330000000  0.4486750000000 1.0
C      1  0.4698750000000  0.5371970000000  0.4931970000000 1.0
C      1  0.5430830000000  0.4348820000000  0.4288820000000 1.0
C      1  0.4762110000000  0.6115550000000  0.4847320000000 1.0
C      1  0.5630650000000  0.5437450000000  0.5160140000000 1.0
C      1  0.5177910000000  0.5056960000000  0.5779130000000 1.0
C      1  0.5175780000000  0.5118200000000  0.5307180000000 1.0
C      1  0.4664980000000  0.4998260000000  0.6299280000000 1.0
C      1  0.4839830000000  0.5626330000000  0.4778670000000 1.0
C      1  0.5349830000000  0.4905370000000  0.4257250000000 1.0
C      1  0.4927180000000  0.4788960000000  0.5034570000000 1.0
C      1  0.5049580000000  0.4514360000000  0.5463380000000 1.0
C      1  0.4877480000000  0.3955190000000  0.5093620000000 1.0
C      1  0.5511730000000  0.4706210000000  0.4706400000000 1.0
C      1  0.4624000000000  0.5598480000000  0.5561350000000 1.0
C      1  0.4930390000000  0.3990500000000  0.4818210000000 1.0
C      1  0.5400920000000  0.4655750000000  0.4433280000000 1.0
C      1  0.5083690000000  0.5436380000000  0.4849940000000 1.0
C      1  0.4269970000000  0.5092690000000  0.5334720000000 1.0
C      1  0.5028060000000  0.4987560000000  0.4584870000000 1.0
C      1  0.5867110000000  0.4664540000000  0.5023520000000 1.0
C      1  0.4208540000000  0.5037350000000  0.4549620000000 1.0
C      1  0.5732730000000  0.5081010000000  0.4615630000000 1.0
C      1  0.4836570000000  0.4349260000000  0.4440710000000 1.0
C      1  0.4493180000000  0.4697080000000  0.4760000000000 1.0
C      1  0.5165240000000  0.4980040000000  0.5022620000000 1.0
C      1  0.4877250000000  0.4206190000000  0.5802160000000 1.0
C      1  0.4249330000000  0.4867960000000  0.4767260000000 1.0
C      1  0.4717230000000  0.5621060000000  0.3761140000000 1.0
C      1  0.5864490000000  0.5078820000000  0.4905360000000 1.0
C      1  0.5266750000000  0.4416510000000  0.5011220000000 1.0
C      1  0.5070110000000  0.5159820000000  0.4804040000000 1.0
C      1  0.5739150000000  0.4537580000000  0.4790780000000 1.0
C      1  0.5487070000000  0.5672010000000  0.5333250000000 1.0
C      1  0.4309010000000  0.4753970000000  0.5347680000000 1.0
C      1  0.4348780000000  0.4480970000000  0.5360860000000 1.0
C      1  0.4721720000000  0.4189030000000  0.4671380000000 1.0
C      1  0.4973370000000  0.5259570000000  0.5893930000000 1.0
C      1  0.4334760000000  0.5181540000000  0.4358940000000 1.0
C      1  0.4292360000000  0.5422410000000  0.4926710000000 1.0
C      1  0.5622460000000  0.4846750000000  0.5122750000000 1.0
C      1  0.4703340000000  0.4869490000000  0.4839500000000 1.0
C      1  0.5552180000000  0.5349110000000  0.4612640000000 1.0
C      1  0.4673030000000  0.5312310000000  0.5212660000000 1.0
C      1  0.5696350000000  0.5342010000000  0.4910580000000 1.0
C      1  0.4807160000000  0.5118730000000  0.6112400000000 1.0
C      1  0.5152950000000  0.5087060000000  0.4350380000000 1.0
C      1  0.5328730000000  0.5366250000000  0.5302740000000 1.0
C      1  0.5345360000000  0.5790820000000  0.4555170000000 1.0
C      1  0.5897700000000  0.5057750000000  0.5491240000000 1.0
C      1  0.5004180000000  0.4518080000000  0.4909240000000 1.0
C      1  0.5523790000000  0.5881230000000  0.4768420000000 1.0
C      1  0.5697320000000  0.5097770000000  0.5668850000000 1.0
C      1  0.5312350000000  0.4518880000000  0.5269240000000 1.0
C      1  0.5128390000000  0.5375020000000  0.4347250000000 1.0
C      1  0.4717540000000  0.5517100000000  0.4001040000000 1.0
END
