TITL C-2782227-3064-645 -0.00174821770166263 125000 -990.284003530127 0 0 166 (C1) n - 1
REM
REM in /home/nfs/bkarasulu/CARBON/AIRSS/Generating-Clusters/REBO/Higher-Symm/SD-CG/HFTN-CG
REM
REM
REM
REM
REM
REM ./C.cell (12c818d87b63d06a65506943cc24bca4)
REM
REM compiler GCC version 9.2.1 20190827 (Red Hat 9.2.1-1)
REM options -cpp -mtune=generic -march=x86-64 -g -O0 -fpre-include=/usr/include/finclude/math-vector-fortran.h
REM seed 1344619472 -1762193742 1771109535 -499683229 2133729947 -1139509242 2107188455 1301649212 -2011150477 1512365601 -1642294122 503913531 -1432563027 13287507 -251033491 723351857 -1288990491 -454445608 1055267459 585799917 1629479866 -1856931194 -3357784 -1484646527 -339375264 1891254958 -2060199669 -424487415 -1153485073 -439551022 412588197 -1827593561 1098861613
REM
CELL 1.54180   50.00000   50.00000   50.00000   90.00000   90.00000   90.00000
LATT -1
SFAC C  
C      1  0.4837980000000  0.5955940000000  0.5439950000000 1.0
C      1  0.4912100000000  0.4098410000000  0.5605720000000 1.0
C      1  0.4904720000000  0.4949900000000  0.3893230000000 1.0
C      1  0.4878780000000  0.5944510000000  0.4490890000000 1.0
C      1  0.4819990000000  0.4157000000000  0.4410810000000 1.0
C      1  0.4920170000000  0.4938360000000  0.6115250000000 1.0
C      1  0.4807480000000  0.4369240000000  0.5785310000000 1.0
C      1  0.4809350000000  0.4681260000000  0.4074420000000 1.0
C      1  0.4821100000000  0.6032490000000  0.5159010000000 1.0
C      1  0.4804960000000  0.4363650000000  0.4204500000000 1.0
C      1  0.4796450000000  0.4661160000000  0.5964040000000 1.0
C      1  0.4802190000000  0.5979290000000  0.4820360000000 1.0
C      1  0.4124400000000  0.5048730000000  0.4407120000000 1.0
C      1  0.4066550000000  0.5487430000000  0.5286380000000 1.0
C      1  0.4104490000000  0.4493740000000  0.5241180000000 1.0
C      1  0.4117720000000  0.4993370000000  0.5546070000000 1.0
C      1  0.4060460000000  0.5519210000000  0.4695790000000 1.0
C      1  0.4126530000000  0.4527030000000  0.4677880000000 1.0
C      1  0.4302400000000  0.5260220000000  0.4345310000000 1.0
C      1  0.4242290000000  0.5454460000000  0.5502060000000 1.0
C      1  0.4295440000000  0.4327410000000  0.5112510000000 1.0
C      1  0.4296790000000  0.5199050000000  0.5635040000000 1.0
C      1  0.4250620000000  0.5506000000000  0.4489450000000 1.0
C      1  0.4282370000000  0.4344570000000  0.4821090000000 1.0
C      1  0.4750740000000  0.4946570000000  0.4286120000000 1.0
C      1  0.4733460000000  0.5496780000000  0.5277770000000 1.0
C      1  0.4741580000000  0.4425340000000  0.5452450000000 1.0
C      1  0.4771650000000  0.4921010000000  0.5744720000000 1.0
C      1  0.4711520000000  0.5664140000000  0.4721430000000 1.0
C      1  0.4783940000000  0.4527020000000  0.4733690000000 1.0
C      1  0.5806980000000  0.5511650000000  0.4411370000000 1.0
C      1  0.5770110000000  0.5248750000000  0.5726020000000 1.0
C      1  0.5771190000000  0.4220620000000  0.4829990000000 1.0
C      1  0.5781260000000  0.5525900000000  0.5553700000000 1.0
C      1  0.5809600000000  0.5232070000000  0.4243640000000 1.0
C      1  0.5785440000000  0.4225430000000  0.5156050000000 1.0
C      1  0.5235030000000  0.4385510000000  0.4422370000000 1.0
C      1  0.5270230000000  0.5748750000000  0.4713150000000 1.0
C      1  0.5295510000000  0.4793670000000  0.5884670000000 1.0
C      1  0.5291320000000  0.4325580000000  0.5594230000000 1.0
C      1  0.5226760000000  0.5778700000000  0.5226560000000 1.0
C      1  0.5294120000000  0.4855670000000  0.4192490000000 1.0
C      1  0.6061890000000  0.4409280000000  0.5238150000000 1.0
C      1  0.6058200000000  0.5207070000000  0.4464010000000 1.0
C      1  0.6067780000000  0.5492800000000  0.5368310000000 1.0
C      1  0.6032080000000  0.4421500000000  0.4914550000000 1.0
C      1  0.6020690000000  0.5209250000000  0.5519220000000 1.0
C      1  0.6083350000000  0.5494500000000  0.4613450000000 1.0
C      1  0.4756030000000  0.4700320000000  0.5251910000000 1.0
C      1  0.4754620000000  0.5093140000000  0.4591840000000 1.0
C      1  0.4766070000000  0.5184830000000  0.5193850000000 1.0
C      1  0.4779180000000  0.4764920000000  0.4949380000000 1.0
C      1  0.4791400000000  0.4963940000000  0.5413660000000 1.0
C      1  0.4692250000000  0.5336100000000  0.4804030000000 1.0
C      1  0.4180390000000  0.4800440000000  0.4249320000000 1.0
C      1  0.4133090000000  0.5739790000000  0.5140180000000 1.0
C      1  0.4118920000000  0.4478110000000  0.5540960000000 1.0
C      1  0.4155210000000  0.4731760000000  0.5692270000000 1.0
C      1  0.4083860000000  0.5777220000000  0.4850110000000 1.0
C      1  0.4210730000000  0.4540580000000  0.4389620000000 1.0
C      1  0.4955910000000  0.4129700000000  0.4790860000000 1.0
C      1  0.4952570000000  0.5637370000000  0.4341820000000 1.0
C      1  0.4999960000000  0.5213660000000  0.5912940000000 1.0
C      1  0.4978990000000  0.4108000000000  0.5262340000000 1.0
C      1  0.4993100000000  0.5607030000000  0.5663410000000 1.0
C      1  0.4978070000000  0.5234580000000  0.4083920000000 1.0
C      1  0.4699490000000  0.3925450000000  0.5195190000000 1.0
C      1  0.4705030000000  0.5390390000000  0.3953600000000 1.0
C      1  0.4706660000000  0.5611430000000  0.5807910000000 1.0
C      1  0.4682990000000  0.3977970000000  0.4887070000000 1.0
C      1  0.4724700000000  0.5382030000000  0.6023430000000 1.0
C      1  0.4683860000000  0.5637650000000  0.4139850000000 1.0
C      1  0.5954880000000  0.5274490000000  0.4841970000000 1.0
C      1  0.5931970000000  0.4977530000000  0.5298000000000 1.0
C      1  0.5939910000000  0.4728090000000  0.4830600000000 1.0
C      1  0.5946940000000  0.5274470000000  0.5134400000000 1.0
C      1  0.5955180000000  0.4977110000000  0.4687270000000 1.0
C      1  0.5937550000000  0.4718780000000  0.5162840000000 1.0
C      1  0.5630550000000  0.5764040000000  0.5668670000000 1.0
C      1  0.5675690000000  0.3979240000000  0.5289550000000 1.0
C      1  0.5680020000000  0.5234600000000  0.3973150000000 1.0
C      1  0.5660110000000  0.5739280000000  0.4274410000000 1.0
C      1  0.5608260000000  0.4002780000000  0.4698170000000 1.0
C      1  0.5677450000000  0.5253280000000  0.6008770000000 1.0
C      1  0.5729060000000  0.4987710000000  0.4443080000000 1.0
C      1  0.5690190000000  0.5450350000000  0.5253920000000 1.0
C      1  0.5681530000000  0.4521380000000  0.5254150000000 1.0
C      1  0.5684660000000  0.4997930000000  0.5530330000000 1.0
C      1  0.5702150000000  0.5442570000000  0.4710710000000 1.0
C      1  0.5700460000000  0.4513280000000  0.4718480000000 1.0
C      1  0.4609860000000  0.5256920000000  0.4237640000000 1.0
C      1  0.4560490000000  0.5483440000000  0.5544340000000 1.0
C      1  0.4608300000000  0.4242130000000  0.5196650000000 1.0
C      1  0.4612060000000  0.5223080000000  0.5761340000000 1.0
C      1  0.4573250000000  0.5538910000000  0.4435690000000 1.0
C      1  0.4600930000000  0.4300200000000  0.4858360000000 1.0
C      1  0.5439800000000  0.4716330000000  0.5147680000000 1.0
C      1  0.5484530000000  0.4981000000000  0.4665740000000 1.0
C      1  0.5455740000000  0.5259540000000  0.5126660000000 1.0
C      1  0.5477480000000  0.4725090000000  0.4824870000000 1.0
C      1  0.5443250000000  0.4989130000000  0.5302980000000 1.0
C      1  0.5445200000000  0.5260810000000  0.4814240000000 1.0
C      1  0.5512340000000  0.4531570000000  0.5519790000000 1.0
C      1  0.5536280000000  0.4768350000000  0.4331930000000 1.0
C      1  0.5495320000000  0.5657300000000  0.5118680000000 1.0
C      1  0.5511200000000  0.4530830000000  0.4467170000000 1.0
C      1  0.5514260000000  0.4763400000000  0.5658180000000 1.0
C      1  0.5512130000000  0.5653080000000  0.4846440000000 1.0
C      1  0.5017160000000  0.5575990000000  0.4845020000000 1.0
C      1  0.5081000000000  0.4804910000000  0.5638060000000 1.0
C      1  0.5051940000000  0.4591930000000  0.4582150000000 1.0
C      1  0.5021190000000  0.5540180000000  0.5153720000000 1.0
C      1  0.5050830000000  0.4848430000000  0.4416110000000 1.0
C      1  0.5067260000000  0.4542060000000  0.5476330000000 1.0
C      1  0.3991580000000  0.5268360000000  0.4836110000000 1.0
C      1  0.4023010000000  0.4994590000000  0.5266930000000 1.0
C      1  0.4033850000000  0.4764290000000  0.4819360000000 1.0
C      1  0.3997110000000  0.5251160000000  0.5129590000000 1.0
C      1  0.4024190000000  0.5022600000000  0.4682460000000 1.0
C      1  0.4028820000000  0.4747560000000  0.5111390000000 1.0
C      1  0.5094570000000  0.4410880000000  0.4147300000000 1.0
C      1  0.5138130000000  0.6024250000000  0.4780650000000 1.0
C      1  0.5102350000000  0.4573280000000  0.5984880000000 1.0
C      1  0.5135050000000  0.4309660000000  0.5856360000000 1.0
C      1  0.5107690000000  0.6021640000000  0.5073810000000 1.0
C      1  0.5143320000000  0.4658460000000  0.4000480000000 1.0
C      1  0.4433250000000  0.4577300000000  0.5451360000000 1.0
C      1  0.4465850000000  0.4843810000000  0.4432270000000 1.0
C      1  0.4436860000000  0.5589800000000  0.5179890000000 1.0
C      1  0.4506320000000  0.4543040000000  0.4556320000000 1.0
C      1  0.4468480000000  0.4834620000000  0.5648270000000 1.0
C      1  0.4400360000000  0.5651310000000  0.4858620000000 1.0
C      1  0.5158740000000  0.4568390000000  0.5193960000000 1.0
C      1  0.5215250000000  0.5086760000000  0.4527450000000 1.0
C      1  0.5184400000000  0.5312630000000  0.5291390000000 1.0
C      1  0.5194880000000  0.4577600000000  0.4863970000000 1.0
C      1  0.5178810000000  0.5034870000000  0.5475150000000 1.0
C      1  0.5163260000000  0.5365090000000  0.4685720000000 1.0
C      1  0.4383700000000  0.5312600000000  0.4896990000000 1.0
C      1  0.4464770000000  0.4962090000000  0.5332490000000 1.0
C      1  0.4464960000000  0.4750110000000  0.4820270000000 1.0
C      1  0.4428210000000  0.5250210000000  0.5207050000000 1.0
C      1  0.4430410000000  0.5054260000000  0.4698670000000 1.0
C      1  0.4431120000000  0.4702560000000  0.5133070000000 1.0
C      1  0.4653010000000  0.5884030000000  0.5629490000000 1.0
C      1  0.4733020000000  0.3884560000000  0.5491740000000 1.0
C      1  0.4743560000000  0.5165100000000  0.3763110000000 1.0
C      1  0.4693070000000  0.5926790000000  0.4252420000000 1.0
C      1  0.4633190000000  0.4031040000000  0.4564370000000 1.0
C      1  0.4759800000000  0.5166310000000  0.6229010000000 1.0
C      1  0.5191700000000  0.5845980000000  0.4426790000000 1.0
C      1  0.5237070000000  0.5035070000000  0.6062030000000 1.0
C      1  0.5135000000000  0.4110840000000  0.4531700000000 1.0
C      1  0.5146230000000  0.5841210000000  0.5523600000000 1.0
C      1  0.5217100000000  0.5048520000000  0.3959000000000 1.0
C      1  0.5223120000000  0.4050760000000  0.5473910000000 1.0
C      1  0.5467300000000  0.5183780000000  0.3857750000000 1.0
C      1  0.5415110000000  0.5885540000000  0.5667570000000 1.0
C      1  0.5466320000000  0.3898830000000  0.5392540000000 1.0
C      1  0.5483260000000  0.5183650000000  0.6144030000000 1.0
C      1  0.5443630000000  0.5857540000000  0.4259780000000 1.0
C      1  0.5390810000000  0.3951320000000  0.4592270000000 1.0
C      1  0.5094250000000  0.5316890000000  0.5622380000000 1.0
C      1  0.5061150000000  0.5343930000000  0.4361720000000 1.0
C      1  0.5067110000000  0.4301850000000  0.5022540000000 1.0
C      1  0.4856790000000  0.5063110000000  0.4914040000000 1.0
END
