TITL C-2782228-2999-364 -0.00234518890434778 125000 -515.62060138749 0 0 92 (C1) n - 1
REM
REM in /home/nfs/bkarasulu/CARBON/AIRSS/Generating-Clusters/REBO/Higher-Symm/SD-CG/HFTN-CG
REM
REM
REM
REM
REM
REM ./C.cell (12c818d87b63d06a65506943cc24bca4)
REM
REM compiler GCC version 9.2.1 20190827 (Red Hat 9.2.1-1)
REM options -cpp -mtune=generic -march=x86-64 -g -O0 -fpre-include=/usr/include/finclude/math-vector-fortran.h
REM seed 2029236084 810171354 135976675 758452783 1666877839 883456149 -1655980691 1046945981 -577588187 -155136352 -1070925994 -602909134 -1030667514 1262921796 -899114489 1841621641 -1566714263 -695068962 -2077548721 -1459160271 -1603579774 1311918279 1461548794 -1488951761 972712759 -109588022 -2091485482 -1383035433 -1628730213 -431875849 -1916626156 623049856 850905002
REM
CELL 1.54180   50.00000   50.00000   50.00000   90.00000   90.00000   90.00000
LATT -1
SFAC C  
C      1  0.4477020000000  0.5367900000000  0.5589520000000 1.0
C      1  0.5498880000000  0.5351930000000  0.4451020000000 1.0
C      1  0.4537650000000  0.5339130000000  0.4495740000000 1.0
C      1  0.5485210000000  0.5375580000000  0.5546020000000 1.0
C      1  0.4471240000000  0.4896080000000  0.4504550000000 1.0
C      1  0.5509080000000  0.4928320000000  0.5474730000000 1.0
C      1  0.4504450000000  0.4932840000000  0.5457420000000 1.0
C      1  0.5567730000000  0.4944190000000  0.4518810000000 1.0
C      1  0.4699790000000  0.4598250000000  0.5260550000000 1.0
C      1  0.5348800000000  0.4641560000000  0.4656180000000 1.0
C      1  0.4710960000000  0.4579400000000  0.4713110000000 1.0
C      1  0.5305580000000  0.4615000000000  0.5269780000000 1.0
C      1  0.5203480000000  0.5504000000000  0.4673580000000 1.0
C      1  0.4699180000000  0.5383310000000  0.5343480000000 1.0
C      1  0.5261970000000  0.5480150000000  0.5310580000000 1.0
C      1  0.4895990000000  0.5452750000000  0.4629550000000 1.0
C      1  0.4832720000000  0.4572570000000  0.5640260000000 1.0
C      1  0.5127980000000  0.4545050000000  0.4342220000000 1.0
C      1  0.4825350000000  0.4538130000000  0.4332680000000 1.0
C      1  0.5138450000000  0.4580750000000  0.5630660000000 1.0
C      1  0.5660460000000  0.5410950000000  0.5253640000000 1.0
C      1  0.4354050000000  0.5419770000000  0.4755050000000 1.0
C      1  0.5672070000000  0.5412940000000  0.4725040000000 1.0
C      1  0.4303110000000  0.5393880000000  0.5295670000000 1.0
C      1  0.4659470000000  0.4794510000000  0.4295240000000 1.0
C      1  0.5321200000000  0.4820410000000  0.5686210000000 1.0
C      1  0.4678490000000  0.4830530000000  0.5675130000000 1.0
C      1  0.5358660000000  0.4793500000000  0.4307020000000 1.0
C      1  0.4860280000000  0.4810530000000  0.5321760000000 1.0
C      1  0.5145780000000  0.4862410000000  0.4614880000000 1.0
C      1  0.4864070000000  0.4793780000000  0.4636080000000 1.0
C      1  0.5146740000000  0.4844590000000  0.5330320000000 1.0
C      1  0.4617660000000  0.4221520000000  0.5141040000000 1.0
C      1  0.5309630000000  0.4211650000000  0.4848730000000 1.0
C      1  0.4625680000000  0.4211320000000  0.4856430000000 1.0
C      1  0.5325190000000  0.4223320000000  0.5130650000000 1.0
C      1  0.5268890000000  0.5157320000000  0.5695490000000 1.0
C      1  0.4739600000000  0.5125620000000  0.4320720000000 1.0
C      1  0.5280360000000  0.5125680000000  0.4315500000000 1.0
C      1  0.4739130000000  0.5167590000000  0.5677840000000 1.0
C      1  0.5182160000000  0.5178430000000  0.5379460000000 1.0
C      1  0.4848870000000  0.5128420000000  0.4627520000000 1.0
C      1  0.5184530000000  0.5184230000000  0.4622830000000 1.0
C      1  0.4866900000000  0.5125770000000  0.5371010000000 1.0
C      1  0.4502650000000  0.5054820000000  0.5175350000000 1.0
C      1  0.5525740000000  0.5048450000000  0.4788200000000 1.0
C      1  0.4487340000000  0.5045210000000  0.4776940000000 1.0
C      1  0.5506530000000  0.5049350000000  0.5185370000000 1.0
C      1  0.4564000000000  0.5891990000000  0.5295930000000 1.0
C      1  0.5539340000000  0.5854820000000  0.4708630000000 1.0
C      1  0.4606020000000  0.5827170000000  0.4775310000000 1.0
C      1  0.5547650000000  0.5881720000000  0.5248810000000 1.0
C      1  0.4659810000000  0.5621450000000  0.4596910000000 1.0
C      1  0.5470530000000  0.5702410000000  0.5443370000000 1.0
C      1  0.4575060000000  0.5673540000000  0.5473180000000 1.0
C      1  0.5432420000000  0.5660390000000  0.4525800000000 1.0
C      1  0.5254580000000  0.4356190000000  0.4596930000000 1.0
C      1  0.4701370000000  0.4344760000000  0.5424120000000 1.0
C      1  0.5258700000000  0.4352490000000  0.5408990000000 1.0
C      1  0.4702820000000  0.4318050000000  0.4562350000000 1.0
C      1  0.5240800000000  0.5588510000000  0.4996360000000 1.0
C      1  0.4588860000000  0.5562000000000  0.5073750000000 1.0
C      1  0.4263740000000  0.5335270000000  0.5024080000000 1.0
C      1  0.5736460000000  0.5328750000000  0.4998830000000 1.0
C      1  0.5445310000000  0.4581980000000  0.4974130000000 1.0
C      1  0.4559410000000  0.4583650000000  0.4984040000000 1.0
C      1  0.5749680000000  0.4537110000000  0.4993270000000 1.0
C      1  0.4256260000000  0.4544650000000  0.4983860000000 1.0
C      1  0.5005410000000  0.5284520000000  0.3912890000000 1.0
C      1  0.4994780000000  0.5345480000000  0.6084010000000 1.0
C      1  0.5000620000000  0.5235200000000  0.5844620000000 1.0
C      1  0.5007790000000  0.5188160000000  0.4158670000000 1.0
C      1  0.5907890000000  0.4733690000000  0.5004920000000 1.0
C      1  0.4098900000000  0.4741870000000  0.4989340000000 1.0
C      1  0.5456960000000  0.5822860000000  0.4982650000000 1.0
C      1  0.4404870000000  0.5828750000000  0.5023290000000 1.0
C      1  0.4663070000000  0.5273320000000  0.4962380000000 1.0
C      1  0.5343190000000  0.5268410000000  0.4978250000000 1.0
C      1  0.5316140000000  0.4876400000000  0.4973480000000 1.0
C      1  0.4678590000000  0.4877340000000  0.4976020000000 1.0
C      1  0.5791320000000  0.5011360000000  0.5000030000000 1.0
C      1  0.4218860000000  0.5017920000000  0.4986340000000 1.0
C      1  0.4970290000000  0.3817270000000  0.5024470000000 1.0
C      1  0.4793740000000  0.5904060000000  0.5049050000000 1.0
C      1  0.4969710000000  0.6118480000000  0.5047540000000 1.0
C      1  0.4909190000000  0.5594670000000  0.5011610000000 1.0
C      1  0.4994990000000  0.4618690000000  0.4991700000000 1.0
C      1  0.5002690000000  0.5269340000000  0.4968500000000 1.0
C      1  0.4970840000000  0.3555400000000  0.5034710000000 1.0
C      1  0.4999300000000  0.4951860000000  0.4975530000000 1.0
C      1  0.4969270000000  0.4353520000000  0.5003470000000 1.0
C      1  0.4969730000000  0.4083390000000  0.5014060000000 1.0
END
