TITL C-2782240-8521-783 0.00313330346788115 125000 -616.443458441283 0 0 106 (C1) n - 1
REM
REM in /home/nfs/bkarasulu/CARBON/AIRSS/Generating-Clusters/REBO/Higher-Symm/SD-CG/HFTN-CG
REM
REM
REM
REM
REM
REM ./C.cell (12c818d87b63d06a65506943cc24bca4)
REM
REM compiler GCC version 9.2.1 20190827 (Red Hat 9.2.1-1)
REM options -cpp -mtune=generic -march=x86-64 -g -O0 -fpre-include=/usr/include/finclude/math-vector-fortran.h
REM seed -1085181382 2004734256 1071234269 -2095632720 746483653 1492365053 136194407 -318875391 -741810901 -1688868184 -1198076061 -1611605596 -326915633 -1656017596 729499887 1379743944 -815699238 -650424421 1253060430 -43550958 1051196056 757353450 -1938500884 -1556034125 1767023122 -1750948677 794794673 1285991880 -2057731567 -1727150962 -1691768928 1319964455 914561255
REM
CELL 1.54180   50.00000   50.00000   50.00000   90.00000   90.00000   90.00000
LATT -1
SFAC C  
C      1  0.4114010000000  0.4842990000000  0.5004540000000 1.0
C      1  0.5588870000000  0.4269090000000  0.5002360000000 1.0
C      1  0.5286280000000  0.5849770000000  0.4987970000000 1.0
C      1  0.6045230000000  0.4816000000000  0.4819550000000 1.0
C      1  0.4592610000000  0.5988670000000  0.4792070000000 1.0
C      1  0.4456390000000  0.4172980000000  0.4733380000000 1.0
C      1  0.5312380000000  0.4466050000000  0.4073690000000 1.0
C      1  0.5277470000000  0.5485660000000  0.4054200000000 1.0
C      1  0.4369290000000  0.5029350000000  0.4054750000000 1.0
C      1  0.5742600000000  0.5374960000000  0.5232370000000 1.0
C      1  0.4322190000000  0.5462050000000  0.5255650000000 1.0
C      1  0.5002200000000  0.4180220000000  0.5258750000000 1.0
C      1  0.4741150000000  0.4187330000000  0.4858670000000 1.0
C      1  0.5908640000000  0.5050700000000  0.4898390000000 1.0
C      1  0.4473180000000  0.5755830000000  0.4897100000000 1.0
C      1  0.5534870000000  0.5555840000000  0.4646700000000 1.0
C      1  0.4229590000000  0.5221240000000  0.4691710000000 1.0
C      1  0.5053170000000  0.4242870000000  0.4768160000000 1.0
C      1  0.5445150000000  0.4844110000000  0.5701970000000 1.0
C      1  0.4893600000000  0.5448770000000  0.5750560000000 1.0
C      1  0.4655280000000  0.4709980000000  0.5689680000000 1.0
C      1  0.5415640000000  0.5251600000000  0.4074740000000 1.0
C      1  0.4486830000000  0.5273630000000  0.4079150000000 1.0
C      1  0.5043220000000  0.4482860000000  0.4101670000000 1.0
C      1  0.5291170000000  0.4217800000000  0.4960070000000 1.0
C      1  0.5476160000000  0.5627420000000  0.4905480000000 1.0
C      1  0.4216670000000  0.5124010000000  0.4949140000000 1.0
C      1  0.5120790000000  0.4483670000000  0.5635370000000 1.0
C      1  0.5404860000000  0.5346490000000  0.5602610000000 1.0
C      1  0.4452550000000  0.5172790000000  0.5643800000000 1.0
C      1  0.4898680000000  0.4542130000000  0.4360540000000 1.0
C      1  0.5460880000000  0.5125320000000  0.4350670000000 1.0
C      1  0.4604270000000  0.5357230000000  0.4346120000000 1.0
C      1  0.5087770000000  0.5906400000000  0.4741680000000 1.0
C      1  0.4188570000000  0.4637860000000  0.4743450000000 1.0
C      1  0.5746540000000  0.4415620000000  0.4751340000000 1.0
C      1  0.5256140000000  0.4680140000000  0.5391190000000 1.0
C      1  0.5174800000000  0.5353320000000  0.5349920000000 1.0
C      1  0.4584570000000  0.4974990000000  0.5399780000000 1.0
C      1  0.5456590000000  0.4525570000000  0.5622000000000 1.0
C      1  0.5164100000000  0.5578780000000  0.5607240000000 1.0
C      1  0.4366090000000  0.4844110000000  0.5626530000000 1.0
C      1  0.5298940000000  0.4668020000000  0.4728710000000 1.0
C      1  0.5101400000000  0.5382500000000  0.4706660000000 1.0
C      1  0.4609950000000  0.4942110000000  0.4738890000000 1.0
C      1  0.4889920000000  0.4714880000000  0.5108900000000 1.0
C      1  0.5338320000000  0.5056280000000  0.5094640000000 1.0
C      1  0.4811700000000  0.5271950000000  0.5083860000000 1.0
C      1  0.4167690000000  0.4671830000000  0.5487180000000 1.0
C      1  0.5701190000000  0.4411040000000  0.5498860000000 1.0
C      1  0.5139440000000  0.5854800000000  0.5493300000000 1.0
C      1  0.4588870000000  0.5704760000000  0.5428570000000 1.0
C      1  0.4601910000000  0.4303660000000  0.5394060000000 1.0
C      1  0.5825950000000  0.4962440000000  0.5408460000000 1.0
C      1  0.5328830000000  0.5936260000000  0.5307070000000 1.0
C      1  0.4002200000000  0.4799530000000  0.5304510000000 1.0
C      1  0.5675810000000  0.4202240000000  0.5317330000000 1.0
C      1  0.5617960000000  0.5079210000000  0.5626980000000 1.0
C      1  0.4608130000000  0.5477080000000  0.5670940000000 1.0
C      1  0.4780670000000  0.4446490000000  0.5627200000000 1.0
C      1  0.4854120000000  0.5917720000000  0.5422510000000 1.0
C      1  0.4294450000000  0.4433460000000  0.5366020000000 1.0
C      1  0.5874540000000  0.4634540000000  0.5399250000000 1.0
C      1  0.4839130000000  0.4946070000000  0.5595510000000 1.0
C      1  0.5150470000000  0.4901450000000  0.5613250000000 1.0
C      1  0.5031610000000  0.5203350000000  0.5599980000000 1.0
C      1  0.5099920000000  0.4446190000000  0.5109240000000 1.0
C      1  0.5471220000000  0.5370890000000  0.5086660000000 1.0
C      1  0.4472670000000  0.5228080000000  0.5113570000000 1.0
C      1  0.4795270000000  0.5421420000000  0.4618950000000 1.0
C      1  0.4742160000000  0.4677440000000  0.4629700000000 1.0
C      1  0.5457700000000  0.4930180000000  0.4626330000000 1.0
C      1  0.5120730000000  0.5633380000000  0.4208960000000 1.0
C      1  0.4365290000000  0.4824110000000  0.4222170000000 1.0
C      1  0.5516640000000  0.4536450000000  0.4228090000000 1.0
C      1  0.5085980000000  0.4479420000000  0.4612250000000 1.0
C      1  0.5374820000000  0.5352040000000  0.4552000000000 1.0
C      1  0.4477440000000  0.5182750000000  0.4578050000000 1.0
C      1  0.5615060000000  0.4823950000000  0.4353970000000 1.0
C      1  0.4818770000000  0.5610470000000  0.4341790000000 1.0
C      1  0.4573120000000  0.4603240000000  0.4349680000000 1.0
C      1  0.4857490000000  0.6048220000000  0.4759890000000 1.0
C      1  0.4258570000000  0.4322200000000  0.4719150000000 1.0
C      1  0.5980420000000  0.4551130000000  0.4792350000000 1.0
C      1  0.5666560000000  0.4844140000000  0.5136340000000 1.0
C      1  0.4764240000000  0.5650460000000  0.5146220000000 1.0
C      1  0.4567610000000  0.4455170000000  0.5097660000000 1.0
C      1  0.5284840000000  0.4726190000000  0.5063740000000 1.0
C      1  0.5129920000000  0.5384990000000  0.5027610000000 1.0
C      1  0.4625130000000  0.4923290000000  0.5078280000000 1.0
C      1  0.4999420000000  0.4205290000000  0.5539510000000 1.0
C      1  0.5709230000000  0.5386090000000  0.5514840000000 1.0
C      1  0.4306870000000  0.5436040000000  0.5534250000000 1.0
C      1  0.5087720000000  0.5680400000000  0.4543090000000 1.0
C      1  0.4366850000000  0.4785800000000  0.4556420000000 1.0
C      1  0.5561660000000  0.4551730000000  0.4561610000000 1.0
C      1  0.5715570000000  0.4548930000000  0.5124560000000 1.0
C      1  0.4984610000000  0.5855180000000  0.5124570000000 1.0
C      1  0.4266070000000  0.4541930000000  0.5052950000000 1.0
C      1  0.4785380000000  0.4518290000000  0.4873120000000 1.0
C      1  0.5585590000000  0.5032560000000  0.4871560000000 1.0
C      1  0.4656160000000  0.5488810000000  0.4872900000000 1.0
C      1  0.5923180000000  0.5159350000000  0.5163780000000 1.0
C      1  0.4374510000000  0.5736550000000  0.5163260000000 1.0
C      1  0.4737100000000  0.4104050000000  0.5153240000000 1.0
C      1  0.5012700000000  0.5014200000000  0.5116720000000 1.0
END
