TITL C-2782238-9940-801 0.000215967720423268 125000 -170.896005542433 0 0 32 (C1) n - 1
REM
REM in /home/nfs/bkarasulu/CARBON/AIRSS/Generating-Clusters/REBO/Higher-Symm/SD-CG/HFTN-CG
REM
REM
REM
REM
REM
REM ./C.cell (12c818d87b63d06a65506943cc24bca4)
REM
REM compiler GCC version 9.2.1 20190827 (Red Hat 9.2.1-1)
REM options -cpp -mtune=generic -march=x86-64 -g -O0 -fpre-include=/usr/include/finclude/math-vector-fortran.h
REM seed 1509308808 457610021 -1835010426 952174287 1226311216 -565869227 2060547380 -1538642873 1155531907 1215955338 -115503540 2086829314 18249525 -593298824 -996297560 1107570865 -697882724 101684960 637451870 -2117559620 1707685911 574151691 -95138909 1369606743 2047076775 -92347086 1229395881 433314673 -338073534 -334283161 -923335313 1944572118 -1946585080
REM
CELL 1.54180   50.00000   50.00000   50.00000   90.00000   90.00000   90.00000
LATT -1
SFAC C  
C      1  0.4901850000000  0.4647590000000  0.5402300000000 1.0
C      1  0.5143420000000  0.4691730000000  0.4635690000000 1.0
C      1  0.5567010000000  0.4749410000000  0.5202740000000 1.0
C      1  0.5542630000000  0.5118990000000  0.4680810000000 1.0
C      1  0.5423890000000  0.5477490000000  0.5256680000000 1.0
C      1  0.5050480000000  0.5641940000000  0.4737840000000 1.0
C      1  0.4844230000000  0.5162300000000  0.5339650000000 1.0
C      1  0.4770110000000  0.5047420000000  0.4654840000000 1.0
C      1  0.4478780000000  0.4881920000000  0.5320600000000 1.0
C      1  0.4678700000000  0.4618290000000  0.4693990000000 1.0
C      1  0.5093800000000  0.4605960000000  0.5157180000000 1.0
C      1  0.5273020000000  0.4778600000000  0.4934190000000 1.0
C      1  0.5472040000000  0.5026460000000  0.5062790000000 1.0
C      1  0.5398270000000  0.5316020000000  0.4892040000000 1.0
C      1  0.5148980000000  0.5459030000000  0.5078950000000 1.0
C      1  0.4852010000000  0.5458270000000  0.4930790000000 1.0
C      1  0.4660940000000  0.5263200000000  0.5085760000000 1.0
C      1  0.4563890000000  0.4989120000000  0.4906610000000 1.0
C      1  0.4546340000000  0.4685590000000  0.5065310000000 1.0
C      1  0.4820380000000  0.4501830000000  0.4980610000000 1.0
C      1  0.5093370000000  0.4445560000000  0.4792640000000 1.0
C      1  0.5400440000000  0.4564670000000  0.5246430000000 1.0
C      1  0.5488640000000  0.4872380000000  0.4694760000000 1.0
C      1  0.5570250000000  0.5271280000000  0.5249800000000 1.0
C      1  0.5295170000000  0.5577270000000  0.4726790000000 1.0
C      1  0.5078500000000  0.5299760000000  0.5350840000000 1.0
C      1  0.4854760000000  0.5305830000000  0.4645710000000 1.0
C      1  0.4393610000000  0.5136560000000  0.5235990000000 1.0
C      1  0.4419240000000  0.4756150000000  0.4699420000000 1.0
C      1  0.4645940000000  0.4519500000000  0.5339020000000 1.0
C      1  0.4753940000000  0.4906570000000  0.5431150000000 1.0
C      1  0.4883360000000  0.4793990000000  0.4568060000000 1.0
END
