TITL C-2782226-7400-920 0.382888738835981 125000 -1121.79095914342 0 0 192 (C1) n - 1
REM
REM in /home/nfs/bkarasulu/CARBON/AIRSS/Generating-Clusters/REBO/Higher-Symm/SD-CG/HFTN-CG
REM
REM
REM
REM
REM
REM ./C.cell (12c818d87b63d06a65506943cc24bca4)
REM
REM compiler GCC version 9.2.1 20190827 (Red Hat 9.2.1-1)
REM options -cpp -mtune=generic -march=x86-64 -g -O0 -fpre-include=/usr/include/finclude/math-vector-fortran.h
REM seed -589827980 -243507627 940754703 1142645035 -2111022811 987010844 -2100310127 307518770 756139236 1253877600 -260217133 -913404177 2074880264 -1202179720 -574650900 -2080007995 -1108382050 1680086323 1343251129 1144045085 -1912573741 -397562714 -539851178 223638761 -699803831 885757592 353832765 657928840 1527617302 -791591039 1828187495 -1906484755 -1978490396
REM
CELL 1.54180   50.00000   50.00000   50.00000   90.00000   90.00000   90.00000
LATT -1
SFAC C  
C      1  0.4888430000000  0.5599980000000  0.4171470000000 1.0
C      1  0.4207680000000  0.4090350000000  0.4733350000000 1.0
C      1  0.4665300000000  0.4014780000000  0.4752080000000 1.0
C      1  0.4149110000000  0.4771990000000  0.5142170000000 1.0
C      1  0.4465840000000  0.4446110000000  0.5687710000000 1.0
C      1  0.4634270000000  0.4425730000000  0.4187870000000 1.0
C      1  0.5508210000000  0.4717770000000  0.3992010000000 1.0
C      1  0.5193270000000  0.3940760000000  0.5332900000000 1.0
C      1  0.5426530000000  0.4709840000000  0.5421290000000 1.0
C      1  0.5645690000000  0.4600350000000  0.4667290000000 1.0
C      1  0.5365710000000  0.5266850000000  0.4583020000000 1.0
C      1  0.4013060000000  0.5524960000000  0.5091370000000 1.0
C      1  0.4379850000000  0.4209420000000  0.5478760000000 1.0
C      1  0.5227650000000  0.4847290000000  0.3864270000000 1.0
C      1  0.4899820000000  0.5800770000000  0.4972450000000 1.0
C      1  0.4258870000000  0.5443810000000  0.4522420000000 1.0
C      1  0.4549250000000  0.5307660000000  0.4528130000000 1.0
C      1  0.4725550000000  0.5525390000000  0.5454070000000 1.0
C      1  0.5894850000000  0.4400350000000  0.4907600000000 1.0
C      1  0.5275010000000  0.5692850000000  0.4273160000000 1.0
C      1  0.5430280000000  0.4398400000000  0.5080490000000 1.0
C      1  0.4639990000000  0.5786570000000  0.4750620000000 1.0
C      1  0.5387810000000  0.3955940000000  0.5134770000000 1.0
C      1  0.4984190000000  0.4206640000000  0.5335430000000 1.0
C      1  0.4647640000000  0.4721000000000  0.5705890000000 1.0
C      1  0.5207560000000  0.4756820000000  0.4530630000000 1.0
C      1  0.5057560000000  0.5883440000000  0.4175690000000 1.0
C      1  0.5975930000000  0.5396180000000  0.5067210000000 1.0
C      1  0.5402440000000  0.5374250000000  0.4069260000000 1.0
C      1  0.4430190000000  0.4984800000000  0.4123320000000 1.0
C      1  0.5725380000000  0.5000120000000  0.4975230000000 1.0
C      1  0.5681160000000  0.4905780000000  0.4679360000000 1.0
C      1  0.5001880000000  0.4926800000000  0.4881610000000 1.0
C      1  0.3917290000000  0.4987760000000  0.5060030000000 1.0
C      1  0.5423300000000  0.5735270000000  0.5630350000000 1.0
C      1  0.5172940000000  0.3755410000000  0.5536510000000 1.0
C      1  0.5083860000000  0.5295980000000  0.4751470000000 1.0
C      1  0.5810880000000  0.5538890000000  0.5233490000000 1.0
C      1  0.3967980000000  0.4534560000000  0.4701350000000 1.0
C      1  0.5182370000000  0.5455140000000  0.4399020000000 1.0
C      1  0.4448180000000  0.5266990000000  0.4976890000000 1.0
C      1  0.4611070000000  0.4635730000000  0.5161960000000 1.0
C      1  0.5262190000000  0.4210510000000  0.5744890000000 1.0
C      1  0.5763510000000  0.4265050000000  0.5804410000000 1.0
C      1  0.4567610000000  0.5696200000000  0.4112910000000 1.0
C      1  0.4148930000000  0.4938560000000  0.4536390000000 1.0
C      1  0.4851270000000  0.4511210000000  0.5324200000000 1.0
C      1  0.4730960000000  0.4916030000000  0.3984190000000 1.0
C      1  0.5930500000000  0.4472650000000  0.4574060000000 1.0
C      1  0.4939980000000  0.4731530000000  0.3957020000000 1.0
C      1  0.4721640000000  0.4771300000000  0.6003080000000 1.0
C      1  0.4929620000000  0.4483310000000  0.4090220000000 1.0
C      1  0.6056050000000  0.5221110000000  0.5635140000000 1.0
C      1  0.5616590000000  0.5255190000000  0.4192600000000 1.0
C      1  0.5581540000000  0.5916260000000  0.4981550000000 1.0
C      1  0.5524280000000  0.5096070000000  0.5418910000000 1.0
C      1  0.4449620000000  0.5022270000000  0.4431170000000 1.0
C      1  0.5332530000000  0.4499120000000  0.5816800000000 1.0
C      1  0.5651780000000  0.4408210000000  0.4385760000000 1.0
C      1  0.5614290000000  0.5362520000000  0.5860510000000 1.0
C      1  0.5547090000000  0.4395010000000  0.5370130000000 1.0
C      1  0.4083470000000  0.4496160000000  0.4956300000000 1.0
C      1  0.5780420000000  0.5102280000000  0.5267890000000 1.0
C      1  0.4158970000000  0.5444970000000  0.5355550000000 1.0
C      1  0.3982430000000  0.5113710000000  0.4780640000000 1.0
C      1  0.4791590000000  0.5859000000000  0.5425020000000 1.0
C      1  0.5006420000000  0.5598740000000  0.4726160000000 1.0
C      1  0.5021700000000  0.6107690000000  0.5477740000000 1.0
C      1  0.5287050000000  0.5375710000000  0.5739250000000 1.0
C      1  0.4096610000000  0.5173890000000  0.5516960000000 1.0
C      1  0.4811490000000  0.4441310000000  0.4544440000000 1.0
C      1  0.5848460000000  0.5016640000000  0.4411970000000 1.0
C      1  0.4877840000000  0.4758750000000  0.4441000000000 1.0
C      1  0.5514780000000  0.4661600000000  0.4947540000000 1.0
C      1  0.5276430000000  0.5117540000000  0.6068390000000 1.0
C      1  0.5140630000000  0.5074290000000  0.4104170000000 1.0
C      1  0.5227940000000  0.6226050000000  0.5350960000000 1.0
C      1  0.4573260000000  0.4757510000000  0.4561980000000 1.0
C      1  0.3887010000000  0.4958240000000  0.5375350000000 1.0
C      1  0.6040000000000  0.4787560000000  0.4554700000000 1.0
C      1  0.4738560000000  0.5964640000000  0.4231490000000 1.0
C      1  0.5454430000000  0.4994920000000  0.4473590000000 1.0
C      1  0.5072970000000  0.4659720000000  0.5847700000000 1.0
C      1  0.5311280000000  0.4858020000000  0.4844060000000 1.0
C      1  0.3903210000000  0.4690990000000  0.5465040000000 1.0
C      1  0.5437140000000  0.4257240000000  0.4564850000000 1.0
C      1  0.4422340000000  0.4487250000000  0.4450510000000 1.0
C      1  0.4996330000000  0.4984260000000  0.5407460000000 1.0
C      1  0.5016450000000  0.4122060000000  0.5639620000000 1.0
C      1  0.4952250000000  0.4620970000000  0.4806400000000 1.0
C      1  0.4403470000000  0.4013120000000  0.4546720000000 1.0
C      1  0.4868080000000  0.5100410000000  0.4644290000000 1.0
C      1  0.4556480000000  0.5410860000000  0.3982130000000 1.0
C      1  0.4483510000000  0.4256700000000  0.5158010000000 1.0
C      1  0.4156830000000  0.5249550000000  0.5814790000000 1.0
C      1  0.4617000000000  0.5623810000000  0.5860150000000 1.0
C      1  0.4546040000000  0.5601690000000  0.5171540000000 1.0
C      1  0.4554720000000  0.5866620000000  0.4470720000000 1.0
C      1  0.5674220000000  0.3978040000000  0.5160430000000 1.0
C      1  0.4477110000000  0.5338390000000  0.5594860000000 1.0
C      1  0.4230600000000  0.4258810000000  0.4964740000000 1.0
C      1  0.4999790000000  0.6432300000000  0.4046040000000 1.0
C      1  0.6078440000000  0.5156600000000  0.4874500000000 1.0
C      1  0.5204930000000  0.5764460000000  0.5396090000000 1.0
C      1  0.4150060000000  0.5424220000000  0.4212400000000 1.0
C      1  0.5518540000000  0.5793760000000  0.4354560000000 1.0
C      1  0.4785010000000  0.5236130000000  0.4043310000000 1.0
C      1  0.4932060000000  0.4716460000000  0.5543420000000 1.0
C      1  0.4297360000000  0.5632580000000  0.4976850000000 1.0
C      1  0.4129730000000  0.4638720000000  0.4506650000000 1.0
C      1  0.5197640000000  0.5921780000000  0.5093640000000 1.0
C      1  0.4656590000000  0.3909630000000  0.5061730000000 1.0
C      1  0.5748820000000  0.4707890000000  0.5513720000000 1.0
C      1  0.4757710000000  0.4065280000000  0.5743020000000 1.0
C      1  0.4804250000000  0.4204090000000  0.5073450000000 1.0
C      1  0.4278440000000  0.4905220000000  0.5429970000000 1.0
C      1  0.5421330000000  0.6149980000000  0.5144580000000 1.0
C      1  0.5193310000000  0.4441560000000  0.4659530000000 1.0
C      1  0.4604240000000  0.3808930000000  0.5308910000000 1.0
C      1  0.4808160000000  0.5396320000000  0.5085810000000 1.0
C      1  0.5314310000000  0.5445970000000  0.5181680000000 1.0
C      1  0.5279310000000  0.5663290000000  0.5917320000000 1.0
C      1  0.6147010000000  0.4808420000000  0.5318560000000 1.0
C      1  0.5300270000000  0.5171950000000  0.4984540000000 1.0
C      1  0.5118860000000  0.5418910000000  0.6093930000000 1.0
C      1  0.4885420000000  0.5061830000000  0.4321620000000 1.0
C      1  0.4994850000000  0.4224390000000  0.4835380000000 1.0
C      1  0.4619580000000  0.5029030000000  0.4838950000000 1.0
C      1  0.4544610000000  0.4333900000000  0.4730530000000 1.0
C      1  0.4984730000000  0.5245430000000  0.5828270000000 1.0
C      1  0.5690990000000  0.5563060000000  0.5523850000000 1.0
C      1  0.5286090000000  0.4154040000000  0.4919910000000 1.0
C      1  0.5529140000000  0.4199490000000  0.5610210000000 1.0
C      1  0.4596510000000  0.5993570000000  0.5229970000000 1.0
C      1  0.5430180000000  0.5373770000000  0.5465720000000 1.0
C      1  0.4591590000000  0.4959770000000  0.5187190000000 1.0
C      1  0.6108650000000  0.4885840000000  0.4818490000000 1.0
C      1  0.5834000000000  0.5347900000000  0.4419890000000 1.0
C      1  0.4634510000000  0.5476690000000  0.4803880000000 1.0
C      1  0.5555300000000  0.5635580000000  0.5115610000000 1.0
C      1  0.5089870000000  0.4913910000000  0.6023430000000 1.0
C      1  0.4361850000000  0.5688920000000  0.5443690000000 1.0
C      1  0.5603650000000  0.4239670000000  0.4831580000000 1.0
C      1  0.4331000000000  0.4539860000000  0.5265710000000 1.0
C      1  0.4951720000000  0.6192200000000  0.4120470000000 1.0
C      1  0.4312740000000  0.5263250000000  0.4034920000000 1.0
C      1  0.5252700000000  0.4780560000000  0.4204300000000 1.0
C      1  0.5016050000000  0.5830600000000  0.5672040000000 1.0
C      1  0.5277530000000  0.4970180000000  0.5261630000000 1.0
C      1  0.4299750000000  0.5055950000000  0.4798610000000 1.0
C      1  0.4935960000000  0.4064920000000  0.4550230000000 1.0
C      1  0.4437530000000  0.4660390000000  0.4072520000000 1.0
C      1  0.5180090000000  0.4348830000000  0.4169290000000 1.0
C      1  0.6047050000000  0.4676570000000  0.5036270000000 1.0
C      1  0.5780790000000  0.4240520000000  0.5186000000000 1.0
C      1  0.5622320000000  0.4931770000000  0.4183540000000 1.0
C      1  0.4108930000000  0.5423130000000  0.4781440000000 1.0
C      1  0.5872450000000  0.5414410000000  0.5732050000000 1.0
C      1  0.5181010000000  0.4151960000000  0.4386900000000 1.0
C      1  0.4661820000000  0.4297940000000  0.5880460000000 1.0
C      1  0.4253520000000  0.4689940000000  0.5650620000000 1.0
C      1  0.4835060000000  0.4481860000000  0.6003050000000 1.0
C      1  0.4932650000000  0.5644350000000  0.5912060000000 1.0
C      1  0.4407580000000  0.5243510000000  0.5275510000000 1.0
C      1  0.5921990000000  0.5426830000000  0.4735570000000 1.0
C      1  0.5799820000000  0.5742530000000  0.4780970000000 1.0
C      1  0.5458710000000  0.4445740000000  0.4137910000000 1.0
C      1  0.4569680000000  0.5219220000000  0.6151970000000 1.0
C      1  0.4659410000000  0.4171750000000  0.4387690000000 1.0
C      1  0.5774390000000  0.5662640000000  0.4452620000000 1.0
C      1  0.4313880000000  0.5700590000000  0.4328700000000 1.0
C      1  0.5514960000000  0.5884510000000  0.4655790000000 1.0
C      1  0.4538210000000  0.5969910000000  0.4991570000000 1.0
C      1  0.5623110000000  0.4543960000000  0.5784760000000 1.0
C      1  0.4598120000000  0.4982940000000  0.5527800000000 1.0
C      1  0.4563960000000  0.3968740000000  0.5543850000000 1.0
C      1  0.4848270000000  0.5457520000000  0.4466700000000 1.0
C      1  0.5508830000000  0.5096260000000  0.5918630000000 1.0
C      1  0.5536590000000  0.4917170000000  0.5680820000000 1.0
C      1  0.5083220000000  0.5386460000000  0.4017860000000 1.0
C      1  0.4892260000000  0.5090780000000  0.5123410000000 1.0
C      1  0.4839780000000  0.5222880000000  0.5562090000000 1.0
C      1  0.5747890000000  0.4718850000000  0.5173880000000 1.0
C      1  0.4439160000000  0.5371540000000  0.5925690000000 1.0
C      1  0.6018880000000  0.5047730000000  0.5411390000000 1.0
C      1  0.5247560000000  0.5801750000000  0.4795370000000 1.0
C      1  0.4487140000000  0.5771190000000  0.5668190000000 1.0
C      1  0.5588750000000  0.5263140000000  0.4824680000000 1.0
C      1  0.5033250000000  0.5574910000000  0.5189470000000 1.0
C      1  0.4114880000000  0.4425300000000  0.5500040000000 1.0
C      1  0.4640310000000  0.4608270000000  0.4863410000000 1.0
C      1  0.4807710000000  0.5061670000000  0.6056120000000 1.0
END
