TITL C-2782237-5345-1169 -6.25511990725509e-05 125000 -272.434937885312 0 0 46 (C1) n - 1
REM
REM in /home/nfs/bkarasulu/CARBON/AIRSS/Generating-Clusters/REBO/Higher-Symm/SD-CG/HFTN-CG
REM
REM
REM
REM
REM
REM ./C.cell (12c818d87b63d06a65506943cc24bca4)
REM
REM compiler GCC version 9.2.1 20190827 (Red Hat 9.2.1-1)
REM options -cpp -mtune=generic -march=x86-64 -g -O0 -fpre-include=/usr/include/finclude/math-vector-fortran.h
REM seed -877823398 -987044949 -1886647972 -306431889 227102864 1388687828 697708588 932119624 -1634313480 1049677298 1803138093 1974005240 -443200071 901117579 1529554946 1727908739 -183797284 -2073781572 1338101338 -2089615039 1655903105 1278026196 289856321 2079313473 1071716734 591001202 -911990368 1547597861 533014900 1323484070 2142938927 -1672768962 407733728
REM
CELL 1.54180   50.00000   50.00000   50.00000   90.00000   90.00000   90.00000
LATT -1
SFAC C  
C      1  0.4685590000000  0.5445420000000  0.5136270000000 1.0
C      1  0.4475620000000  0.4835160000000  0.5169440000000 1.0
C      1  0.4959110000000  0.4439310000000  0.5256110000000 1.0
C      1  0.5487710000000  0.4849330000000  0.5198680000000 1.0
C      1  0.5337130000000  0.5425190000000  0.5103820000000 1.0
C      1  0.4755990000000  0.4929780000000  0.5094520000000 1.0
C      1  0.4978740000000  0.4743290000000  0.5095610000000 1.0
C      1  0.5224450000000  0.4893600000000  0.5077780000000 1.0
C      1  0.5154570000000  0.5177710000000  0.5046380000000 1.0
C      1  0.4863880000000  0.5201480000000  0.5063320000000 1.0
C      1  0.4256150000000  0.4933870000000  0.4994540000000 1.0
C      1  0.4845430000000  0.4391110000000  0.4963610000000 1.0
C      1  0.5673490000000  0.4653300000000  0.5040810000000 1.0
C      1  0.5573290000000  0.5464690000000  0.4903360000000 1.0
C      1  0.4718370000000  0.5708690000000  0.4977760000000 1.0
C      1  0.5272570000000  0.4551360000000  0.4789560000000 1.0
C      1  0.5579690000000  0.5077990000000  0.4807700000000 1.0
C      1  0.5116040000000  0.5530810000000  0.4758800000000 1.0
C      1  0.4488770000000  0.5295140000000  0.4809820000000 1.0
C      1  0.4559800000000  0.4671790000000  0.4727510000000 1.0
C      1  0.4830240000000  0.4741430000000  0.4643640000000 1.0
C      1  0.5407650000000  0.4762220000000  0.4645950000000 1.0
C      1  0.5272160000000  0.5074240000000  0.4650780000000 1.0
C      1  0.4893740000000  0.5402240000000  0.4632150000000 1.0
C      1  0.4592540000000  0.5062730000000  0.4649780000000 1.0
C      1  0.4851770000000  0.4806950000000  0.5467970000000 1.0
C      1  0.5152510000000  0.4779120000000  0.5453810000000 1.0
C      1  0.5267800000000  0.5058600000000  0.5457820000000 1.0
C      1  0.5037270000000  0.5251030000000  0.5446590000000 1.0
C      1  0.4781560000000  0.5092750000000  0.5458780000000 1.0
C      1  0.4558190000000  0.5222130000000  0.5319320000000 1.0
C      1  0.4661200000000  0.4592430000000  0.5286300000000 1.0
C      1  0.5255860000000  0.4535630000000  0.5293550000000 1.0
C      1  0.5563050000000  0.5113110000000  0.5334740000000 1.0
C      1  0.5089490000000  0.5491530000000  0.5284360000000 1.0
C      1  0.4567730000000  0.4503040000000  0.4966680000000 1.0
C      1  0.5408670000000  0.4489220000000  0.5048820000000 1.0
C      1  0.5676450000000  0.5217740000000  0.5071560000000 1.0
C      1  0.5021760000000  0.5653690000000  0.5017000000000 1.0
C      1  0.4371480000000  0.5207750000000  0.5067800000000 1.0
C      1  0.4651950000000  0.5515470000000  0.4744250000000 1.0
C      1  0.4348970000000  0.4876430000000  0.4717030000000 1.0
C      1  0.4995310000000  0.4530130000000  0.4757760000000 1.0
C      1  0.5692640000000  0.4792340000000  0.4774560000000 1.0
C      1  0.5355370000000  0.5390630000000  0.4706700000000 1.0
C      1  0.4933090000000  0.5063980000000  0.4610930000000 1.0
END
