TITL C-2782227-3064-995 0.00320330800384888 125000 -1024.25681011615 0 0 177 (C1) n - 1
REM
REM in /home/nfs/bkarasulu/CARBON/AIRSS/Generating-Clusters/REBO/Higher-Symm/SD-CG/HFTN-CG
REM
REM
REM
REM
REM
REM ./C.cell (12c818d87b63d06a65506943cc24bca4)
REM
REM compiler GCC version 9.2.1 20190827 (Red Hat 9.2.1-1)
REM options -cpp -mtune=generic -march=x86-64 -g -O0 -fpre-include=/usr/include/finclude/math-vector-fortran.h
REM seed 816350173 -271510021 105206955 1286687271 -682296723 2011092697 -778994208 1548869121 1484930876 633409580 576459728 677744092 -1167792900 503890555 -1057771081 -1440518814 550908443 1593642965 -1342116165 1666130692 1198038891 -2011768318 472639746 1161841842 -1287539969 -223158401 576587087 1619688195 -1107353513 -437278053 2035103639 1216204416 -143964551
REM
CELL 1.54180   50.00000   50.00000   50.00000   90.00000   90.00000   90.00000
LATT -1
SFAC C  
C      1  0.5031350000000  0.6180480000000  0.4573850000000 1.0
C      1  0.5012670000000  0.3828640000000  0.4500700000000 1.0
C      1  0.5137920000000  0.4683460000000  0.5579220000000 1.0
C      1  0.4829200000000  0.5328320000000  0.5610430000000 1.0
C      1  0.5198170000000  0.4495620000000  0.5933680000000 1.0
C      1  0.4767370000000  0.5554770000000  0.5946240000000 1.0
C      1  0.5367810000000  0.5771790000000  0.4516040000000 1.0
C      1  0.4594600000000  0.4105180000000  0.4442950000000 1.0
C      1  0.4903610000000  0.5617150000000  0.5494240000000 1.0
C      1  0.5088370000000  0.4387330000000  0.5535010000000 1.0
C      1  0.4820430000000  0.4598030000000  0.4068670000000 1.0
C      1  0.5175100000000  0.5338420000000  0.4057920000000 1.0
C      1  0.4575170000000  0.5207170000000  0.5797580000000 1.0
C      1  0.5374620000000  0.4805340000000  0.5755170000000 1.0
C      1  0.5575940000000  0.5225940000000  0.4623750000000 1.0
C      1  0.4396590000000  0.4708980000000  0.4620320000000 1.0
C      1  0.4628790000000  0.4406240000000  0.4285340000000 1.0
C      1  0.5357900000000  0.5499890000000  0.4306990000000 1.0
C      1  0.4307630000000  0.5922940000000  0.4806450000000 1.0
C      1  0.5605740000000  0.4105260000000  0.4855050000000 1.0
C      1  0.5177920000000  0.5395120000000  0.4959530000000 1.0
C      1  0.4792300000000  0.4639590000000  0.4907100000000 1.0
C      1  0.4887290000000  0.4385960000000  0.4734390000000 1.0
C      1  0.5027850000000  0.5765270000000  0.4599340000000 1.0
C      1  0.5058940000000  0.5286300000000  0.5934870000000 1.0
C      1  0.4911620000000  0.4759430000000  0.6011540000000 1.0
C      1  0.5958250000000  0.5540520000000  0.5126360000000 1.0
C      1  0.4113540000000  0.4424700000000  0.5101940000000 1.0
C      1  0.5411970000000  0.5454380000000  0.5866570000000 1.0
C      1  0.4584760000000  0.4383530000000  0.5746760000000 1.0
C      1  0.4172170000000  0.4593420000000  0.5458210000000 1.0
C      1  0.5833430000000  0.5324250000000  0.5438070000000 1.0
C      1  0.5348890000000  0.4588130000000  0.4624850000000 1.0
C      1  0.4729650000000  0.5529500000000  0.4721970000000 1.0
C      1  0.4857310000000  0.4439830000000  0.5900810000000 1.0
C      1  0.5118180000000  0.5597850000000  0.5966650000000 1.0
C      1  0.6017480000000  0.5209190000000  0.5200210000000 1.0
C      1  0.4040810000000  0.4748040000000  0.5184300000000 1.0
C      1  0.5447840000000  0.4351430000000  0.5132410000000 1.0
C      1  0.4625290000000  0.5654040000000  0.5143600000000 1.0
C      1  0.4364280000000  0.5066910000000  0.5432040000000 1.0
C      1  0.5615180000000  0.4930620000000  0.5393980000000 1.0
C      1  0.6123620000000  0.5102100000000  0.4645820000000 1.0
C      1  0.3910480000000  0.4853070000000  0.4654320000000 1.0
C      1  0.4820480000000  0.4977650000000  0.5221010000000 1.0
C      1  0.5301960000000  0.5128980000000  0.5246510000000 1.0
C      1  0.4520590000000  0.5601740000000  0.5733310000000 1.0
C      1  0.5448980000000  0.4408710000000  0.5724280000000 1.0
C      1  0.4712970000000  0.5608580000000  0.4067350000000 1.0
C      1  0.5326470000000  0.4398410000000  0.4053500000000 1.0
C      1  0.5007310000000  0.5975850000000  0.5351740000000 1.0
C      1  0.4996240000000  0.4008660000000  0.5391900000000 1.0
C      1  0.4790910000000  0.3923040000000  0.4370600000000 1.0
C      1  0.5232160000000  0.6078120000000  0.4459840000000 1.0
C      1  0.4773210000000  0.5224740000000  0.6040700000000 1.0
C      1  0.5238390000000  0.4816980000000  0.6040570000000 1.0
C      1  0.4169620000000  0.5270150000000  0.5551140000000 1.0
C      1  0.5798780000000  0.4730880000000  0.5534900000000 1.0
C      1  0.4711700000000  0.4002430000000  0.5360990000000 1.0
C      1  0.5303870000000  0.5873830000000  0.5416180000000 1.0
C      1  0.4397550000000  0.4616690000000  0.5706950000000 1.0
C      1  0.5649730000000  0.5279780000000  0.5696420000000 1.0
C      1  0.4655190000000  0.5293190000000  0.4004160000000 1.0
C      1  0.5343090000000  0.4710290000000  0.3973440000000 1.0
C      1  0.5126900000000  0.3923090000000  0.4737310000000 1.0
C      1  0.4862370000000  0.6045040000000  0.4831010000000 1.0
C      1  0.4473010000000  0.4577610000000  0.4989970000000 1.0
C      1  0.5473740000000  0.5457630000000  0.5024980000000 1.0
C      1  0.5640920000000  0.4638520000000  0.5744900000000 1.0
C      1  0.4318370000000  0.5381800000000  0.5760940000000 1.0
C      1  0.4554340000000  0.4364320000000  0.4742950000000 1.0
C      1  0.5687670000000  0.5542590000000  0.4834380000000 1.0
C      1  0.4187540000000  0.5139560000000  0.4651250000000 1.0
C      1  0.5788360000000  0.4888480000000  0.4627450000000 1.0
C      1  0.5011120000000  0.5227620000000  0.5187340000000 1.0
C      1  0.4919450000000  0.4732590000000  0.5137440000000 1.0
C      1  0.4108260000000  0.4835580000000  0.4380910000000 1.0
C      1  0.5932310000000  0.5153250000000  0.4368950000000 1.0
C      1  0.5496600000000  0.5660870000000  0.5605160000000 1.0
C      1  0.4546990000000  0.4183380000000  0.5531470000000 1.0
C      1  0.3890310000000  0.4961970000000  0.4980830000000 1.0
C      1  0.6124930000000  0.4986360000000  0.4971860000000 1.0
C      1  0.5517460000000  0.5707760000000  0.5212030000000 1.0
C      1  0.4583310000000  0.4318980000000  0.5158970000000 1.0
C      1  0.4068600000000  0.4599130000000  0.4816310000000 1.0
C      1  0.6046690000000  0.5369860000000  0.4843680000000 1.0
C      1  0.5304010000000  0.4814730000000  0.5345590000000 1.0
C      1  0.4653650000000  0.5170510000000  0.5408960000000 1.0
C      1  0.5799180000000  0.4219230000000  0.5267720000000 1.0
C      1  0.4242890000000  0.5730070000000  0.5230890000000 1.0
C      1  0.5784700000000  0.5151210000000  0.4847320000000 1.0
C      1  0.4256780000000  0.4881470000000  0.4848470000000 1.0
C      1  0.4647670000000  0.4029910000000  0.5024690000000 1.0
C      1  0.5369570000000  0.5971870000000  0.5095420000000 1.0
C      1  0.5518390000000  0.4242530000000  0.5443570000000 1.0
C      1  0.4507340000000  0.5745240000000  0.5437500000000 1.0
C      1  0.5085010000000  0.5613910000000  0.5206240000000 1.0
C      1  0.4865330000000  0.4377450000000  0.5311710000000 1.0
C      1  0.4787930000000  0.4991620000000  0.4511590000000 1.0
C      1  0.5165980000000  0.5099420000000  0.4446050000000 1.0
C      1  0.4773580000000  0.4963890000000  0.6161610000000 1.0
C      1  0.5333710000000  0.5142800000000  0.6009690000000 1.0
C      1  0.5538450000000  0.5322820000000  0.5315010000000 1.0
C      1  0.4447780000000  0.4669440000000  0.5293700000000 1.0
C      1  0.4555160000000  0.5996280000000  0.4728650000000 1.0
C      1  0.5328040000000  0.4130690000000  0.4821270000000 1.0
C      1  0.5182490000000  0.5921920000000  0.4836670000000 1.0
C      1  0.4942150000000  0.4107360000000  0.4922130000000 1.0
C      1  0.5808870000000  0.5799950000000  0.4954310000000 1.0
C      1  0.4232470000000  0.4236970000000  0.4859530000000 1.0
C      1  0.5742150000000  0.4400280000000  0.4590200000000 1.0
C      1  0.4253110000000  0.5565280000000  0.4630440000000 1.0
C      1  0.4304260000000  0.4300530000000  0.5346570000000 1.0
C      1  0.5767420000000  0.5640910000000  0.5394370000000 1.0
C      1  0.3989990000000  0.5487440000000  0.4821980000000 1.0
C      1  0.5982670000000  0.4464280000000  0.4825290000000 1.0
C      1  0.4533740000000  0.4900870000000  0.5677360000000 1.0
C      1  0.5413290000000  0.5079610000000  0.5624430000000 1.0
C      1  0.5591900000000  0.4438430000000  0.4347780000000 1.0
C      1  0.4367450000000  0.5554960000000  0.4364350000000 1.0
C      1  0.5171410000000  0.4829270000000  0.4638590000000 1.0
C      1  0.4892090000000  0.5269760000000  0.4679110000000 1.0
C      1  0.4937350000000  0.5281790000000  0.4286360000000 1.0
C      1  0.4964530000000  0.4778130000000  0.4321620000000 1.0
C      1  0.3985680000000  0.5271220000000  0.5085400000000 1.0
C      1  0.6029700000000  0.4680010000000  0.5087920000000 1.0
C      1  0.5586120000000  0.4504400000000  0.4858140000000 1.0
C      1  0.4463290000000  0.5518610000000  0.4879870000000 1.0
C      1  0.3863630000000  0.5186390000000  0.4719310000000 1.0
C      1  0.6089740000000  0.4766620000000  0.4708620000000 1.0
C      1  0.4576420000000  0.4788770000000  0.4131100000000 1.0
C      1  0.5411520000000  0.5145460000000  0.4134240000000 1.0
C      1  0.4593780000000  0.5713020000000  0.4294040000000 1.0
C      1  0.5257960000000  0.4378890000000  0.4371660000000 1.0
C      1  0.4688000000000  0.5055280000000  0.4222320000000 1.0
C      1  0.5271220000000  0.4877020000000  0.4239970000000 1.0
C      1  0.4877830000000  0.5848830000000  0.5083480000000 1.0
C      1  0.5135720000000  0.4219480000000  0.5173520000000 1.0
C      1  0.4697770000000  0.4618960000000  0.5445760000000 1.0
C      1  0.5273010000000  0.5474870000000  0.5444080000000 1.0
C      1  0.5611090000000  0.4676620000000  0.4184710000000 1.0
C      1  0.4381280000000  0.5309390000000  0.4212960000000 1.0
C      1  0.4227720000000  0.4417130000000  0.4587200000000 1.0
C      1  0.5847890000000  0.5450090000000  0.4590360000000 1.0
C      1  0.4703930000000  0.5352080000000  0.5148300000000 1.0
C      1  0.5288820000000  0.4641590000000  0.5074540000000 1.0
C      1  0.5088170000000  0.4201820000000  0.5824890000000 1.0
C      1  0.4939840000000  0.5791260000000  0.5785110000000 1.0
C      1  0.5303730000000  0.5193910000000  0.4719600000000 1.0
C      1  0.4636950000000  0.4849360000000  0.4730160000000 1.0
C      1  0.4150690000000  0.5749120000000  0.4970180000000 1.0
C      1  0.5828270000000  0.4217860000000  0.4992490000000 1.0
C      1  0.4459060000000  0.4011840000000  0.4742000000000 1.0
C      1  0.5520790000000  0.5898350000000  0.4796600000000 1.0
C      1  0.5756510000000  0.4882120000000  0.4306030000000 1.0
C      1  0.4234760000000  0.5111240000000  0.4336260000000 1.0
C      1  0.5026830000000  0.4831680000000  0.3930210000000 1.0
C      1  0.4943200000000  0.5124340000000  0.3924480000000 1.0
C      1  0.6007960000000  0.4643370000000  0.5388030000000 1.0
C      1  0.3968920000000  0.5336430000000  0.5382290000000 1.0
C      1  0.5198190000000  0.4415370000000  0.4833050000000 1.0
C      1  0.4729450000000  0.5799390000000  0.4546470000000 1.0
C      1  0.4267420000000  0.4997190000000  0.5155850000000 1.0
C      1  0.5743380000000  0.5015530000000  0.5144430000000 1.0
C      1  0.5260020000000  0.4094140000000  0.5566890000000 1.0
C      1  0.4760610000000  0.5926240000000  0.5552060000000 1.0
C      1  0.5742130000000  0.4763740000000  0.4928980000000 1.0
C      1  0.4296620000000  0.5264240000000  0.4944280000000 1.0
C      1  0.4937780000000  0.4454170000000  0.4421800000000 1.0
C      1  0.5091940000000  0.5483140000000  0.4512900000000 1.0
C      1  0.4369470000000  0.4630110000000  0.4303590000000 1.0
C      1  0.5623420000000  0.5285670000000  0.4310340000000 1.0
C      1  0.5145220000000  0.5246610000000  0.5621610000000 1.0
C      1  0.4843070000000  0.4776000000000  0.5687690000000 1.0
C      1  0.5277260000000  0.4968050000000  0.4978130000000 1.0
C      1  0.4661250000000  0.5089110000000  0.4949190000000 1.0
C      1  0.4980390000000  0.5008440000000  0.4855880000000 1.0
END
