TITL C-2782225-7408-328 0.000946941817704067 125000 -724.532310147243 0 0 128 (C1) n - 1
REM
REM in /home/nfs/bkarasulu/CARBON/AIRSS/Generating-Clusters/REBO/Higher-Symm/SD-CG/HFTN-CG
REM
REM
REM
REM
REM
REM ./C.cell (12c818d87b63d06a65506943cc24bca4)
REM
REM compiler GCC version 9.2.1 20190827 (Red Hat 9.2.1-1)
REM options -cpp -mtune=generic -march=x86-64 -g -O0 -fpre-include=/usr/include/finclude/math-vector-fortran.h
REM seed -749333125 -1186025092 -115798963 -1810071356 1694696682 1734286785 705522291 1329463247 -2135482773 1764671684 1502247833 256072720 1555742031 1827962534 -1000548573 -1676478357 -839800007 -1803998103 -1399118995 -421141009 -644705390 161471889 -1926540219 389570042 -854270837 46698776 1520728488 627564766 154825683 -2128578810 874719456 -467943325 1704885711
REM
CELL 1.54180   50.00000   50.00000   50.00000   90.00000   90.00000   90.00000
LATT -1
SFAC C  
C      1  0.5841500000000  0.4875960000000  0.4713720000000 1.0
C      1  0.4727790000000  0.4848610000000  0.4079450000000 1.0
C      1  0.4167300000000  0.4785940000000  0.5217040000000 1.0
C      1  0.5258590000000  0.4788230000000  0.5904270000000 1.0
C      1  0.5856930000000  0.5215990000000  0.4735390000000 1.0
C      1  0.4766950000000  0.5187590000000  0.4074030000000 1.0
C      1  0.4189010000000  0.5125550000000  0.5245100000000 1.0
C      1  0.5261190000000  0.5123400000000  0.5912460000000 1.0
C      1  0.4935060000000  0.5122830000000  0.4570450000000 1.0
C      1  0.4576070000000  0.5133130000000  0.5147250000000 1.0
C      1  0.5148630000000  0.5172980000000  0.5431840000000 1.0
C      1  0.5482470000000  0.5181670000000  0.4866880000000 1.0
C      1  0.4898690000000  0.4796750000000  0.4576440000000 1.0
C      1  0.4546820000000  0.4797840000000  0.5096720000000 1.0
C      1  0.5102080000000  0.4849560000000  0.5436520000000 1.0
C      1  0.5445140000000  0.4844430000000  0.4844350000000 1.0
C      1  0.5556720000000  0.4504370000000  0.5473490000000 1.0
C      1  0.5473780000000  0.4468500000000  0.4391830000000 1.0
C      1  0.4477320000000  0.4455380000000  0.4501840000000 1.0
C      1  0.4487260000000  0.4424840000000  0.5612530000000 1.0
C      1  0.5561240000000  0.5614090000000  0.5467380000000 1.0
C      1  0.5516750000000  0.5555950000000  0.4342020000000 1.0
C      1  0.4573330000000  0.5524300000000  0.4538120000000 1.0
C      1  0.4526060000000  0.5525670000000  0.5600140000000 1.0
C      1  0.4422410000000  0.5870000000000  0.5063990000000 1.0
C      1  0.4979450000000  0.5909040000000  0.5576780000000 1.0
C      1  0.5397050000000  0.5949950000000  0.4980210000000 1.0
C      1  0.5026910000000  0.5821310000000  0.4521900000000 1.0
C      1  0.4341230000000  0.4128500000000  0.5067580000000 1.0
C      1  0.4815860000000  0.3977310000000  0.5685680000000 1.0
C      1  0.5378100000000  0.4117240000000  0.5023750000000 1.0
C      1  0.4960970000000  0.4206310000000  0.4546870000000 1.0
C      1  0.4748340000000  0.5531910000000  0.4915280000000 1.0
C      1  0.4897290000000  0.5476750000000  0.5372180000000 1.0
C      1  0.5307990000000  0.5605490000000  0.5151060000000 1.0
C      1  0.5230640000000  0.5574280000000  0.4620650000000 1.0
C      1  0.4624770000000  0.4432220000000  0.4878580000000 1.0
C      1  0.4798760000000  0.4360990000000  0.5370630000000 1.0
C      1  0.5283010000000  0.4476460000000  0.5152030000000 1.0
C      1  0.5135670000000  0.4472770000000  0.4673140000000 1.0
C      1  0.5201350000000  0.5173290000000  0.4364020000000 1.0
C      1  0.4507190000000  0.5081330000000  0.4817860000000 1.0
C      1  0.4846150000000  0.5121380000000  0.5579730000000 1.0
C      1  0.5569850000000  0.5228620000000  0.5185560000000 1.0
C      1  0.5177220000000  0.4854260000000  0.4388800000000 1.0
C      1  0.4444780000000  0.4772210000000  0.4772560000000 1.0
C      1  0.4817400000000  0.4805710000000  0.5598090000000 1.0
C      1  0.5549610000000  0.4914420000000  0.5160290000000 1.0
C      1  0.4325380000000  0.4370710000000  0.4886870000000 1.0
C      1  0.4856160000000  0.4287560000000  0.5670700000000 1.0
C      1  0.5575080000000  0.4367770000000  0.5100360000000 1.0
C      1  0.5008820000000  0.4476220000000  0.4364780000000 1.0
C      1  0.4448950000000  0.5573070000000  0.4956980000000 1.0
C      1  0.4999240000000  0.5584580000000  0.5680480000000 1.0
C      1  0.5597730000000  0.5722170000000  0.5087810000000 1.0
C      1  0.5070760000000  0.5549410000000  0.4330830000000 1.0
C      1  0.4642740000000  0.4819230000000  0.5952590000000 1.0
C      1  0.5907170000000  0.4885540000000  0.5328630000000 1.0
C      1  0.5344290000000  0.4838330000000  0.4028270000000 1.0
C      1  0.4087440000000  0.4842680000000  0.4615830000000 1.0
C      1  0.4674830000000  0.5139600000000  0.5938500000000 1.0
C      1  0.5926860000000  0.5224570000000  0.5352310000000 1.0
C      1  0.5378150000000  0.5158350000000  0.4008980000000 1.0
C      1  0.4163140000000  0.5158770000000  0.4635290000000 1.0
C      1  0.4995530000000  0.5231470000000  0.5866770000000 1.0
C      1  0.5867430000000  0.5292760000000  0.5022800000000 1.0
C      1  0.5058070000000  0.5252160000000  0.4064490000000 1.0
C      1  0.4238310000000  0.5236430000000  0.4959720000000 1.0
C      1  0.4961670000000  0.4710650000000  0.5893740000000 1.0
C      1  0.5835040000000  0.4804690000000  0.5005810000000 1.0
C      1  0.5019060000000  0.4770280000000  0.4095680000000 1.0
C      1  0.4143100000000  0.4721110000000  0.4928830000000 1.0
C      1  0.4837280000000  0.4660880000000  0.4859280000000 1.0
C      1  0.4794000000000  0.4596870000000  0.5196020000000 1.0
C      1  0.5082050000000  0.4710650000000  0.5170050000000 1.0
C      1  0.5173090000000  0.4722500000000  0.4857050000000 1.0
C      1  0.4927920000000  0.5275220000000  0.4845790000000 1.0
C      1  0.4857360000000  0.5242310000000  0.5167210000000 1.0
C      1  0.5186100000000  0.5325510000000  0.5144550000000 1.0
C      1  0.5227800000000  0.5362580000000  0.4810510000000 1.0
C      1  0.5274140000000  0.4647640000000  0.5610990000000 1.0
C      1  0.5608930000000  0.4627970000000  0.4670210000000 1.0
C      1  0.4726610000000  0.4633340000000  0.4345710000000 1.0
C      1  0.4411680000000  0.4564800000000  0.5307520000000 1.0
C      1  0.5265050000000  0.5453840000000  0.5534120000000 1.0
C      1  0.5599060000000  0.5422020000000  0.4651710000000 1.0
C      1  0.4817650000000  0.5358530000000  0.4364640000000 1.0
C      1  0.4410380000000  0.5382570000000  0.5305170000000 1.0
C      1  0.4169040000000  0.4506570000000  0.4658970000000 1.0
C      1  0.4709730000000  0.4489480000000  0.5866410000000 1.0
C      1  0.5792760000000  0.4567380000000  0.5234150000000 1.0
C      1  0.5245140000000  0.4525720000000  0.4146210000000 1.0
C      1  0.4278680000000  0.5474320000000  0.4712970000000 1.0
C      1  0.4749470000000  0.5467940000000  0.5852220000000 1.0
C      1  0.5813270000000  0.5538780000000  0.5247350000000 1.0
C      1  0.5295450000000  0.5485730000000  0.4093460000000 1.0
C      1  0.4362790000000  0.4763890000000  0.4440020000000 1.0
C      1  0.4488780000000  0.4740800000000  0.5656690000000 1.0
C      1  0.5611100000000  0.4817140000000  0.5481560000000 1.0
C      1  0.5502670000000  0.4773410000000  0.4314230000000 1.0
C      1  0.4475500000000  0.5207500000000  0.4502990000000 1.0
C      1  0.4524620000000  0.5214880000000  0.5648730000000 1.0
C      1  0.5634710000000  0.5304610000000  0.5511370000000 1.0
C      1  0.5528270000000  0.5243740000000  0.4302560000000 1.0
C      1  0.4658450000000  0.4180120000000  0.4581860000000 1.0
C      1  0.4424700000000  0.4226280000000  0.5343580000000 1.0
C      1  0.5285560000000  0.4323740000000  0.5520580000000 1.0
C      1  0.5499180000000  0.4307470000000  0.4667750000000 1.0
C      1  0.4735720000000  0.5791870000000  0.4614450000000 1.0
C      1  0.4472770000000  0.5716510000000  0.5329410000000 1.0
C      1  0.5285760000000  0.5795010000000  0.5500550000000 1.0
C      1  0.5580720000000  0.5755560000000  0.4583780000000 1.0
C      1  0.4699000000000  0.5873590000000  0.4900100000000 1.0
C      1  0.4778020000000  0.5759320000000  0.5400090000000 1.0
C      1  0.5186600000000  0.5907950000000  0.5204810000000 1.0
C      1  0.5314160000000  0.5896530000000  0.4692570000000 1.0
C      1  0.4597740000000  0.4085560000000  0.4867670000000 1.0
C      1  0.4690100000000  0.4047920000000  0.5405280000000 1.0
C      1  0.5194350000000  0.4177520000000  0.5276870000000 1.0
C      1  0.5229980000000  0.4154350000000  0.4750050000000 1.0
C      1  0.4246690000000  0.4851200000000  0.5529190000000 1.0
C      1  0.5541530000000  0.4904580000000  0.5755910000000 1.0
C      1  0.5777000000000  0.4852300000000  0.4388640000000 1.0
C      1  0.4414000000000  0.4855200000000  0.4171750000000 1.0
C      1  0.4247440000000  0.5139680000000  0.5572940000000 1.0
C      1  0.5528320000000  0.5202700000000  0.5764850000000 1.0
C      1  0.5774230000000  0.5143480000000  0.4426410000000 1.0
C      1  0.4493230000000  0.5139020000000  0.4216950000000 1.0
END
