TITL C-2782240-8521-1394 2.87538852066407e-07 125000 -37.3695019315439 0 0 7 (D(inf)h) n - 1
REM
REM in /home/nfs/bkarasulu/CARBON/AIRSS/Generating-Clusters/REBO/Higher-Symm/SD-CG/HFTN-CG
REM
REM
REM
REM
REM
REM ./C.cell (12c818d87b63d06a65506943cc24bca4)
REM
REM compiler GCC version 9.2.1 20190827 (Red Hat 9.2.1-1)
REM options -cpp -mtune=generic -march=x86-64 -g -O0 -fpre-include=/usr/include/finclude/math-vector-fortran.h
REM seed -729490403 -229598590 -1636202203 -583151605 -2097034399 2062461877 -301123451 710856783 398271924 369951118 398937219 1383952517 1432919944 -1498406671 77204899 -1793673955 -605759838 1170220326 -1813026963 1478942076 -236569829 462982476 1006916017 -1583858606 386733806 -1885217623 -2038454744 -1952436081 783616981 1681478594 -1278165557 148962384 -753127431
REM
CELL 1.54180   50.00000   50.00000   50.00000   90.00000   90.00000   90.00000
LATT -1
SFAC C  
C      1  0.4467380000000  0.4984390000000  0.4996270000000 1.0
C      1  0.5794690000000  0.4984390000000  0.4996270000000 1.0
C      1  0.5266310000000  0.4984390000000  0.4996270000000 1.0
C      1  0.4205310000000  0.4984390000000  0.4996270000000 1.0
C      1  0.5000000000000  0.4984390000000  0.4996270000000 1.0
C      1  0.4733690000000  0.4984390000000  0.4996270000000 1.0
C      1  0.5532620000000  0.4984390000000  0.4996270000000 1.0
END
