TITL C-2782232-2968-87 -0.00087037612154761 125000 -786.536888694524 0 0 135 (C1) n - 1
REM
REM in /home/nfs/bkarasulu/CARBON/AIRSS/Generating-Clusters/REBO/Higher-Symm/SD-CG/HFTN-CG
REM
REM
REM
REM
REM
REM ./C.cell (12c818d87b63d06a65506943cc24bca4)
REM
REM compiler GCC version 9.2.1 20190827 (Red Hat 9.2.1-1)
REM options -cpp -mtune=generic -march=x86-64 -g -O0 -fpre-include=/usr/include/finclude/math-vector-fortran.h
REM seed -592022818 850355701 1727058735 -1159196009 61161803 1246095653 -477293172 2138766510 -1898777584 -1822173370 1542176493 -51659722 -1550942770 -57425167 1127556313 -2055124002 2142192713 -1949882374 1891663932 -718712174 860403006 -716701327 432502177 176494468 1815019413 -347894550 710235127 -1906192398 1362705832 1778697835 -1888842713 1341205015 -1853518197
REM
CELL 1.54180   50.00000   50.00000   50.00000   90.00000   90.00000   90.00000
LATT -1
SFAC C  
C      1  0.4860620000000  0.5823970000000  0.5032580000000 1.0
C      1  0.4463800000000  0.4981580000000  0.5359230000000 1.0
C      1  0.5415000000000  0.5093070000000  0.4532270000000 1.0
C      1  0.5277590000000  0.4798380000000  0.5883700000000 1.0
C      1  0.4354700000000  0.5916810000000  0.4947180000000 1.0
C      1  0.4763410000000  0.4107530000000  0.5266850000000 1.0
C      1  0.4958010000000  0.4901740000000  0.4931290000000 1.0
C      1  0.5115790000000  0.4989610000000  0.5400430000000 1.0
C      1  0.4066290000000  0.5488570000000  0.5882410000000 1.0
C      1  0.4971480000000  0.4845340000000  0.4537940000000 1.0
C      1  0.4684420000000  0.5353980000000  0.4618020000000 1.0
C      1  0.5045670000000  0.4577260000000  0.5830740000000 1.0
C      1  0.5858450000000  0.4767690000000  0.4659100000000 1.0
C      1  0.5057420000000  0.4258530000000  0.4428730000000 1.0
C      1  0.5818110000000  0.5251400000000  0.4460000000000 1.0
C      1  0.4746080000000  0.5033430000000  0.4619180000000 1.0
C      1  0.4073180000000  0.4800470000000  0.4542220000000 1.0
C      1  0.4052910000000  0.5400860000000  0.4915180000000 1.0
C      1  0.5418150000000  0.5390760000000  0.5422580000000 1.0
C      1  0.5731010000000  0.4497300000000  0.5219350000000 1.0
C      1  0.4904540000000  0.5537540000000  0.4758780000000 1.0
C      1  0.5415790000000  0.5538810000000  0.4810450000000 1.0
C      1  0.5391920000000  0.6072520000000  0.4888270000000 1.0
C      1  0.4740860000000  0.4950860000000  0.5518630000000 1.0
C      1  0.5346220000000  0.4069590000000  0.5201930000000 1.0
C      1  0.4904290000000  0.5722280000000  0.4302720000000 1.0
C      1  0.4591210000000  0.4384040000000  0.5770400000000 1.0
C      1  0.4533300000000  0.4316450000000  0.5343130000000 1.0
C      1  0.4805540000000  0.5702210000000  0.5753620000000 1.0
C      1  0.4562850000000  0.5287260000000  0.5565100000000 1.0
C      1  0.4633660000000  0.4500820000000  0.4587090000000 1.0
C      1  0.4552670000000  0.5002130000000  0.4271790000000 1.0
C      1  0.5369790000000  0.5264270000000  0.5698700000000 1.0
C      1  0.4609380000000  0.4934960000000  0.5893390000000 1.0
C      1  0.4951700000000  0.5205380000000  0.5587030000000 1.0
C      1  0.5337050000000  0.4411610000000  0.5219840000000 1.0
C      1  0.5158810000000  0.5108900000000  0.5909310000000 1.0
C      1  0.4454030000000  0.4768060000000  0.5123520000000 1.0
C      1  0.4839050000000  0.5141190000000  0.5904140000000 1.0
C      1  0.5541410000000  0.5832880000000  0.5325480000000 1.0
C      1  0.5277250000000  0.5008360000000  0.5144940000000 1.0
C      1  0.4383090000000  0.4887550000000  0.5677280000000 1.0
C      1  0.4256780000000  0.4486890000000  0.5444570000000 1.0
C      1  0.4608870000000  0.4170570000000  0.4581510000000 1.0
C      1  0.4346020000000  0.4289980000000  0.4762720000000 1.0
C      1  0.5359890000000  0.4038020000000  0.4724580000000 1.0
C      1  0.4760490000000  0.4264920000000  0.4290680000000 1.0
C      1  0.5094500000000  0.5196830000000  0.4958010000000 1.0
C      1  0.5085940000000  0.4180570000000  0.4700280000000 1.0
C      1  0.5137360000000  0.4435930000000  0.4875190000000 1.0
C      1  0.5592350000000  0.4226000000000  0.5371930000000 1.0
C      1  0.4636610000000  0.5568920000000  0.4285490000000 1.0
C      1  0.5530940000000  0.4893800000000  0.4297770000000 1.0
C      1  0.5144600000000  0.5640330000000  0.4983320000000 1.0
C      1  0.5045140000000  0.4304750000000  0.4102650000000 1.0
C      1  0.4598550000000  0.5684900000000  0.5005230000000 1.0
C      1  0.4298050000000  0.5601360000000  0.4857520000000 1.0
C      1  0.4952130000000  0.3824840000000  0.4955890000000 1.0
C      1  0.5348020000000  0.4512550000000  0.5710780000000 1.0
C      1  0.5562560000000  0.5729390000000  0.4603110000000 1.0
C      1  0.5969560000000  0.4885910000000  0.4903390000000 1.0
C      1  0.4257530000000  0.5518930000000  0.5379280000000 1.0
C      1  0.4705210000000  0.4790740000000  0.4164080000000 1.0
C      1  0.5507830000000  0.4132420000000  0.4933920000000 1.0
C      1  0.5600450000000  0.4590020000000  0.5521210000000 1.0
C      1  0.4439660000000  0.5640320000000  0.4485560000000 1.0
C      1  0.5043010000000  0.4175940000000  0.5439910000000 1.0
C      1  0.5911390000000  0.5366860000000  0.4706190000000 1.0
C      1  0.5126850000000  0.5126170000000  0.4146780000000 1.0
C      1  0.4846070000000  0.4324120000000  0.5862170000000 1.0
C      1  0.5668530000000  0.5423090000000  0.4290680000000 1.0
C      1  0.5165070000000  0.5533320000000  0.5305940000000 1.0
C      1  0.4997690000000  0.4836410000000  0.4231060000000 1.0
C      1  0.4445630000000  0.4675740000000  0.4794140000000 1.0
C      1  0.5539610000000  0.4450190000000  0.4447720000000 1.0
C      1  0.5161910000000  0.5609260000000  0.4266160000000 1.0
C      1  0.5094460000000  0.4491010000000  0.5376370000000 1.0
C      1  0.5782850000000  0.4961010000000  0.4450440000000 1.0
C      1  0.5174100000000  0.5361920000000  0.4701270000000 1.0
C      1  0.4122960000000  0.4870920000000  0.4926700000000 1.0
C      1  0.4901680000000  0.4587190000000  0.4683620000000 1.0
C      1  0.5456810000000  0.5579990000000  0.4224510000000 1.0
C      1  0.4208110000000  0.5081920000000  0.4664940000000 1.0
C      1  0.4135550000000  0.5169180000000  0.5047780000000 1.0
C      1  0.5664910000000  0.4863870000000  0.5566270000000 1.0
C      1  0.4361250000000  0.5253130000000  0.5243110000000 1.0
C      1  0.5321960000000  0.4385390000000  0.4283650000000 1.0
C      1  0.4144620000000  0.4566790000000  0.4752800000000 1.0
C      1  0.5675600000000  0.5531590000000  0.5264840000000 1.0
C      1  0.4344710000000  0.5361970000000  0.4645930000000 1.0
C      1  0.4672870000000  0.4563680000000  0.5187260000000 1.0
C      1  0.4636080000000  0.5599480000000  0.5477980000000 1.0
C      1  0.5301650000000  0.4706980000000  0.4981520000000 1.0
C      1  0.5067130000000  0.5938800000000  0.5278470000000 1.0
C      1  0.4907290000000  0.4613460000000  0.5024320000000 1.0
C      1  0.5606630000000  0.5365680000000  0.4973940000000 1.0
C      1  0.4151990000000  0.4620170000000  0.5148680000000 1.0
C      1  0.5571160000000  0.4863470000000  0.4918580000000 1.0
C      1  0.4609400000000  0.4542960000000  0.4259410000000 1.0
C      1  0.4700000000000  0.5410790000000  0.5820280000000 1.0
C      1  0.5535640000000  0.5162170000000  0.5213080000000 1.0
C      1  0.5496790000000  0.4993200000000  0.5746320000000 1.0
C      1  0.5227080000000  0.4911490000000  0.4714390000000 1.0
C      1  0.5808780000000  0.5635030000000  0.4760270000000 1.0
C      1  0.5661500000000  0.4371300000000  0.4927040000000 1.0
C      1  0.5209180000000  0.5311190000000  0.4385930000000 1.0
C      1  0.5314820000000  0.4866310000000  0.4119370000000 1.0
C      1  0.4652410000000  0.5264910000000  0.4284770000000 1.0
C      1  0.4977050000000  0.4724040000000  0.5419930000000 1.0
C      1  0.5752020000000  0.4982100000000  0.5325960000000 1.0
C      1  0.4324120000000  0.4356900000000  0.5078620000000 1.0
C      1  0.5605630000000  0.5993360000000  0.5072540000000 1.0
C      1  0.4738940000000  0.4686030000000  0.5734600000000 1.0
C      1  0.5877740000000  0.4785220000000  0.5157830000000 1.0
C      1  0.5124480000000  0.6038820000000  0.4982330000000 1.0
C      1  0.4273150000000  0.5745470000000  0.5229310000000 1.0
C      1  0.5457040000000  0.5993430000000  0.4619300000000 1.0
C      1  0.4457280000000  0.4905800000000  0.4566780000000 1.0
C      1  0.4589380000000  0.4167360000000  0.4978490000000 1.0
C      1  0.4954380000000  0.5496020000000  0.5524910000000 1.0
C      1  0.4616760000000  0.5374570000000  0.5091060000000 1.0
C      1  0.5588650000000  0.5106150000000  0.4790380000000 1.0
C      1  0.5700780000000  0.4519410000000  0.4678340000000 1.0
C      1  0.4800280000000  0.5779230000000  0.4587690000000 1.0
C      1  0.4519600000000  0.5868750000000  0.4659470000000 1.0
C      1  0.5328310000000  0.4235230000000  0.5575950000000 1.0
C      1  0.4159250000000  0.5503330000000  0.5637830000000 1.0
C      1  0.5289250000000  0.5888340000000  0.5440930000000 1.0
C      1  0.4826050000000  0.4028960000000  0.4787890000000 1.0
C      1  0.6022380000000  0.5169750000000  0.4882210000000 1.0
C      1  0.4242610000000  0.4640790000000  0.5668710000000 1.0
C      1  0.5786550000000  0.5740190000000  0.5026640000000 1.0
C      1  0.4927690000000  0.5357620000000  0.5153590000000 1.0
C      1  0.5053820000000  0.3937130000000  0.5206460000000 1.0
C      1  0.4705540000000  0.5113060000000  0.4934490000000 1.0
END
