TITL C-2782228-2999-1178 -0.00369794184675531 125000 -1090.2483394274 0 0 187 (C1) n - 1
REM
REM in /home/nfs/bkarasulu/CARBON/AIRSS/Generating-Clusters/REBO/Higher-Symm/SD-CG/HFTN-CG
REM
REM
REM
REM
REM
REM ./C.cell (12c818d87b63d06a65506943cc24bca4)
REM
REM compiler GCC version 9.2.1 20190827 (Red Hat 9.2.1-1)
REM options -cpp -mtune=generic -march=x86-64 -g -O0 -fpre-include=/usr/include/finclude/math-vector-fortran.h
REM seed 477713425 -1120272150 1211067174 -1988891280 1817391479 522521211 630172971 581671977 1007568089 -243013380 -1807970715 -1225475507 810097988 -1513323452 1401420030 254421184 1502834607 1307935717 615028571 -1030348027 -942291715 -879444925 1548474036 1138503582 259554550 -328546398 1265194675 -1668618129 1455050702 1071164563 -1221533438 -1746575194 1704707894
REM
CELL 1.54180   50.00000   50.00000   50.00000   90.00000   90.00000   90.00000
LATT -1
SFAC C  
C      1  0.5807970000000  0.5197230000000  0.4226540000000 1.0
C      1  0.4222270000000  0.5798020000000  0.5175920000000 1.0
C      1  0.5156570000000  0.4199680000000  0.5839130000000 1.0
C      1  0.4170960000000  0.4832500000000  0.4219820000000 1.0
C      1  0.4229040000000  0.5187490000000  0.5776510000000 1.0
C      1  0.5751020000000  0.4836480000000  0.5769450000000 1.0
C      1  0.5799170000000  0.4211720000000  0.5189810000000 1.0
C      1  0.5755460000000  0.5830040000000  0.4843040000000 1.0
C      1  0.4271770000000  0.4202690000000  0.4825260000000 1.0
C      1  0.4841980000000  0.5780560000000  0.5809550000000 1.0
C      1  0.4850150000000  0.4233360000000  0.4209930000000 1.0
C      1  0.5172950000000  0.5777370000000  0.4171250000000 1.0
C      1  0.5764000000000  0.5173260000000  0.5755060000000 1.0
C      1  0.4231170000000  0.5784250000000  0.4835040000000 1.0
C      1  0.5190210000000  0.4237100000000  0.4201040000000 1.0
C      1  0.4209780000000  0.4847850000000  0.5772060000000 1.0
C      1  0.4216850000000  0.5169900000000  0.4215670000000 1.0
C      1  0.5813040000000  0.4856960000000  0.4247030000000 1.0
C      1  0.5800170000000  0.4200080000000  0.4849500000000 1.0
C      1  0.5789280000000  0.5825700000000  0.5183080000000 1.0
C      1  0.4265330000000  0.4198040000000  0.5165590000000 1.0
C      1  0.4833030000000  0.5764410000000  0.4175030000000 1.0
C      1  0.4818630000000  0.4204910000000  0.5809700000000 1.0
C      1  0.5178180000000  0.5787090000000  0.5811280000000 1.0
C      1  0.5685080000000  0.4502760000000  0.5761120000000 1.0
C      1  0.5718200000000  0.5755230000000  0.4510680000000 1.0
C      1  0.4512170000000  0.5773120000000  0.5722540000000 1.0
C      1  0.4290820000000  0.5521440000000  0.5749470000000 1.0
C      1  0.4274040000000  0.4506280000000  0.4227680000000 1.0
C      1  0.5750110000000  0.5532900000000  0.4254230000000 1.0
C      1  0.4268210000000  0.4300870000000  0.4497920000000 1.0
C      1  0.4242060000000  0.5766340000000  0.5516100000000 1.0
C      1  0.5747100000000  0.4271390000000  0.5521820000000 1.0
C      1  0.5476620000000  0.4238590000000  0.5725930000000 1.0
C      1  0.5507010000000  0.5769740000000  0.4242170000000 1.0
C      1  0.4516850000000  0.4272090000000  0.4271630000000 1.0
C      1  0.5753620000000  0.4523020000000  0.4288310000000 1.0
C      1  0.5776190000000  0.5774030000000  0.5520530000000 1.0
C      1  0.4498820000000  0.5764000000000  0.4246030000000 1.0
C      1  0.4290440000000  0.5502390000000  0.4229160000000 1.0
C      1  0.4299150000000  0.4518190000000  0.5752790000000 1.0
C      1  0.5699330000000  0.5505580000000  0.5717400000000 1.0
C      1  0.4278320000000  0.4299410000000  0.5492360000000 1.0
C      1  0.4293520000000  0.5694570000000  0.4510270000000 1.0
C      1  0.5761510000000  0.4268710000000  0.4516570000000 1.0
C      1  0.5521340000000  0.4274520000000  0.4275660000000 1.0
C      1  0.5508430000000  0.5781200000000  0.5725700000000 1.0
C      1  0.4489210000000  0.4247280000000  0.5743050000000 1.0
C      1  0.5177170000000  0.4849820000000  0.6180660000000 1.0
C      1  0.6201730000000  0.5167690000000  0.4853390000000 1.0
C      1  0.4833120000000  0.6215790000000  0.5156430000000 1.0
C      1  0.4929700000000  0.5144030000000  0.6281710000000 1.0
C      1  0.4871560000000  0.4809470000000  0.3713250000000 1.0
C      1  0.5222960000000  0.5142800000000  0.3737380000000 1.0
C      1  0.3840980000000  0.4880540000000  0.4869160000000 1.0
C      1  0.3775880000000  0.5163170000000  0.5139660000000 1.0
C      1  0.6215910000000  0.4876940000000  0.5122850000000 1.0
C      1  0.5202300000000  0.3797870000000  0.5141910000000 1.0
C      1  0.5177960000000  0.6189770000000  0.4817330000000 1.0
C      1  0.4886340000000  0.3775670000000  0.4783050000000 1.0
C      1  0.5187120000000  0.4833980000000  0.3753160000000 1.0
C      1  0.6226000000000  0.5189700000000  0.5161190000000 1.0
C      1  0.4869710000000  0.6178270000000  0.4842790000000 1.0
C      1  0.4910610000000  0.5115690000000  0.3709730000000 1.0
C      1  0.4881570000000  0.4833790000000  0.6295420000000 1.0
C      1  0.5229970000000  0.5148950000000  0.6170610000000 1.0
C      1  0.3769880000000  0.4848680000000  0.5166020000000 1.0
C      1  0.3808960000000  0.5195730000000  0.4833530000000 1.0
C      1  0.6190360000000  0.4851600000000  0.4816110000000 1.0
C      1  0.5181950000000  0.3841690000000  0.4833020000000 1.0
C      1  0.5138000000000  0.6206740000000  0.5132340000000 1.0
C      1  0.4906030000000  0.3729520000000  0.5096750000000 1.0
C      1  0.4829550000000  0.4765820000000  0.4233440000000 1.0
C      1  0.4364730000000  0.4820350000000  0.4971340000000 1.0
C      1  0.4824400000000  0.4269710000000  0.4900230000000 1.0
C      1  0.5173600000000  0.5104810000000  0.4236120000000 1.0
C      1  0.5074220000000  0.4717070000000  0.5582030000000 1.0
C      1  0.4863360000000  0.5155840000000  0.5777740000000 1.0
C      1  0.5705680000000  0.5149480000000  0.4839650000000 1.0
C      1  0.5718970000000  0.4845930000000  0.5091210000000 1.0
C      1  0.4290420000000  0.5130410000000  0.5211380000000 1.0
C      1  0.5220530000000  0.5657770000000  0.4855920000000 1.0
C      1  0.5117720000000  0.4320850000000  0.5164320000000 1.0
C      1  0.4789010000000  0.5684370000000  0.5115890000000 1.0
C      1  0.4854800000000  0.4814420000000  0.5785510000000 1.0
C      1  0.4304520000000  0.4830430000000  0.5294030000000 1.0
C      1  0.4810650000000  0.4216820000000  0.5196400000000 1.0
C      1  0.5140700000000  0.5050340000000  0.5652730000000 1.0
C      1  0.5120230000000  0.4790620000000  0.4256920000000 1.0
C      1  0.4869990000000  0.5096210000000  0.4200360000000 1.0
C      1  0.5704660000000  0.5159490000000  0.5169750000000 1.0
C      1  0.5633460000000  0.4875630000000  0.4750210000000 1.0
C      1  0.4310370000000  0.5113040000000  0.4889780000000 1.0
C      1  0.5116840000000  0.5686840000000  0.5146760000000 1.0
C      1  0.5142070000000  0.4372460000000  0.4860920000000 1.0
C      1  0.4897640000000  0.5644120000000  0.4817100000000 1.0
C      1  0.5167820000000  0.5467430000000  0.4582510000000 1.0
C      1  0.4626030000000  0.5254720000000  0.5569400000000 1.0
C      1  0.5497970000000  0.4652610000000  0.5223830000000 1.0
C      1  0.4818790000000  0.4523610000000  0.4685170000000 1.0
C      1  0.4864240000000  0.5480690000000  0.5376380000000 1.0
C      1  0.5002370000000  0.4448720000000  0.5458360000000 1.0
C      1  0.5359040000000  0.4793970000000  0.5442580000000 1.0
C      1  0.5327030000000  0.5206980000000  0.4492220000000 1.0
C      1  0.4568210000000  0.4916820000000  0.4383690000000 1.0
C      1  0.4509270000000  0.5356690000000  0.5308490000000 1.0
C      1  0.4559360000000  0.4567330000000  0.4903160000000 1.0
C      1  0.5472880000000  0.5354940000000  0.4910380000000 1.0
C      1  0.5205820000000  0.5465410000000  0.5373530000000 1.0
C      1  0.4693920000000  0.5234920000000  0.4429900000000 1.0
C      1  0.5463070000000  0.4623830000000  0.4886210000000 1.0
C      1  0.4669120000000  0.4391760000000  0.5416320000000 1.0
C      1  0.4834320000000  0.5459120000000  0.4553100000000 1.0
C      1  0.5145630000000  0.4594420000000  0.4602930000000 1.0
C      1  0.5335710000000  0.4863760000000  0.4510290000000 1.0
C      1  0.5357980000000  0.5119310000000  0.5423190000000 1.0
C      1  0.4576740000000  0.4922710000000  0.5633410000000 1.0
C      1  0.4527480000000  0.5345340000000  0.4972810000000 1.0
C      1  0.4465910000000  0.4537170000000  0.5231070000000 1.0
C      1  0.5493320000000  0.5415110000000  0.5224090000000 1.0
C      1  0.4267610000000  0.4520330000000  0.4733690000000 1.0
C      1  0.4735450000000  0.4246970000000  0.4514530000000 1.0
C      1  0.4461100000000  0.4745980000000  0.4104140000000 1.0
C      1  0.5715260000000  0.5529240000000  0.4743400000000 1.0
C      1  0.5783930000000  0.4518450000000  0.5306080000000 1.0
C      1  0.4212830000000  0.5502950000000  0.5324640000000 1.0
C      1  0.5284430000000  0.5763170000000  0.4480280000000 1.0
C      1  0.5225720000000  0.4197750000000  0.5522820000000 1.0
C      1  0.4745600000000  0.5775250000000  0.5498430000000 1.0
C      1  0.5506230000000  0.5316930000000  0.4224040000000 1.0
C      1  0.5436830000000  0.4718300000000  0.5749680000000 1.0
C      1  0.4520140000000  0.5319920000000  0.5892100000000 1.0
C      1  0.4125400000000  0.4479730000000  0.5269810000000 1.0
C      1  0.4674100000000  0.4064670000000  0.5534950000000 1.0
C      1  0.4486680000000  0.4737930000000  0.5907150000000 1.0
C      1  0.5789630000000  0.5519360000000  0.5313550000000 1.0
C      1  0.5748450000000  0.4499530000000  0.4746820000000 1.0
C      1  0.4301570000000  0.5483450000000  0.4757480000000 1.0
C      1  0.5274700000000  0.5769980000000  0.5501170000000 1.0
C      1  0.5290470000000  0.4304460000000  0.4502180000000 1.0
C      1  0.4716030000000  0.5768110000000  0.4488960000000 1.0
C      1  0.5463870000000  0.5279360000000  0.5686480000000 1.0
C      1  0.5510650000000  0.4741800000000  0.4243050000000 1.0
C      1  0.4522370000000  0.5281280000000  0.4144220000000 1.0
C      1  0.4759840000000  0.4671630000000  0.6062110000000 1.0
C      1  0.5936640000000  0.4753680000000  0.4660370000000 1.0
C      1  0.4714140000000  0.5924900000000  0.4771640000000 1.0
C      1  0.5225210000000  0.5276480000000  0.5896040000000 1.0
C      1  0.5279510000000  0.4669960000000  0.4003540000000 1.0
C      1  0.4791190000000  0.5278080000000  0.3944340000000 1.0
C      1  0.4085580000000  0.5240150000000  0.4706540000000 1.0
C      1  0.3984180000000  0.4750390000000  0.5358010000000 1.0
C      1  0.5978650000000  0.5258700000000  0.5327030000000 1.0
C      1  0.5323320000000  0.4113980000000  0.4765460000000 1.0
C      1  0.5274980000000  0.5961020000000  0.5248310000000 1.0
C      1  0.4708550000000  0.3913440000000  0.5240700000000 1.0
C      1  0.4741130000000  0.4649060000000  0.3941810000000 1.0
C      1  0.5976970000000  0.4776600000000  0.5286000000000 1.0
C      1  0.4677780000000  0.5968850000000  0.5247520000000 1.0
C      1  0.5268790000000  0.5300860000000  0.3995300000000 1.0
C      1  0.5221750000000  0.4679150000000  0.5959200000000 1.0
C      1  0.4798680000000  0.5309970000000  0.6055430000000 1.0
C      1  0.4003250000000  0.5259970000000  0.5315350000000 1.0
C      1  0.4109620000000  0.4799460000000  0.4744400000000 1.0
C      1  0.5957670000000  0.5292090000000  0.4710700000000 1.0
C      1  0.5311560000000  0.4067640000000  0.5245460000000 1.0
C      1  0.5350120000000  0.5940260000000  0.4743560000000 1.0
C      1  0.4705830000000  0.4014220000000  0.4734750000000 1.0
C      1  0.5905140000000  0.5053960000000  0.4503620000000 1.0
C      1  0.4484020000000  0.5910300000000  0.4991820000000 1.0
C      1  0.4986140000000  0.4467810000000  0.5935250000000 1.0
C      1  0.4059650000000  0.5029320000000  0.5537450000000 1.0
C      1  0.5534070000000  0.4105710000000  0.5021110000000 1.0
C      1  0.4508310000000  0.4038710000000  0.5005450000000 1.0
C      1  0.5012870000000  0.5516160000000  0.4027540000000 1.0
C      1  0.5509440000000  0.5932620000000  0.5043420000000 1.0
C      1  0.4143850000000  0.5002250000000  0.4497430000000 1.0
C      1  0.5008650000000  0.4468050000000  0.4037690000000 1.0
C      1  0.5918170000000  0.4989840000000  0.5519710000000 1.0
C      1  0.5018830000000  0.5515410000000  0.5917420000000 1.0
C      1  0.5227440000000  0.5209660000000  0.4878670000000 1.0
C      1  0.5200910000000  0.4754040000000  0.4961510000000 1.0
C      1  0.4799970000000  0.4870860000000  0.5138200000000 1.0
C      1  0.4788790000000  0.5271040000000  0.4901510000000 1.0
C      1  0.4698240000000  0.4838410000000  0.5354010000000 1.0
C      1  0.4800190000000  0.4896650000000  0.4609870000000 1.0
C      1  0.4969610000000  0.4990880000000  0.4882990000000 1.0
END
