TITL C-2782228-2999-1375 -0.00184817099246893 125000 -991.582156698155 0 0 173 (C1) n - 1
REM
REM in /home/nfs/bkarasulu/CARBON/AIRSS/Generating-Clusters/REBO/Higher-Symm/SD-CG/HFTN-CG
REM
REM
REM
REM
REM
REM ./C.cell (12c818d87b63d06a65506943cc24bca4)
REM
REM compiler GCC version 9.2.1 20190827 (Red Hat 9.2.1-1)
REM options -cpp -mtune=generic -march=x86-64 -g -O0 -fpre-include=/usr/include/finclude/math-vector-fortran.h
REM seed 964026957 1974795621 1717030419 568690721 847629038 348920706 -1413694982 -1294508476 -107997937 1367314901 -120257902 633540450 -1549163529 -1476640494 -520229559 -1639301827 78115511 -973631858 -1467065541 1466280981 1256264335 802696610 -1932909205 1484507047 -897587005 359834216 -1571381772 -1202855354 463623457 -1061115390 -1700691668 -1415474933 -1862034193
REM
CELL 1.54180   50.00000   50.00000   50.00000   90.00000   90.00000   90.00000
LATT -1
SFAC C  
C      1  0.5188300000000  0.4217210000000  0.4305250000000 1.0
C      1  0.5137910000000  0.4247010000000  0.5503700000000 1.0
C      1  0.5082230000000  0.5127310000000  0.5854910000000 1.0
C      1  0.5007200000000  0.5828430000000  0.5137470000000 1.0
C      1  0.5093000000000  0.5245280000000  0.4168020000000 1.0
C      1  0.5738430000000  0.4865070000000  0.4323020000000 1.0
C      1  0.5791270000000  0.4254650000000  0.4944930000000 1.0
C      1  0.5732340000000  0.4759180000000  0.5713090000000 1.0
C      1  0.5734730000000  0.5559240000000  0.5452130000000 1.0
C      1  0.5615830000000  0.5734090000000  0.4679540000000 1.0
C      1  0.5882530000000  0.5238840000000  0.4694830000000 1.0
C      1  0.5936970000000  0.4727070000000  0.4817960000000 1.0
C      1  0.5946670000000  0.4585260000000  0.5280760000000 1.0
C      1  0.5911430000000  0.5093700000000  0.5305700000000 1.0
C      1  0.5873330000000  0.5483610000000  0.5009690000000 1.0
C      1  0.4047190000000  0.4595920000000  0.5201590000000 1.0
C      1  0.4456110000000  0.5054350000000  0.5445380000000 1.0
C      1  0.4469190000000  0.5356730000000  0.5084940000000 1.0
C      1  0.3978950000000  0.5185130000000  0.4438280000000 1.0
C      1  0.4164420000000  0.4731800000000  0.4720050000000 1.0
C      1  0.5387020000000  0.5196820000000  0.4037300000000 1.0
C      1  0.5405360000000  0.4130140000000  0.4521340000000 1.0
C      1  0.5382680000000  0.4243280000000  0.5726060000000 1.0
C      1  0.5382510000000  0.5420600000000  0.5894000000000 1.0
C      1  0.5224870000000  0.5947340000000  0.4905930000000 1.0
C      1  0.4291930000000  0.4520650000000  0.5597870000000 1.0
C      1  0.4285580000000  0.5452250000000  0.5635190000000 1.0
C      1  0.4270990000000  0.5626790000000  0.4668120000000 1.0
C      1  0.4323300000000  0.4898950000000  0.4207900000000 1.0
C      1  0.4342610000000  0.4275520000000  0.4733000000000 1.0
C      1  0.4286510000000  0.4635920000000  0.4421690000000 1.0
C      1  0.4165510000000  0.4301940000000  0.5184700000000 1.0
C      1  0.4173090000000  0.4983920000000  0.5536490000000 1.0
C      1  0.4202610000000  0.5511850000000  0.5149720000000 1.0
C      1  0.4138240000000  0.5351520000000  0.4217030000000 1.0
C      1  0.5064790000000  0.6111480000000  0.4652070000000 1.0
C      1  0.5180140000000  0.4964820000000  0.3897190000000 1.0
C      1  0.5236840000000  0.3926640000000  0.4736110000000 1.0
C      1  0.5136230000000  0.4352500000000  0.5934480000000 1.0
C      1  0.5191430000000  0.5599520000000  0.5935510000000 1.0
C      1  0.4596280000000  0.4750040000000  0.4196490000000 1.0
C      1  0.4585850000000  0.4218580000000  0.4873450000000 1.0
C      1  0.4528510000000  0.4645590000000  0.5700490000000 1.0
C      1  0.4568350000000  0.5562710000000  0.5578480000000 1.0
C      1  0.4551710000000  0.5589140000000  0.4626860000000 1.0
C      1  0.5365090000000  0.4879560000000  0.6134230000000 1.0
C      1  0.5139620000000  0.5939190000000  0.5584240000000 1.0
C      1  0.5161650000000  0.5710790000000  0.4242960000000 1.0
C      1  0.5365200000000  0.4528730000000  0.3982330000000 1.0
C      1  0.5295800000000  0.3943620000000  0.5172510000000 1.0
C      1  0.5122490000000  0.4526210000000  0.4864520000000 1.0
C      1  0.5080880000000  0.4661930000000  0.5388970000000 1.0
C      1  0.5013410000000  0.5203120000000  0.5362800000000 1.0
C      1  0.5159310000000  0.5340730000000  0.4935530000000 1.0
C      1  0.5101850000000  0.4960160000000  0.4638980000000 1.0
C      1  0.5542230000000  0.5466720000000  0.4963910000000 1.0
C      1  0.5604170000000  0.5149910000000  0.4565820000000 1.0
C      1  0.5639240000000  0.4594380000000  0.4804640000000 1.0
C      1  0.5636140000000  0.4623670000000  0.5352860000000 1.0
C      1  0.5614260000000  0.5182300000000  0.5411330000000 1.0
C      1  0.4921460000000  0.4900810000000  0.5488520000000 1.0
C      1  0.4867420000000  0.5360270000000  0.5112400000000 1.0
C      1  0.4802920000000  0.5124860000000  0.4624200000000 1.0
C      1  0.4877260000000  0.4603050000000  0.4635530000000 1.0
C      1  0.4938190000000  0.4521250000000  0.5136670000000 1.0
C      1  0.4768790000000  0.4833610000000  0.4462140000000 1.0
C      1  0.4733680000000  0.4464240000000  0.4892600000000 1.0
C      1  0.4622600000000  0.4842510000000  0.5510370000000 1.0
C      1  0.4558340000000  0.5318430000000  0.5376690000000 1.0
C      1  0.4686410000000  0.5361140000000  0.4821700000000 1.0
C      1  0.4425880000000  0.4375330000000  0.4436460000000 1.0
C      1  0.4348040000000  0.4256220000000  0.5423670000000 1.0
C      1  0.4302410000000  0.5166810000000  0.5794220000000 1.0
C      1  0.4244890000000  0.5758080000000  0.4947890000000 1.0
C      1  0.4379150000000  0.5197010000000  0.4118960000000 1.0
C      1  0.4824950000000  0.5586360000000  0.3915500000000 1.0
C      1  0.4890040000000  0.4361740000000  0.3962350000000 1.0
C      1  0.4917930000000  0.3796810000000  0.5452550000000 1.0
C      1  0.5184990000000  0.5302760000000  0.6317040000000 1.0
C      1  0.4908010000000  0.6300360000000  0.5321410000000 1.0
C      1  0.5216670000000  0.5109720000000  0.6123770000000 1.0
C      1  0.5012680000000  0.6048980000000  0.5357780000000 1.0
C      1  0.5010560000000  0.5527360000000  0.4111220000000 1.0
C      1  0.5158120000000  0.4351950000000  0.4027390000000 1.0
C      1  0.5110590000000  0.3975950000000  0.5370990000000 1.0
C      1  0.5242520000000  0.5674060000000  0.5545890000000 1.0
C      1  0.5387710000000  0.5676990000000  0.4481830000000 1.0
C      1  0.5497120000000  0.4667780000000  0.4248670000000 1.0
C      1  0.5517210000000  0.4170820000000  0.5075070000000 1.0
C      1  0.5416530000000  0.4763500000000  0.5839920000000 1.0
C      1  0.5640790000000  0.5368580000000  0.5687850000000 1.0
C      1  0.5487620000000  0.5801590000000  0.4987870000000 1.0
C      1  0.5649050000000  0.5163640000000  0.4228870000000 1.0
C      1  0.5659130000000  0.4295680000000  0.4654250000000 1.0
C      1  0.5634140000000  0.4443550000000  0.5642980000000 1.0
C      1  0.4699160000000  0.5118940000000  0.4024920000000 1.0
C      1  0.4708580000000  0.4187500000000  0.4495950000000 1.0
C      1  0.4647180000000  0.4279120000000  0.5596300000000 1.0
C      1  0.4609370000000  0.5299580000000  0.5875800000000 1.0
C      1  0.4558540000000  0.5892500000000  0.4885620000000 1.0
C      1  0.4964370000000  0.5746360000000  0.5886340000000 1.0
C      1  0.4838590000000  0.6020430000000  0.4480820000000 1.0
C      1  0.4932850000000  0.4852930000000  0.3814580000000 1.0
C      1  0.4973390000000  0.3842580000000  0.4767380000000 1.0
C      1  0.4876760000000  0.4379820000000  0.6024380000000 1.0
C      1  0.4661960000000  0.4525980000000  0.5925630000000 1.0
C      1  0.4741730000000  0.5730530000000  0.5723600000000 1.0
C      1  0.4685570000000  0.5790250000000  0.4475710000000 1.0
C      1  0.4730430000000  0.4727270000000  0.3956780000000 1.0
C      1  0.4742170000000  0.3978970000000  0.4836800000000 1.0
C      1  0.4814400000000  0.5372820000000  0.4423650000000 1.0
C      1  0.4953790000000  0.4458950000000  0.4353280000000 1.0
C      1  0.4849630000000  0.4205110000000  0.5173050000000 1.0
C      1  0.4854940000000  0.4904270000000  0.5824430000000 1.0
C      1  0.4757050000000  0.5634530000000  0.5233630000000 1.0
C      1  0.4078240000000  0.4904320000000  0.4439920000000 1.0
C      1  0.4150280000000  0.4480340000000  0.4895070000000 1.0
C      1  0.4113380000000  0.4709240000000  0.5461310000000 1.0
C      1  0.4114870000000  0.5487340000000  0.5407800000000 1.0
C      1  0.4093450000000  0.5483800000000  0.4509540000000 1.0
C      1  0.4640530000000  0.4129340000000  0.5326920000000 1.0
C      1  0.4579460000000  0.4991350000000  0.5894400000000 1.0
C      1  0.4510220000000  0.5758870000000  0.5164540000000 1.0
C      1  0.4655000000000  0.5370670000000  0.4205630000000 1.0
C      1  0.4671450000000  0.4358050000000  0.4202870000000 1.0
C      1  0.5249340000000  0.4852580000000  0.4184760000000 1.0
C      1  0.5250830000000  0.4233960000000  0.4871000000000 1.0
C      1  0.5185270000000  0.4588720000000  0.5705170000000 1.0
C      1  0.5071140000000  0.5445230000000  0.5586720000000 1.0
C      1  0.5113570000000  0.5774260000000  0.4633650000000 1.0
C      1  0.5258770000000  0.5092620000000  0.5570900000000 1.0
C      1  0.5213000000000  0.5570450000000  0.5163300000000 1.0
C      1  0.5217710000000  0.5193160000000  0.4473820000000 1.0
C      1  0.5262520000000  0.4706000000000  0.4647330000000 1.0
C      1  0.5296940000000  0.4433840000000  0.5277190000000 1.0
C      1  0.4845540000000  0.5841370000000  0.4837610000000 1.0
C      1  0.4929600000000  0.4966300000000  0.4207760000000 1.0
C      1  0.5027180000000  0.4235670000000  0.4608370000000 1.0
C      1  0.4896830000000  0.4407130000000  0.5625920000000 1.0
C      1  0.4874260000000  0.5365080000000  0.5814190000000 1.0
C      1  0.5959710000000  0.4483640000000  0.5018340000000 1.0
C      1  0.5953980000000  0.4832270000000  0.5469470000000 1.0
C      1  0.5912030000000  0.5415560000000  0.5275950000000 1.0
C      1  0.5840170000000  0.5556600000000  0.4713340000000 1.0
C      1  0.5940360000000  0.4934150000000  0.4577230000000 1.0
C      1  0.5495540000000  0.4569990000000  0.5066150000000 1.0
C      1  0.5520900000000  0.4897220000000  0.5480750000000 1.0
C      1  0.5433350000000  0.5315360000000  0.5221390000000 1.0
C      1  0.5393700000000  0.5338470000000  0.4713450000000 1.0
C      1  0.5556870000000  0.4831350000000  0.4611190000000 1.0
C      1  0.5426090000000  0.5405590000000  0.4315410000000 1.0
C      1  0.5436070000000  0.4473780000000  0.4482270000000 1.0
C      1  0.5523550000000  0.4221830000000  0.5411370000000 1.0
C      1  0.5479200000000  0.5100500000000  0.5822260000000 1.0
C      1  0.5491880000000  0.5696870000000  0.5315110000000 1.0
C      1  0.5019470000000  0.5031180000000  0.4945620000000 1.0
C      1  0.3788010000000  0.5265480000000  0.5049120000000 1.0
C      1  0.3575750000000  0.5408470000000  0.5122750000000 1.0
C      1  0.6517210000000  0.5113600000000  0.4982700000000 1.0
C      1  0.4725360000000  0.4961810000000  0.4984640000000 1.0
C      1  0.4472840000000  0.5061030000000  0.4975730000000 1.0
C      1  0.3151230000000  0.5694430000000  0.5270000000000 1.0
C      1  0.5587630000000  0.5005270000000  0.4997120000000 1.0
C      1  0.6255710000000  0.5078730000000  0.4975830000000 1.0
C      1  0.7044970000000  0.5183980000000  0.4996560000000 1.0
C      1  0.6781090000000  0.5148790000000  0.4989630000000 1.0
C      1  0.5926420000000  0.5034810000000  0.4967170000000 1.0
C      1  0.7304660000000  0.5218610000000  0.5003380000000 1.0
C      1  0.3363490000000  0.5551450000000  0.5196370000000 1.0
C      1  0.2942340000000  0.5835140000000  0.5342460000000 1.0
C      1  0.4000270000000  0.5122500000000  0.4975490000000 1.0
C      1  0.5345160000000  0.4993330000000  0.5001330000000 1.0
C      1  0.4222770000000  0.4972620000000  0.4898310000000 1.0
END
