TITL C-2782234-8014-583 0.0027198330226748 125000 -987.449330776421 0 0 175 (C1) n - 1
REM
REM in /home/nfs/bkarasulu/CARBON/AIRSS/Generating-Clusters/REBO/Higher-Symm/SD-CG/HFTN-CG
REM
REM
REM
REM
REM
REM ./C.cell (12c818d87b63d06a65506943cc24bca4)
REM
REM compiler GCC version 9.2.1 20190827 (Red Hat 9.2.1-1)
REM options -cpp -mtune=generic -march=x86-64 -g -O0 -fpre-include=/usr/include/finclude/math-vector-fortran.h
REM seed -1749247340 -1736150241 993536976 672010235 -2004146567 767082493 2129766600 -1020528553 -576684757 267299552 -2060563989 -1854240202 1976712789 -973929177 -728278551 406996300 632278575 -1871076839 916078841 -1161614504 -524490288 -1571505836 -418018217 1628825212 -1571997995 -1011758689 1571281579 -1475145493 1976064252 978015788 -1859674478 -384949975 1682736085
REM
CELL 1.54180   50.00000   50.00000   50.00000   90.00000   90.00000   90.00000
LATT -1
SFAC C  
C      1  0.5166830000000  0.4157450000000  0.4411550000000 1.0
C      1  0.4491700000000  0.4147140000000  0.4664420000000 1.0
C      1  0.4592480000000  0.4177440000000  0.5380440000000 1.0
C      1  0.5179500000000  0.4147530000000  0.5614520000000 1.0
C      1  0.5609460000000  0.4085450000000  0.4997420000000 1.0
C      1  0.4326080000000  0.5301300000000  0.5150880000000 1.0
C      1  0.4952710000000  0.5257620000000  0.5647350000000 1.0
C      1  0.5640430000000  0.5281720000000  0.5265650000000 1.0
C      1  0.5527110000000  0.5290860000000  0.4490560000000 1.0
C      1  0.4692300000000  0.5324730000000  0.4400750000000 1.0
C      1  0.5683920000000  0.4906400000000  0.5407990000000 1.0
C      1  0.5591980000000  0.4817610000000  0.4481400000000 1.0
C      1  0.4687150000000  0.4826680000000  0.4341570000000 1.0
C      1  0.4174830000000  0.4932690000000  0.5134540000000 1.0
C      1  0.4955730000000  0.4800880000000  0.5718270000000 1.0
C      1  0.5493100000000  0.5740230000000  0.5585130000000 1.0
C      1  0.5741570000000  0.5718540000000  0.4727520000000 1.0
C      1  0.4906510000000  0.5722200000000  0.4377750000000 1.0
C      1  0.4308660000000  0.5682460000000  0.4832910000000 1.0
C      1  0.4543190000000  0.5710820000000  0.5609970000000 1.0
C      1  0.5293280000000  0.5908470000000  0.4578670000000 1.0
C      1  0.4573540000000  0.5878000000000  0.4768990000000 1.0
C      1  0.4535040000000  0.5850540000000  0.5112630000000 1.0
C      1  0.5028490000000  0.5903410000000  0.5462830000000 1.0
C      1  0.5462360000000  0.5911750000000  0.5107650000000 1.0
C      1  0.4716040000000  0.5667190000000  0.5338970000000 1.0
C      1  0.5264270000000  0.5675660000000  0.5357960000000 1.0
C      1  0.5419350000000  0.5702380000000  0.4836740000000 1.0
C      1  0.5062130000000  0.5666620000000  0.4661630000000 1.0
C      1  0.4630340000000  0.5565000000000  0.4860820000000 1.0
C      1  0.4538450000000  0.4767850000000  0.5148590000000 1.0
C      1  0.5047630000000  0.4777990000000  0.5330180000000 1.0
C      1  0.5418720000000  0.4788330000000  0.5135960000000 1.0
C      1  0.5241300000000  0.4853420000000  0.4710850000000 1.0
C      1  0.4805000000000  0.4855010000000  0.4730680000000 1.0
C      1  0.4816060000000  0.5427360000000  0.4673710000000 1.0
C      1  0.4576640000000  0.5451670000000  0.5137230000000 1.0
C      1  0.4993660000000  0.5509110000000  0.5461440000000 1.0
C      1  0.5454190000000  0.5509770000000  0.5129880000000 1.0
C      1  0.5311490000000  0.5468150000000  0.4603820000000 1.0
C      1  0.4238540000000  0.4920700000000  0.4809250000000 1.0
C      1  0.4473520000000  0.5017950000000  0.5627680000000 1.0
C      1  0.5420780000000  0.4981670000000  0.5598220000000 1.0
C      1  0.5741240000000  0.4962100000000  0.4759060000000 1.0
C      1  0.4972330000000  0.4945540000000  0.4202010000000 1.0
C      1  0.4117340000000  0.5403360000000  0.5521260000000 1.0
C      1  0.5203270000000  0.5416990000000  0.5913110000000 1.0
C      1  0.5990210000000  0.5370130000000  0.5097670000000 1.0
C      1  0.5390700000000  0.5425110000000  0.4133250000000 1.0
C      1  0.4278110000000  0.5403140000000  0.4369340000000 1.0
C      1  0.5871280000000  0.5374230000000  0.5500650000000 1.0
C      1  0.5822060000000  0.5381520000000  0.4327760000000 1.0
C      1  0.4648520000000  0.5448290000000  0.4081480000000 1.0
C      1  0.3986820000000  0.5348740000000  0.5073980000000 1.0
C      1  0.4755190000000  0.5330760000000  0.5862560000000 1.0
C      1  0.5484400000000  0.4490860000000  0.5716910000000 1.0
C      1  0.5888290000000  0.4579230000000  0.4742760000000 1.0
C      1  0.5150240000000  0.4595130000000  0.4128400000000 1.0
C      1  0.4224190000000  0.4581630000000  0.4598950000000 1.0
C      1  0.4320070000000  0.4536680000000  0.5637890000000 1.0
C      1  0.5792830000000  0.5098310000000  0.4181490000000 1.0
C      1  0.4463350000000  0.4944570000000  0.4032380000000 1.0
C      1  0.3880150000000  0.4890110000000  0.5280080000000 1.0
C      1  0.4929660000000  0.4949760000000  0.6085520000000 1.0
C      1  0.5973830000000  0.4773490000000  0.5286740000000 1.0
C      1  0.4844150000000  0.5000910000000  0.5348080000000 1.0
C      1  0.5327880000000  0.5038200000000  0.5215310000000 1.0
C      1  0.5360930000000  0.5074800000000  0.4793200000000 1.0
C      1  0.4921180000000  0.5054680000000  0.4581420000000 1.0
C      1  0.4570650000000  0.5019930000000  0.5006760000000 1.0
C      1  0.4928060000000  0.4340360000000  0.4505910000000 1.0
C      1  0.4487910000000  0.4327720000000  0.4922730000000 1.0
C      1  0.4814150000000  0.4338850000000  0.5543680000000 1.0
C      1  0.5369860000000  0.4228950000000  0.5366150000000 1.0
C      1  0.5460020000000  0.4272010000000  0.4795510000000 1.0
C      1  0.5339880000000  0.4504950000000  0.4973440000000 1.0
C      1  0.5068120000000  0.4559650000000  0.4692510000000 1.0
C      1  0.4708470000000  0.4551670000000  0.4861040000000 1.0
C      1  0.4748200000000  0.4527230000000  0.5267510000000 1.0
C      1  0.5175850000000  0.4472660000000  0.5335530000000 1.0
C      1  0.5018690000000  0.4819350000000  0.3905950000000 1.0
C      1  0.3973670000000  0.4811150000000  0.4657480000000 1.0
C      1  0.4384220000000  0.4781490000000  0.5834930000000 1.0
C      1  0.5630690000000  0.4747970000000  0.5843040000000 1.0
C      1  0.6065310000000  0.4789400000000  0.4607330000000 1.0
C      1  0.4986420000000  0.4122080000000  0.5344030000000 1.0
C      1  0.5317540000000  0.4069150000000  0.5108180000000 1.0
C      1  0.5198770000000  0.4134270000000  0.4714860000000 1.0
C      1  0.4788010000000  0.4163140000000  0.4716260000000 1.0
C      1  0.4664790000000  0.4152380000000  0.5109130000000 1.0
C      1  0.4248230000000  0.4733240000000  0.4292310000000 1.0
C      1  0.4109530000000  0.4748100000000  0.5480250000000 1.0
C      1  0.5165410000000  0.4746860000000  0.6059380000000 1.0
C      1  0.5930140000000  0.4540950000000  0.5050420000000 1.0
C      1  0.5455130000000  0.4754970000000  0.4100950000000 1.0
C      1  0.3943990000000  0.4723590000000  0.4987430000000 1.0
C      1  0.4683460000000  0.4778460000000  0.5923520000000 1.0
C      1  0.5817350000000  0.4653620000000  0.5570190000000 1.0
C      1  0.5897600000000  0.4895120000000  0.4391920000000 1.0
C      1  0.4704480000000  0.4728300000000  0.4008190000000 1.0
C      1  0.5086770000000  0.4484590000000  0.5961160000000 1.0
C      1  0.5645960000000  0.4552830000000  0.5225820000000 1.0
C      1  0.5529150000000  0.4526050000000  0.4341870000000 1.0
C      1  0.4513180000000  0.4536480000000  0.4300940000000 1.0
C      1  0.4277780000000  0.4566100000000  0.5243780000000 1.0
C      1  0.4580590000000  0.5184950000000  0.4757670000000 1.0
C      1  0.4799700000000  0.5266740000000  0.5240950000000 1.0
C      1  0.5245050000000  0.5281750000000  0.5378810000000 1.0
C      1  0.5506840000000  0.5277030000000  0.4890900000000 1.0
C      1  0.5137880000000  0.5203800000000  0.4482340000000 1.0
C      1  0.5565090000000  0.5788240000000  0.4474850000000 1.0
C      1  0.4621650000000  0.5781080000000  0.4443860000000 1.0
C      1  0.4224920000000  0.5750350000000  0.5148850000000 1.0
C      1  0.4848960000000  0.5801290000000  0.5690490000000 1.0
C      1  0.5645990000000  0.5803710000000  0.5318860000000 1.0
C      1  0.5299210000000  0.4696280000000  0.5542070000000 1.0
C      1  0.5589790000000  0.4697620000000  0.4860740000000 1.0
C      1  0.5120590000000  0.4747350000000  0.4424900000000 1.0
C      1  0.4491970000000  0.4756660000000  0.4717270000000 1.0
C      1  0.4558950000000  0.4722180000000  0.5480710000000 1.0
C      1  0.4833360000000  0.4480870000000  0.4211980000000 1.0
C      1  0.4187830000000  0.4489170000000  0.4930780000000 1.0
C      1  0.4826970000000  0.4500850000000  0.5787580000000 1.0
C      1  0.5658760000000  0.4359620000000  0.5490310000000 1.0
C      1  0.5656190000000  0.4405070000000  0.4599770000000 1.0
C      1  0.3955510000000  0.4998640000000  0.4429240000000 1.0
C      1  0.4130580000000  0.4953400000000  0.5822190000000 1.0
C      1  0.5432370000000  0.4899570000000  0.5989230000000 1.0
C      1  0.6187670000000  0.4947610000000  0.4803330000000 1.0
C      1  0.5233090000000  0.5019720000000  0.3831790000000 1.0
C      1  0.4948090000000  0.5579920000000  0.5882670000000 1.0
C      1  0.5871610000000  0.5606940000000  0.5285880000000 1.0
C      1  0.5600830000000  0.5601200000000  0.4253350000000 1.0
C      1  0.4453620000000  0.5609620000000  0.4257760000000 1.0
C      1  0.4051980000000  0.5558410000000  0.5281810000000 1.0
C      1  0.5792790000000  0.4250300000000  0.5144980000000 1.0
C      1  0.5314520000000  0.4311780000000  0.4221610000000 1.0
C      1  0.4361710000000  0.4300520000000  0.4465080000000 1.0
C      1  0.4339910000000  0.4295790000000  0.5425390000000 1.0
C      1  0.5268890000000  0.4314500000000  0.5831900000000 1.0
C      1  0.5581530000000  0.5243640000000  0.5589500000000 1.0
C      1  0.5809500000000  0.5233420000000  0.4633930000000 1.0
C      1  0.4902370000000  0.5238980000000  0.4162320000000 1.0
C      1  0.4197000000000  0.5220110000000  0.4861970000000 1.0
C      1  0.4496950000000  0.5272380000000  0.5778570000000 1.0
C      1  0.5805810000000  0.5441010000000  0.4858900000000 1.0
C      1  0.5102480000000  0.5467500000000  0.4264010000000 1.0
C      1  0.4324050000000  0.5402780000000  0.4664580000000 1.0
C      1  0.4355610000000  0.5489850000000  0.5663580000000 1.0
C      1  0.5366400000000  0.5443450000000  0.5661360000000 1.0
C      1  0.4016190000000  0.5078040000000  0.5535750000000 1.0
C      1  0.5196390000000  0.5142370000000  0.6023110000000 1.0
C      1  0.6072260000000  0.5038890000000  0.5091980000000 1.0
C      1  0.5469770000000  0.5097410000000  0.4066130000000 1.0
C      1  0.4251320000000  0.5075730000000  0.4273740000000 1.0
C      1  0.5739030000000  0.5028320000000  0.5094460000000 1.0
C      1  0.5396050000000  0.5030920000000  0.4387780000000 1.0
C      1  0.4534020000000  0.5054750000000  0.4455750000000 1.0
C      1  0.4363670000000  0.5064570000000  0.5344800000000 1.0
C      1  0.5101210000000  0.5024080000000  0.5653320000000 1.0
C      1  0.4915130000000  0.6442130000000  0.4908760000000 1.0
C      1  0.4860470000000  0.2991800000000  0.4929180000000 1.0
C      1  0.5004070000000  0.5108750000000  0.4966990000000 1.0
C      1  0.4921680000000  0.3515730000000  0.4959840000000 1.0
C      1  0.4890830000000  0.3251660000000  0.4944390000000 1.0
C      1  0.4991730000000  0.4115350000000  0.4994920000000 1.0
C      1  0.5128710000000  0.5975420000000  0.5145160000000 1.0
C      1  0.4968510000000  0.4816330000000  0.5015920000000 1.0
C      1  0.4814480000000  0.6662080000000  0.4797360000000 1.0
C      1  0.5014880000000  0.6224160000000  0.5019170000000 1.0
C      1  0.4715430000000  0.6878530000000  0.4687720000000 1.0
C      1  0.5103580000000  0.5672350000000  0.4992020000000 1.0
C      1  0.5078520000000  0.5384780000000  0.5094900000000 1.0
C      1  0.4999970000000  0.4467590000000  0.5032790000000 1.0
C      1  0.4952250000000  0.3777410000000  0.4975150000000 1.0
END
