TITL C-2782233-7966-877 -0.00374206450636764 125000 -900.847574767566 0 0 152 (C1) n - 1
REM
REM in /home/nfs/bkarasulu/CARBON/AIRSS/Generating-Clusters/REBO/Higher-Symm/SD-CG/HFTN-CG
REM
REM
REM
REM
REM
REM ./C.cell (12c818d87b63d06a65506943cc24bca4)
REM
REM compiler GCC version 9.2.1 20190827 (Red Hat 9.2.1-1)
REM options -cpp -mtune=generic -march=x86-64 -g -O0 -fpre-include=/usr/include/finclude/math-vector-fortran.h
REM seed -1618357054 -282429468 64669905 1112996251 -1019076536 -757907528 737188391 1659501206 1800294366 1933642304 -490135791 -259418406 -1416028813 408511272 1326346970 1278321886 -2030609982 -92518890 -1243806318 -4967850 935050042 82809295 18486536 -1944097844 -1360835784 971197666 855482393 -1359966800 -178146065 1241472391 934841286 -1057263434 -399083301
REM
CELL 1.54180   50.00000   50.00000   50.00000   90.00000   90.00000   90.00000
LATT -1
SFAC C  
C      1  0.4826640000000  0.5878590000000  0.5670960000000 1.0
C      1  0.5166220000000  0.5867380000000  0.4329040000000 1.0
C      1  0.4835570000000  0.4124680000000  0.4328800000000 1.0
C      1  0.5172950000000  0.4131610000000  0.5665450000000 1.0
C      1  0.5093900000000  0.4207590000000  0.4178030000000 1.0
C      1  0.4910950000000  0.4214630000000  0.5811950000000 1.0
C      1  0.5087630000000  0.5777970000000  0.5813720000000 1.0
C      1  0.4903070000000  0.5765560000000  0.4202230000000 1.0
C      1  0.4975030000000  0.5682280000000  0.5357030000000 1.0
C      1  0.4981210000000  0.5620660000000  0.4709400000000 1.0
C      1  0.4994770000000  0.4299450000000  0.4650490000000 1.0
C      1  0.5014050000000  0.4305270000000  0.5342670000000 1.0
C      1  0.4968420000000  0.4857910000000  0.3875340000000 1.0
C      1  0.5126660000000  0.4953820000000  0.6075370000000 1.0
C      1  0.4952880000000  0.5124530000000  0.6084600000000 1.0
C      1  0.5134120000000  0.5036560000000  0.3903710000000 1.0
C      1  0.5274310000000  0.4101670000000  0.5361990000000 1.0
C      1  0.4740660000000  0.4098580000000  0.4631910000000 1.0
C      1  0.5227420000000  0.5843280000000  0.4633590000000 1.0
C      1  0.4722180000000  0.5895950000000  0.5365630000000 1.0
C      1  0.4718100000000  0.5642640000000  0.5865680000000 1.0
C      1  0.5270590000000  0.5635640000000  0.4125870000000 1.0
C      1  0.4736690000000  0.4381540000000  0.4159440000000 1.0
C      1  0.5272880000000  0.4369160000000  0.5865870000000 1.0
C      1  0.4359300000000  0.5814850000000  0.5001430000000 1.0
C      1  0.5603140000000  0.5788900000000  0.4995730000000 1.0
C      1  0.4391720000000  0.4202010000000  0.4991120000000 1.0
C      1  0.5624190000000  0.4183730000000  0.4994610000000 1.0
C      1  0.5098200000000  0.5166900000000  0.4406440000000 1.0
C      1  0.4914770000000  0.5150110000000  0.5630770000000 1.0
C      1  0.5087820000000  0.4891160000000  0.5657830000000 1.0
C      1  0.4904460000000  0.4922650000000  0.4328050000000 1.0
C      1  0.4514850000000  0.5401280000000  0.5765260000000 1.0
C      1  0.5485450000000  0.5400720000000  0.4192260000000 1.0
C      1  0.4556590000000  0.4665330000000  0.4216710000000 1.0
C      1  0.5467590000000  0.4615990000000  0.5761520000000 1.0
C      1  0.5676150000000  0.5365510000000  0.5555090000000 1.0
C      1  0.4295010000000  0.5382810000000  0.4441260000000 1.0
C      1  0.5643500000000  0.4635870000000  0.4441500000000 1.0
C      1  0.4353340000000  0.4636290000000  0.5557940000000 1.0
C      1  0.4792680000000  0.5181130000000  0.5044780000000 1.0
C      1  0.5205480000000  0.5125600000000  0.4990830000000 1.0
C      1  0.4819050000000  0.4920790000000  0.4909770000000 1.0
C      1  0.5194690000000  0.4871930000000  0.5119240000000 1.0
C      1  0.4522260000000  0.4498440000000  0.5752350000000 1.0
C      1  0.5471840000000  0.4501240000000  0.4247270000000 1.0
C      1  0.4467050000000  0.5520750000000  0.4220950000000 1.0
C      1  0.5489970000000  0.5492290000000  0.5765680000000 1.0
C      1  0.4743250000000  0.4636330000000  0.3934340000000 1.0
C      1  0.5236800000000  0.4680030000000  0.6005900000000 1.0
C      1  0.4726400000000  0.5341770000000  0.6025990000000 1.0
C      1  0.5224850000000  0.5294080000000  0.3999200000000 1.0
C      1  0.4673010000000  0.4257050000000  0.5653040000000 1.0
C      1  0.5333330000000  0.4250080000000  0.4337380000000 1.0
C      1  0.4664210000000  0.5738660000000  0.4349460000000 1.0
C      1  0.5324840000000  0.5737070000000  0.5656770000000 1.0
C      1  0.5044900000000  0.4731750000000  0.5383620000000 1.0
C      1  0.4935570000000  0.4790450000000  0.4623110000000 1.0
C      1  0.5034420000000  0.5224850000000  0.4729660000000 1.0
C      1  0.4958810000000  0.5265430000000  0.5330030000000 1.0
C      1  0.4179160000000  0.4474680000000  0.5427340000000 1.0
C      1  0.5826000000000  0.4471210000000  0.4556930000000 1.0
C      1  0.4124060000000  0.5558310000000  0.4559080000000 1.0
C      1  0.5841220000000  0.5549770000000  0.5442920000000 1.0
C      1  0.5233290000000  0.5467630000000  0.4975980000000 1.0
C      1  0.4915490000000  0.5496330000000  0.5008300000000 1.0
C      1  0.5152880000000  0.4536460000000  0.5053270000000 1.0
C      1  0.4871770000000  0.4582680000000  0.4955880000000 1.0
C      1  0.4152930000000  0.4944260000000  0.4641420000000 1.0
C      1  0.5860200000000  0.4932640000000  0.5356850000000 1.0
C      1  0.4163820000000  0.5048220000000  0.5335960000000 1.0
C      1  0.5838650000000  0.5038680000000  0.4657000000000 1.0
C      1  0.4479720000000  0.5301150000000  0.5045890000000 1.0
C      1  0.5506990000000  0.5289010000000  0.4970880000000 1.0
C      1  0.4556890000000  0.4702370000000  0.4935440000000 1.0
C      1  0.5464310000000  0.4674030000000  0.5055370000000 1.0
C      1  0.4155450000000  0.5625540000000  0.4818790000000 1.0
C      1  0.5818360000000  0.5611330000000  0.5180430000000 1.0
C      1  0.4202580000000  0.4405980000000  0.5164970000000 1.0
C      1  0.5813900000000  0.4389640000000  0.4817310000000 1.0
C      1  0.5485070000000  0.4888610000000  0.4547810000000 1.0
C      1  0.4510600000000  0.4895080000000  0.5462930000000 1.0
C      1  0.5513200000000  0.5104580000000  0.5456960000000 1.0
C      1  0.4483590000000  0.5148590000000  0.4550030000000 1.0
C      1  0.4256770000000  0.5046720000000  0.5798670000000 1.0
C      1  0.5739740000000  0.5035600000000  0.4193060000000 1.0
C      1  0.4235180000000  0.4935540000000  0.4178750000000 1.0
C      1  0.5754930000000  0.4928350000000  0.5814710000000 1.0
C      1  0.5813540000000  0.4385640000000  0.5198620000000 1.0
C      1  0.4219370000000  0.4415490000000  0.4783460000000 1.0
C      1  0.5778260000000  0.5572130000000  0.4795860000000 1.0
C      1  0.4181260000000  0.5603900000000  0.5205770000000 1.0
C      1  0.4748660000000  0.4652300000000  0.5919730000000 1.0
C      1  0.5237450000000  0.4661780000000  0.4096940000000 1.0
C      1  0.4743780000000  0.5341210000000  0.4187630000000 1.0
C      1  0.5224890000000  0.5323580000000  0.5869350000000 1.0
C      1  0.4846640000000  0.5924780000000  0.5051230000000 1.0
C      1  0.5118940000000  0.5908510000000  0.4949310000000 1.0
C      1  0.4868260000000  0.4061560000000  0.4945440000000 1.0
C      1  0.5141960000000  0.4063740000000  0.5050640000000 1.0
C      1  0.5931590000000  0.4892440000000  0.4903220000000 1.0
C      1  0.4077230000000  0.4904590000000  0.5089000000000 1.0
C      1  0.5952400000000  0.5085200000000  0.5112740000000 1.0
C      1  0.4050340000000  0.5101480000000  0.4882230000000 1.0
C      1  0.4441950000000  0.5194810000000  0.4120310000000 1.0
C      1  0.5525620000000  0.5163630000000  0.5863850000000 1.0
C      1  0.4497080000000  0.4854050000000  0.5859150000000 1.0
C      1  0.5489020000000  0.4860650000000  0.4150210000000 1.0
C      1  0.5522640000000  0.5750230000000  0.4666730000000 1.0
C      1  0.4441780000000  0.5781370000000  0.5330740000000 1.0
C      1  0.5555770000000  0.4211420000000  0.5327290000000 1.0
C      1  0.4474480000000  0.4236850000000  0.4662910000000 1.0
C      1  0.5373240000000  0.4911480000000  0.5702130000000 1.0
C      1  0.4614890000000  0.4964560000000  0.4294120000000 1.0
C      1  0.5377030000000  0.5127760000000  0.4329610000000 1.0
C      1  0.4633800000000  0.5116640000000  0.5691660000000 1.0
C      1  0.5564550000000  0.5450700000000  0.4504130000000 1.0
C      1  0.4422630000000  0.5469530000000  0.5469050000000 1.0
C      1  0.5600690000000  0.4508570000000  0.5490720000000 1.0
C      1  0.4445370000000  0.4535840000000  0.4500220000000 1.0
C      1  0.4651240000000  0.4124230000000  0.5128790000000 1.0
C      1  0.5358220000000  0.4118290000000  0.4863370000000 1.0
C      1  0.4626610000000  0.5875410000000  0.4866690000000 1.0
C      1  0.5338030000000  0.5852180000000  0.5130750000000 1.0
C      1  0.5268860000000  0.5446630000000  0.4636220000000 1.0
C      1  0.4709770000000  0.5489760000000  0.5283900000000 1.0
C      1  0.5285980000000  0.4501400000000  0.5367570000000 1.0
C      1  0.4754870000000  0.4520780000000  0.4640070000000 1.0
C      1  0.5200970000000  0.4780560000000  0.4415020000000 1.0
C      1  0.4782850000000  0.4758940000000  0.5596880000000 1.0
C      1  0.5228260000000  0.5244850000000  0.5536740000000 1.0
C      1  0.4784330000000  0.5257800000000  0.4506510000000 1.0
C      1  0.5784650000000  0.4647330000000  0.5001130000000 1.0
C      1  0.4234940000000  0.4668890000000  0.4990170000000 1.0
C      1  0.5818840000000  0.5338090000000  0.5020360000000 1.0
C      1  0.4175440000000  0.5359150000000  0.4985740000000 1.0
C      1  0.5580360000000  0.4957820000000  0.5177230000000 1.0
C      1  0.4429150000000  0.4988650000000  0.4831560000000 1.0
C      1  0.5552540000000  0.4995980000000  0.4839150000000 1.0
C      1  0.4454200000000  0.5002450000000  0.5172780000000 1.0
C      1  0.5014880000000  0.5504330000000  0.5971420000000 1.0
C      1  0.4971290000000  0.5489110000000  0.4051160000000 1.0
C      1  0.5029250000000  0.4474370000000  0.4003700000000 1.0
C      1  0.4976220000000  0.4474040000000  0.5999720000000 1.0
C      1  0.4745630000000  0.4226980000000  0.5374380000000 1.0
C      1  0.5263110000000  0.4218780000000  0.4617270000000 1.0
C      1  0.4713370000000  0.5750010000000  0.4627610000000 1.0
C      1  0.5247840000000  0.5755010000000  0.5379410000000 1.0
C      1  0.5782420000000  0.4782370000000  0.5581510000000 1.0
C      1  0.4238100000000  0.4794870000000  0.4418850000000 1.0
C      1  0.5760040000000  0.5184250000000  0.4429410000000 1.0
C      1  0.4239470000000  0.5196480000000  0.5562330000000 1.0
END
