TITL C-2782234-8014-253 -0.000920905987118929 125000 -716.514508922139 0 0 128 (C1) n - 1
REM
REM in /home/nfs/bkarasulu/CARBON/AIRSS/Generating-Clusters/REBO/Higher-Symm/SD-CG/HFTN-CG
REM
REM
REM
REM
REM
REM ./C.cell (12c818d87b63d06a65506943cc24bca4)
REM
REM compiler GCC version 9.2.1 20190827 (Red Hat 9.2.1-1)
REM options -cpp -mtune=generic -march=x86-64 -g -O0 -fpre-include=/usr/include/finclude/math-vector-fortran.h
REM seed 463159240 -1006370576 -537627369 736496055 969697619 844566924 1278330679 -474553398 -798030724 2145310760 -251593086 -803463058 67541605 -1963004072 -1328076443 -1169327261 -478987390 1127384755 -1055422794 -1505598699 -1664907364 -955855636 -2054853139 1215144771 1058451544 1295954127 1726570729 1431651909 -1433365967 2101548514 -1917420330 1065041723 177029045
REM
CELL 1.54180   50.00000   50.00000   50.00000   90.00000   90.00000   90.00000
LATT -1
SFAC C  
C      1  0.4215630000000  0.4885410000000  0.5147370000000 1.0
C      1  0.4234970000000  0.5112630000000  0.4957760000000 1.0
C      1  0.5443260000000  0.5539020000000  0.5794170000000 1.0
C      1  0.5372380000000  0.4522100000000  0.4205260000000 1.0
C      1  0.5052730000000  0.4784140000000  0.5487320000000 1.0
C      1  0.5069240000000  0.5158930000000  0.4498100000000 1.0
C      1  0.5681500000000  0.4919160000000  0.4883850000000 1.0
C      1  0.5743250000000  0.5092730000000  0.5141720000000 1.0
C      1  0.4801310000000  0.5317890000000  0.5210900000000 1.0
C      1  0.4649460000000  0.4715620000000  0.4713820000000 1.0
C      1  0.5578710000000  0.4957100000000  0.5613900000000 1.0
C      1  0.5576110000000  0.5120960000000  0.4376420000000 1.0
C      1  0.5814300000000  0.5392930000000  0.4771280000000 1.0
C      1  0.5832010000000  0.4631260000000  0.5242490000000 1.0
C      1  0.5021600000000  0.4176610000000  0.5504920000000 1.0
C      1  0.5083440000000  0.5801320000000  0.4416780000000 1.0
C      1  0.4782020000000  0.4521480000000  0.5369970000000 1.0
C      1  0.4819460000000  0.5539750000000  0.4601870000000 1.0
C      1  0.4886440000000  0.4593460000000  0.4506060000000 1.0
C      1  0.4908390000000  0.5395280000000  0.5483470000000 1.0
C      1  0.5840980000000  0.4661950000000  0.4962460000000 1.0
C      1  0.5826400000000  0.5379460000000  0.5050910000000 1.0
C      1  0.4132650000000  0.5126930000000  0.5471210000000 1.0
C      1  0.4107590000000  0.4879460000000  0.4522640000000 1.0
C      1  0.5315050000000  0.4916160000000  0.5612500000000 1.0
C      1  0.5327080000000  0.5010990000000  0.4355930000000 1.0
C      1  0.6036980000000  0.5130620000000  0.5819820000000 1.0
C      1  0.6002600000000  0.4952840000000  0.4197660000000 1.0
C      1  0.4594730000000  0.5940110000000  0.4421740000000 1.0
C      1  0.4589990000000  0.4101630000000  0.5523120000000 1.0
C      1  0.5438130000000  0.4203990000000  0.4560990000000 1.0
C      1  0.5338280000000  0.5805450000000  0.5413360000000 1.0
C      1  0.4745600000000  0.4781640000000  0.5592650000000 1.0
C      1  0.4766380000000  0.5239720000000  0.4448740000000 1.0
C      1  0.4798940000000  0.4976890000000  0.5858080000000 1.0
C      1  0.4836350000000  0.5003430000000  0.4213700000000 1.0
C      1  0.4450910000000  0.4423550000000  0.5169780000000 1.0
C      1  0.4469790000000  0.5578710000000  0.4784620000000 1.0
C      1  0.4421400000000  0.5040150000000  0.5936700000000 1.0
C      1  0.4461470000000  0.4954060000000  0.4105880000000 1.0
C      1  0.5028430000000  0.5924990000000  0.5075570000000 1.0
C      1  0.5048380000000  0.4181330000000  0.4900690000000 1.0
C      1  0.5882680000000  0.4870650000000  0.4433160000000 1.0
C      1  0.5846860000000  0.5157240000000  0.5619180000000 1.0
C      1  0.5012710000000  0.5109430000000  0.5081930000000 1.0
C      1  0.4935300000000  0.4781180000000  0.4871970000000 1.0
C      1  0.5376460000000  0.5697490000000  0.4882960000000 1.0
C      1  0.5386890000000  0.4324500000000  0.5096860000000 1.0
C      1  0.4931470000000  0.5129470000000  0.3986740000000 1.0
C      1  0.4897020000000  0.4826810000000  0.6067840000000 1.0
C      1  0.5221720000000  0.5313270000000  0.5852230000000 1.0
C      1  0.5142350000000  0.4461610000000  0.4052780000000 1.0
C      1  0.4693560000000  0.4722680000000  0.4172940000000 1.0
C      1  0.4658790000000  0.5277150000000  0.5907280000000 1.0
C      1  0.5376130000000  0.5248340000000  0.4828650000000 1.0
C      1  0.5289010000000  0.4733330000000  0.5169900000000 1.0
C      1  0.4208060000000  0.5620780000000  0.4992860000000 1.0
C      1  0.4159900000000  0.4367720000000  0.5009030000000 1.0
C      1  0.4585950000000  0.4712310000000  0.5049100000000 1.0
C      1  0.4665850000000  0.5329480000000  0.4910520000000 1.0
C      1  0.4726460000000  0.4262080000000  0.4805000000000 1.0
C      1  0.4726410000000  0.5770430000000  0.5203450000000 1.0
C      1  0.4668680000000  0.5485580000000  0.4149430000000 1.0
C      1  0.4637610000000  0.4500810000000  0.5855210000000 1.0
C      1  0.4568640000000  0.4501460000000  0.4386180000000 1.0
C      1  0.4613970000000  0.5479110000000  0.5641010000000 1.0
C      1  0.5323770000000  0.4734870000000  0.4393230000000 1.0
C      1  0.5388220000000  0.5306050000000  0.5577010000000 1.0
C      1  0.5439870000000  0.5418830000000  0.4604850000000 1.0
C      1  0.5388970000000  0.4588630000000  0.5395580000000 1.0
C      1  0.4421680000000  0.4870970000000  0.4420550000000 1.0
C      1  0.4429770000000  0.5125120000000  0.5619770000000 1.0
C      1  0.5116120000000  0.4440080000000  0.5881130000000 1.0
C      1  0.5157720000000  0.5516000000000  0.4147040000000 1.0
C      1  0.4952110000000  0.5337110000000  0.5792600000000 1.0
C      1  0.4909730000000  0.4491160000000  0.4182240000000 1.0
C      1  0.4288240000000  0.4586830000000  0.4523910000000 1.0
C      1  0.4325930000000  0.5410440000000  0.5488370000000 1.0
C      1  0.5169780000000  0.4263750000000  0.5316550000000 1.0
C      1  0.5178870000000  0.5719740000000  0.4639260000000 1.0
C      1  0.4710440000000  0.4990700000000  0.5186060000000 1.0
C      1  0.4729200000000  0.5041380000000  0.4790970000000 1.0
C      1  0.5809000000000  0.4917300000000  0.5379810000000 1.0
C      1  0.5768390000000  0.5101740000000  0.4638780000000 1.0
C      1  0.5393260000000  0.5795710000000  0.5688890000000 1.0
C      1  0.5504960000000  0.4293890000000  0.4305410000000 1.0
C      1  0.5191760000000  0.5305600000000  0.5302630000000 1.0
C      1  0.5180440000000  0.4668590000000  0.4669730000000 1.0
C      1  0.4213110000000  0.4799560000000  0.5536110000000 1.0
C      1  0.4211200000000  0.5203520000000  0.4474540000000 1.0
C      1  0.5254260000000  0.5402000000000  0.4388930000000 1.0
C      1  0.5219990000000  0.4530740000000  0.5636470000000 1.0
C      1  0.4476890000000  0.5236120000000  0.4268770000000 1.0
C      1  0.4454880000000  0.4757530000000  0.5769490000000 1.0
C      1  0.4678320000000  0.4252780000000  0.4510270000000 1.0
C      1  0.4711550000000  0.5740520000000  0.5511870000000 1.0
C      1  0.5646580000000  0.5624470000000  0.4689170000000 1.0
C      1  0.5630730000000  0.4442800000000  0.5305870000000 1.0
C      1  0.4709120000000  0.5675620000000  0.4357320000000 1.0
C      1  0.4683710000000  0.4346590000000  0.5627800000000 1.0
C      1  0.4276780000000  0.4671330000000  0.4911400000000 1.0
C      1  0.4389420000000  0.5348590000000  0.5098420000000 1.0
C      1  0.5796920000000  0.5451970000000  0.5510410000000 1.0
C      1  0.5852050000000  0.4595070000000  0.4508810000000 1.0
C      1  0.4825700000000  0.4299070000000  0.5116280000000 1.0
C      1  0.4825890000000  0.5730450000000  0.4883760000000 1.0
C      1  0.4919030000000  0.5412340000000  0.4019040000000 1.0
C      1  0.4879730000000  0.4548790000000  0.6006570000000 1.0
C      1  0.5813400000000  0.4460950000000  0.4762640000000 1.0
C      1  0.5767290000000  0.5575390000000  0.5250130000000 1.0
C      1  0.4572110000000  0.4138690000000  0.5252080000000 1.0
C      1  0.4587980000000  0.5854480000000  0.4693780000000 1.0
C      1  0.5458750000000  0.5230870000000  0.5102180000000 1.0
C      1  0.5386080000000  0.4814470000000  0.4901430000000 1.0
C      1  0.5587220000000  0.5809340000000  0.5205570000000 1.0
C      1  0.5635520000000  0.4227850000000  0.4800440000000 1.0
C      1  0.5365220000000  0.4043660000000  0.4906230000000 1.0
C      1  0.5327940000000  0.5972940000000  0.5054430000000 1.0
C      1  0.4464620000000  0.4939560000000  0.5353840000000 1.0
C      1  0.4423800000000  0.5050290000000  0.4696770000000 1.0
C      1  0.5245390000000  0.5608550000000  0.5184850000000 1.0
C      1  0.5271930000000  0.4391650000000  0.4778730000000 1.0
C      1  0.4419610000000  0.5636220000000  0.5259900000000 1.0
C      1  0.4410410000000  0.4388610000000  0.4773610000000 1.0
C      1  0.5119230000000  0.5128290000000  0.4801680000000 1.0
C      1  0.4982420000000  0.4703930000000  0.5162740000000 1.0
C      1  0.4201660000000  0.5378730000000  0.4748020000000 1.0
C      1  0.4168510000000  0.4576420000000  0.5282880000000 1.0
END
