TITL C-2782230-7391-1400 0.00952900954551956 125000 -1027.72154465917 0 0 173 (C1) n - 1
REM
REM in /home/nfs/bkarasulu/CARBON/AIRSS/Generating-Clusters/REBO/Higher-Symm/SD-CG/HFTN-CG
REM
REM
REM
REM
REM
REM ./C.cell (12c818d87b63d06a65506943cc24bca4)
REM
REM compiler GCC version 9.2.1 20190827 (Red Hat 9.2.1-1)
REM options -cpp -mtune=generic -march=x86-64 -g -O0 -fpre-include=/usr/include/finclude/math-vector-fortran.h
REM seed 1815843188 -1142717178 -445705888 -1609130963 -1208857621 -1153962465 -1073114775 -1352397111 -598531312 1349409419 -1112473064 -1830666205 1452086727 1939311425 1948599997 1623105871 547979249 -2114423794 -59153542 -743242755 1319136389 -1285662269 2091486811 563624901 -165153145 398665478 1726015260 965499651 -1248516164 74335614 -780505826 2056893662 1177814759
REM
CELL 1.54180   50.00000   50.00000   50.00000   90.00000   90.00000   90.00000
LATT -1
SFAC C  
C      1  0.5083870000000  0.4835750000000  0.4237260000000 1.0
C      1  0.5190640000000  0.5232640000000  0.5759610000000 1.0
C      1  0.4751430000000  0.6029930000000  0.5228890000000 1.0
C      1  0.4772830000000  0.3965290000000  0.4689420000000 1.0
C      1  0.4002990000000  0.5122740000000  0.4839220000000 1.0
C      1  0.3993780000000  0.4796550000000  0.5161990000000 1.0
C      1  0.4451610000000  0.4818030000000  0.5483940000000 1.0
C      1  0.4419960000000  0.5144070000000  0.4630390000000 1.0
C      1  0.4880300000000  0.4027080000000  0.4298300000000 1.0
C      1  0.4911730000000  0.5963460000000  0.5694630000000 1.0
C      1  0.4880510000000  0.6150180000000  0.4790080000000 1.0
C      1  0.4890200000000  0.3825280000000  0.5093450000000 1.0
C      1  0.5675390000000  0.4261370000000  0.4849290000000 1.0
C      1  0.5694260000000  0.5716810000000  0.5162100000000 1.0
C      1  0.6032170000000  0.5192680000000  0.4676180000000 1.0
C      1  0.5980910000000  0.4813490000000  0.5284010000000 1.0
C      1  0.4182410000000  0.5444640000000  0.5320020000000 1.0
C      1  0.4244980000000  0.4615810000000  0.4592690000000 1.0
C      1  0.4630630000000  0.3976170000000  0.5132940000000 1.0
C      1  0.4640570000000  0.5946280000000  0.4731950000000 1.0
C      1  0.5608820000000  0.4981280000000  0.3854970000000 1.0
C      1  0.5777110000000  0.5454500000000  0.6198040000000 1.0
C      1  0.5315050000000  0.5309350000000  0.6050100000000 1.0
C      1  0.5244440000000  0.4694230000000  0.4005120000000 1.0
C      1  0.5702570000000  0.4774390000000  0.4285230000000 1.0
C      1  0.5718240000000  0.5228340000000  0.5718220000000 1.0
C      1  0.5064150000000  0.4748430000000  0.4716340000000 1.0
C      1  0.5017870000000  0.5278770000000  0.5211150000000 1.0
C      1  0.5421920000000  0.4490620000000  0.5352000000000 1.0
C      1  0.5439020000000  0.5504620000000  0.4636030000000 1.0
C      1  0.4536550000000  0.4459400000000  0.4628820000000 1.0
C      1  0.4492410000000  0.5575960000000  0.5382350000000 1.0
C      1  0.5084730000000  0.5592080000000  0.4155780000000 1.0
C      1  0.5232440000000  0.4449450000000  0.5897090000000 1.0
C      1  0.5703140000000  0.4570580000000  0.5747520000000 1.0
C      1  0.5682750000000  0.5463570000000  0.4269340000000 1.0
C      1  0.5528690000000  0.4711130000000  0.3997150000000 1.0
C      1  0.5601160000000  0.5343460000000  0.6016870000000 1.0
C      1  0.4915070000000  0.4777490000000  0.3964690000000 1.0
C      1  0.4986810000000  0.5213990000000  0.6007480000000 1.0
C      1  0.5444150000000  0.5006290000000  0.4481430000000 1.0
C      1  0.5329210000000  0.4953530000000  0.5513560000000 1.0
C      1  0.4909600000000  0.4684550000000  0.5522220000000 1.0
C      1  0.4994530000000  0.5325020000000  0.4439090000000 1.0
C      1  0.4691900000000  0.4796110000000  0.4294940000000 1.0
C      1  0.4806070000000  0.5222890000000  0.5632240000000 1.0
C      1  0.5167540000000  0.4883960000000  0.4489110000000 1.0
C      1  0.5082290000000  0.5159710000000  0.5479470000000 1.0
C      1  0.4637900000000  0.4231230000000  0.4426550000000 1.0
C      1  0.4660240000000  0.5790420000000  0.5535240000000 1.0
C      1  0.4448320000000  0.4254960000000  0.5594180000000 1.0
C      1  0.4599870000000  0.5707720000000  0.4491810000000 1.0
C      1  0.5265520000000  0.4485110000000  0.4500820000000 1.0
C      1  0.5250830000000  0.5520970000000  0.5453110000000 1.0
C      1  0.5919560000000  0.5491190000000  0.4754510000000 1.0
C      1  0.5887220000000  0.4512090000000  0.5251090000000 1.0
C      1  0.6099960000000  0.5132040000000  0.4966860000000 1.0
C      1  0.6088050000000  0.4862650000000  0.5010450000000 1.0
C      1  0.4805130000000  0.4815880000000  0.5297440000000 1.0
C      1  0.4813230000000  0.5202920000000  0.4642060000000 1.0
C      1  0.5132480000000  0.4850220000000  0.6077100000000 1.0
C      1  0.5083860000000  0.5143460000000  0.3891670000000 1.0
C      1  0.4504260000000  0.4950750000000  0.5944680000000 1.0
C      1  0.4462340000000  0.5044380000000  0.4018510000000 1.0
C      1  0.4952790000000  0.4228360000000  0.5326690000000 1.0
C      1  0.4967510000000  0.5724200000000  0.4791240000000 1.0
C      1  0.5852060000000  0.4465470000000  0.4956720000000 1.0
C      1  0.5873980000000  0.5526520000000  0.5040220000000 1.0
C      1  0.4451660000000  0.4453000000000  0.6028290000000 1.0
C      1  0.4583500000000  0.5536280000000  0.4035730000000 1.0
C      1  0.4911800000000  0.5299860000000  0.4128760000000 1.0
C      1  0.4967180000000  0.4657800000000  0.5850460000000 1.0
C      1  0.5709980000000  0.4453760000000  0.5464900000000 1.0
C      1  0.5737330000000  0.5588850000000  0.4561640000000 1.0
C      1  0.4810960000000  0.4334860000000  0.4169390000000 1.0
C      1  0.4789570000000  0.5683340000000  0.5829690000000 1.0
C      1  0.4385840000000  0.4716420000000  0.4053860000000 1.0
C      1  0.4459650000000  0.5273450000000  0.5960820000000 1.0
C      1  0.5903720000000  0.4904610000000  0.4530650000000 1.0
C      1  0.5884940000000  0.5101470000000  0.5446670000000 1.0
C      1  0.4534430000000  0.5948830000000  0.5054640000000 1.0
C      1  0.4535730000000  0.4031800000000  0.4862450000000 1.0
C      1  0.5135560000000  0.5977530000000  0.4889710000000 1.0
C      1  0.5108950000000  0.4040480000000  0.5142860000000 1.0
C      1  0.5813490000000  0.5220870000000  0.4426510000000 1.0
C      1  0.5768300000000  0.4826950000000  0.5614580000000 1.0
C      1  0.4180670000000  0.4370680000000  0.5531060000000 1.0
C      1  0.4289420000000  0.5611350000000  0.4481490000000 1.0
C      1  0.5634830000000  0.5164720000000  0.4704300000000 1.0
C      1  0.5639920000000  0.4821730000000  0.5299380000000 1.0
C      1  0.4408690000000  0.4279670000000  0.4845030000000 1.0
C      1  0.4384590000000  0.5731900000000  0.5131690000000 1.0
C      1  0.4151430000000  0.5588430000000  0.4729410000000 1.0
C      1  0.4081640000000  0.4353570000000  0.5259990000000 1.0
C      1  0.5067110000000  0.4391360000000  0.5537820000000 1.0
C      1  0.5045780000000  0.5623120000000  0.4550100000000 1.0
C      1  0.4674790000000  0.4223030000000  0.5280860000000 1.0
C      1  0.4693440000000  0.5635600000000  0.4869870000000 1.0
C      1  0.4318520000000  0.5524610000000  0.4952750000000 1.0
C      1  0.4285700000000  0.4407430000000  0.5056980000000 1.0
C      1  0.4584110000000  0.4949800000000  0.4443570000000 1.0
C      1  0.4608410000000  0.5033440000000  0.5568050000000 1.0
C      1  0.4237110000000  0.5031270000000  0.5740010000000 1.0
C      1  0.4219570000000  0.4989620000000  0.4252450000000 1.0
C      1  0.5373590000000  0.5206150000000  0.3925410000000 1.0
C      1  0.5412010000000  0.4854080000000  0.6013450000000 1.0
C      1  0.5956350000000  0.4705820000000  0.4802560000000 1.0
C      1  0.5970140000000  0.5287750000000  0.5174840000000 1.0
C      1  0.4123600000000  0.4811260000000  0.4846840000000 1.0
C      1  0.4082060000000  0.5239320000000  0.5152120000000 1.0
C      1  0.4404310000000  0.4703190000000  0.5108420000000 1.0
C      1  0.4459180000000  0.5280040000000  0.5031850000000 1.0
C      1  0.4233610000000  0.5386360000000  0.4321070000000 1.0
C      1  0.4183930000000  0.4643520000000  0.5660830000000 1.0
C      1  0.4693830000000  0.4572750000000  0.4051540000000 1.0
C      1  0.4737510000000  0.5395020000000  0.5908810000000 1.0
C      1  0.3874140000000  0.4545870000000  0.5205020000000 1.0
C      1  0.3917380000000  0.5422440000000  0.4733770000000 1.0
C      1  0.5278770000000  0.4536900000000  0.4844440000000 1.0
C      1  0.5248490000000  0.5458540000000  0.5116490000000 1.0
C      1  0.4524620000000  0.4242200000000  0.5865000000000 1.0
C      1  0.4755790000000  0.5655200000000  0.4218670000000 1.0
C      1  0.4943550000000  0.5784130000000  0.5340620000000 1.0
C      1  0.4960730000000  0.4186600000000  0.4655360000000 1.0
C      1  0.5464170000000  0.5046070000000  0.5789920000000 1.0
C      1  0.5543650000000  0.5060550000000  0.4183630000000 1.0
C      1  0.4809660000000  0.4922980000000  0.5996650000000 1.0
C      1  0.4759180000000  0.5060280000000  0.3954490000000 1.0
C      1  0.4386050000000  0.5340060000000  0.4094450000000 1.0
C      1  0.4344500000000  0.4680820000000  0.5918510000000 1.0
C      1  0.5236680000000  0.4682130000000  0.5509620000000 1.0
C      1  0.5308320000000  0.5357550000000  0.4416500000000 1.0
C      1  0.5406160000000  0.4114680000000  0.4449800000000 1.0
C      1  0.5375630000000  0.5818260000000  0.5543120000000 1.0
C      1  0.4458160000000  0.4860470000000  0.4811030000000 1.0
C      1  0.4312890000000  0.5029490000000  0.5132620000000 1.0
C      1  0.4517870000000  0.4506450000000  0.5364790000000 1.0
C      1  0.4580270000000  0.5415020000000  0.4672290000000 1.0
C      1  0.4889120000000  0.6231900000000  0.5074820000000 1.0
C      1  0.4898390000000  0.3723940000000  0.4814970000000 1.0
C      1  0.5015460000000  0.4371100000000  0.4440650000000 1.0
C      1  0.4953010000000  0.5525980000000  0.5568940000000 1.0
C      1  0.5484910000000  0.4587160000000  0.5937150000000 1.0
C      1  0.5395540000000  0.5449350000000  0.4122500000000 1.0
C      1  0.5431760000000  0.6004230000000  0.4777270000000 1.0
C      1  0.5399800000000  0.4011510000000  0.5265300000000 1.0
C      1  0.4121100000000  0.4892230000000  0.5450390000000 1.0
C      1  0.4118170000000  0.5154820000000  0.4517610000000 1.0
C      1  0.4757420000000  0.4975100000000  0.4830310000000 1.0
C      1  0.4808210000000  0.5040280000000  0.5119790000000 1.0
C      1  0.5423790000000  0.5327660000000  0.4916130000000 1.0
C      1  0.5435470000000  0.4661430000000  0.5075170000000 1.0
C      1  0.5254520000000  0.5756790000000  0.4386380000000 1.0
C      1  0.5247000000000  0.4204010000000  0.5731010000000 1.0
C      1  0.5410690000000  0.4195930000000  0.5478400000000 1.0
C      1  0.5471450000000  0.5857990000000  0.4543650000000 1.0
C      1  0.5486540000000  0.5863440000000  0.5037490000000 1.0
C      1  0.5467900000000  0.4127370000000  0.4992600000000 1.0
C      1  0.5603100000000  0.4293610000000  0.4572720000000 1.0
C      1  0.5619750000000  0.5664160000000  0.5431060000000 1.0
C      1  0.4208300000000  0.4685730000000  0.4322020000000 1.0
C      1  0.4200910000000  0.5322050000000  0.5821440000000 1.0
C      1  0.5170210000000  0.4221040000000  0.4873840000000 1.0
C      1  0.5178520000000  0.5773310000000  0.5151900000000 1.0
C      1  0.4695300000000  0.5348040000000  0.5230750000000 1.0
C      1  0.4771710000000  0.4654990000000  0.4710070000000 1.0
C      1  0.5575100000000  0.4834840000000  0.4745500000000 1.0
C      1  0.5499040000000  0.5116530000000  0.5293490000000 1.0
C      1  0.5551530000000  0.5357530000000  0.5472440000000 1.0
C      1  0.5567550000000  0.4614760000000  0.4516260000000 1.0
C      1  0.5174730000000  0.5993260000000  0.5633320000000 1.0
C      1  0.5165020000000  0.4005640000000  0.4363580000000 1.0
C      1  0.5439920000000  0.4996490000000  0.5003920000000 1.0
END
