TITL C-2782237-5345-313 2.0857252176577e-07 125000 -120.512858191398 0 0 22 (C2v) n - 1
REM
REM in /home/nfs/bkarasulu/CARBON/AIRSS/Generating-Clusters/REBO/Higher-Symm/SD-CG/HFTN-CG
REM
REM
REM
REM
REM
REM ./C.cell (12c818d87b63d06a65506943cc24bca4)
REM
REM compiler GCC version 9.2.1 20190827 (Red Hat 9.2.1-1)
REM options -cpp -mtune=generic -march=x86-64 -g -O0 -fpre-include=/usr/include/finclude/math-vector-fortran.h
REM seed -804266445 655039432 1804328848 1951388548 -2133689993 -1039996637 -156716310 -1092531267 -1592559345 1556394549 -1141430239 -1499309952 1587587403 -1361960831 -566225144 -1666252438 1808150986 -1802182683 -1667570463 1646750717 1100440414 1751768966 -1769727958 2108966247 67794424 1472971380 73942539 518207629 -1058478347 -52052716 -1779310051 -1715204960 -418577367
REM
CELL 1.54180   50.00000   50.00000   50.00000   90.00000   90.00000   90.00000
LATT -1
SFAC C  
C      1  0.5741040000000  0.5208080000000  0.5407900000000 1.0
C      1  0.5740660000000  0.4793570000000  0.4590570000000 1.0
C      1  0.4575820000000  0.5354850000000  0.5391560000000 1.0
C      1  0.4575800000000  0.4644200000000  0.4609320000000 1.0
C      1  0.4730720000000  0.4914460000000  0.5369990000000 1.0
C      1  0.4729770000000  0.5084940000000  0.4630570000000 1.0
C      1  0.4707780000000  0.4513120000000  0.5093270000000 1.0
C      1  0.4706510000000  0.5486230000000  0.4907330000000 1.0
C      1  0.5714070000000  0.5061940000000  0.5119840000000 1.0
C      1  0.5713950000000  0.4939640000000  0.4878690000000 1.0
C      1  0.5447010000000  0.4856630000000  0.4715870000000 1.0
C      1  0.5447280000000  0.5144360000000  0.5283200000000 1.0
C      1  0.5181330000000  0.5119300000000  0.5234640000000 1.0
C      1  0.5181110000000  0.4881110000000  0.4764980000000 1.0
C      1  0.4890450000000  0.5070860000000  0.5140080000000 1.0
C      1  0.4890320000000  0.4928900000000  0.4860150000000 1.0
C      1  0.4730010000000  0.5348340000000  0.5149940000000 1.0
C      1  0.4730470000000  0.4651060000000  0.4850610000000 1.0
C      1  0.4706400000000  0.5362150000000  0.4662690000000 1.0
C      1  0.4707900000000  0.4637200000000  0.5337920000000 1.0
C      1  0.4575390000000  0.4893910000000  0.4482680000000 1.0
C      1  0.4576220000000  0.5105140000000  0.5518200000000 1.0
END
