TITL C-2782237-5345-388 0.000893541217600591 125000 -261.383539382565 0 0 47 (C1) n - 1
REM
REM in /home/nfs/bkarasulu/CARBON/AIRSS/Generating-Clusters/REBO/Higher-Symm/SD-CG/HFTN-CG
REM
REM
REM
REM
REM
REM ./C.cell (12c818d87b63d06a65506943cc24bca4)
REM
REM compiler GCC version 9.2.1 20190827 (Red Hat 9.2.1-1)
REM options -cpp -mtune=generic -march=x86-64 -g -O0 -fpre-include=/usr/include/finclude/math-vector-fortran.h
REM seed 1061677597 -1535836882 -585439892 -195787594 503016804 -1022120470 -2072719603 -1826487572 835031672 -814868795 -682724793 1601357779 -1764064920 681501564 64458678 1531351918 -28378602 1639920097 -1181623651 1594305150 -1179574131 866336033 -309764021 -1003799123 -1456400346 893869963 2078835882 64060044 317293123 1094265309 -880200515 1815640815 1782999985
REM
CELL 1.54180   50.00000   50.00000   50.00000   90.00000   90.00000   90.00000
LATT -1
SFAC C  
C      1  0.4844100000000  0.4503390000000  0.5265510000000 1.0
C      1  0.5183810000000  0.4483550000000  0.5308170000000 1.0
C      1  0.5081820000000  0.4716920000000  0.4789710000000 1.0
C      1  0.4800890000000  0.4724880000000  0.4735270000000 1.0
C      1  0.4423530000000  0.4821460000000  0.4881850000000 1.0
C      1  0.5563440000000  0.4823400000000  0.4893680000000 1.0
C      1  0.4441410000000  0.4821170000000  0.4567790000000 1.0
C      1  0.5515380000000  0.4866360000000  0.4585590000000 1.0
C      1  0.5526970000000  0.5349660000000  0.4907510000000 1.0
C      1  0.4423910000000  0.5345650000000  0.4846260000000 1.0
C      1  0.4885080000000  0.5546830000000  0.4699580000000 1.0
C      1  0.5200130000000  0.5536700000000  0.4734320000000 1.0
C      1  0.4541380000000  0.4652390000000  0.5330000000000 1.0
C      1  0.5484750000000  0.4638250000000  0.5349070000000 1.0
C      1  0.5569270000000  0.4965060000000  0.5392910000000 1.0
C      1  0.4453200000000  0.4979170000000  0.5369590000000 1.0
C      1  0.5149300000000  0.5203470000000  0.4962040000000 1.0
C      1  0.4830780000000  0.5204940000000  0.4898450000000 1.0
C      1  0.4547470000000  0.4613420000000  0.5022980000000 1.0
C      1  0.5445200000000  0.4612490000000  0.5036900000000 1.0
C      1  0.4685890000000  0.5511310000000  0.4951580000000 1.0
C      1  0.5264310000000  0.5518930000000  0.5044440000000 1.0
C      1  0.5538980000000  0.4646890000000  0.4418000000000 1.0
C      1  0.4418200000000  0.4588600000000  0.4423550000000 1.0
C      1  0.5602240000000  0.5142900000000  0.4470430000000 1.0
C      1  0.4335790000000  0.5091320000000  0.4447460000000 1.0
C      1  0.4380600000000  0.5084860000000  0.5054080000000 1.0
C      1  0.5625010000000  0.5067930000000  0.5073410000000 1.0
C      1  0.4820530000000  0.4449930000000  0.4929860000000 1.0
C      1  0.5160200000000  0.4458390000000  0.4969610000000 1.0
C      1  0.5444620000000  0.5340980000000  0.4599060000000 1.0
C      1  0.4464710000000  0.5304890000000  0.4558970000000 1.0
C      1  0.4876320000000  0.5239790000000  0.5643930000000 1.0
C      1  0.5147290000000  0.5227300000000  0.5670140000000 1.0
C      1  0.4789930000000  0.5297020000000  0.4511790000000 1.0
C      1  0.5115660000000  0.5251880000000  0.4567720000000 1.0
C      1  0.4596990000000  0.5307730000000  0.5200720000000 1.0
C      1  0.5426560000000  0.5299620000000  0.5232030000000 1.0
C      1  0.4771150000000  0.4863700000000  0.5420910000000 1.0
C      1  0.5253480000000  0.4845100000000  0.5461840000000 1.0
C      1  0.5408180000000  0.5185940000000  0.5595910000000 1.0
C      1  0.4636190000000  0.5224510000000  0.5522130000000 1.0
C      1  0.5181110000000  0.5089410000000  0.5281630000000 1.0
C      1  0.4865390000000  0.5096860000000  0.5221260000000 1.0
C      1  0.4707000000000  0.5008780000000  0.4671950000000 1.0
C      1  0.5233840000000  0.4973680000000  0.4725630000000 1.0
C      1  0.5000280000000  0.4683050000000  0.5513750000000 1.0
END
