TITL C-2782235-7892-337 0.00010466267747432 125000 -69.5685605470596 0 0 14 (C2v) n - 1
REM
REM in /home/nfs/bkarasulu/CARBON/AIRSS/Generating-Clusters/REBO/Higher-Symm/SD-CG/HFTN-CG
REM
REM
REM
REM
REM
REM ./C.cell (12c818d87b63d06a65506943cc24bca4)
REM
REM compiler GCC version 9.2.1 20190827 (Red Hat 9.2.1-1)
REM options -cpp -mtune=generic -march=x86-64 -g -O0 -fpre-include=/usr/include/finclude/math-vector-fortran.h
REM seed -1562780248 -44790122 1198154864 -1217955393 -747028686 -596393549 -1835736894 -989319689 -902412272 -1658982457 504058917 1672032279 -2055305698 -1650555131 -2059520337 1054673125 -49802778 2041462716 -77709507 1675629537 -580331347 1380553047 -601332382 1098861838 663517786 -454120940 1924657756 -322278343 1134718546 1424874774 1666721830 -1614516582 19969855
REM
CELL 1.54180   50.00000   50.00000   50.00000   90.00000   90.00000   90.00000
LATT -1
SFAC C  
C      1  0.5581160000000  0.4848080000000  0.5202160000000 1.0
C      1  0.4635330000000  0.4849800000000  0.4743610000000 1.0
C      1  0.5581570000000  0.5132450000000  0.5201700000000 1.0
C      1  0.4635740000000  0.5132030000000  0.4743160000000 1.0
C      1  0.4418600000000  0.4849780000000  0.5202660000000 1.0
C      1  0.5364030000000  0.4848730000000  0.4743300000000 1.0
C      1  0.4419020000000  0.5134150000000  0.5202200000000 1.0
C      1  0.5364450000000  0.5130960000000  0.4742840000000 1.0
C      1  0.5359180000000  0.4746610000000  0.5034650000000 1.0
C      1  0.4640850000000  0.5235080000000  0.5034180000000 1.0
C      1  0.5359890000000  0.5234030000000  0.5033870000000 1.0
C      1  0.4640140000000  0.4747660000000  0.5034960000000 1.0
C      1  0.5137770000000  0.4990660000000  0.5040300000000 1.0
C      1  0.4862260000000  0.4991060000000  0.5040420000000 1.0
END
