TITL C-2782230-7391-1270 0.000191969962907317 125000 -429.662333271788 0 0 75 (C1) n - 1
REM
REM in /home/nfs/bkarasulu/CARBON/AIRSS/Generating-Clusters/REBO/Higher-Symm/SD-CG/HFTN-CG
REM
REM
REM
REM
REM
REM ./C.cell (12c818d87b63d06a65506943cc24bca4)
REM
REM compiler GCC version 9.2.1 20190827 (Red Hat 9.2.1-1)
REM options -cpp -mtune=generic -march=x86-64 -g -O0 -fpre-include=/usr/include/finclude/math-vector-fortran.h
REM seed 1479807932 470753422 -1806229854 1140494785 976506449 -1744062663 957146333 969803452 628618582 199489702 -731030268 702856419 447987421 1327428539 -1507410528 1859929272 607114873 1925021841 422297583 -418277848 -364423843 407949821 -2063898195 -1108059234 -1227094725 -232461933 1851909688 -587469434 1066197231 1160454248 -988379274 -694235868 -675075445
REM
CELL 1.54180   50.00000   50.00000   50.00000   90.00000   90.00000   90.00000
LATT -1
SFAC C  
C      1  0.4910360000000  0.4436410000000  0.4808490000000 1.0
C      1  0.5141700000000  0.4348400000000  0.4574260000000 1.0
C      1  0.4879140000000  0.4770010000000  0.5727250000000 1.0
C      1  0.4708190000000  0.5582350000000  0.5384720000000 1.0
C      1  0.4916360000000  0.5342320000000  0.4942030000000 1.0
C      1  0.4544980000000  0.5040480000000  0.4165890000000 1.0
C      1  0.4958120000000  0.5777240000000  0.5318390000000 1.0
C      1  0.5127410000000  0.4246140000000  0.4952930000000 1.0
C      1  0.5335020000000  0.4952170000000  0.4684660000000 1.0
C      1  0.5688330000000  0.5130420000000  0.4684290000000 1.0
C      1  0.5351120000000  0.5121020000000  0.4949330000000 1.0
C      1  0.4022970000000  0.5344710000000  0.5208790000000 1.0
C      1  0.4303520000000  0.4949450000000  0.5271990000000 1.0
C      1  0.4793570000000  0.4928610000000  0.4699960000000 1.0
C      1  0.5059600000000  0.4987070000000  0.5680110000000 1.0
C      1  0.5014810000000  0.5653920000000  0.5624480000000 1.0
C      1  0.5720250000000  0.5406950000000  0.5164790000000 1.0
C      1  0.4802480000000  0.4667210000000  0.4376760000000 1.0
C      1  0.4436990000000  0.5577650000000  0.5244240000000 1.0
C      1  0.5200120000000  0.5288660000000  0.5321040000000 1.0
C      1  0.4984790000000  0.4514660000000  0.5650030000000 1.0
C      1  0.5283920000000  0.5678810000000  0.5331960000000 1.0
C      1  0.5575740000000  0.5390560000000  0.4536640000000 1.0
C      1  0.4685770000000  0.4556070000000  0.4603950000000 1.0
C      1  0.5214130000000  0.4749940000000  0.4130550000000 1.0
C      1  0.5348170000000  0.4947560000000  0.5661140000000 1.0
C      1  0.5185680000000  0.4459250000000  0.5383610000000 1.0
C      1  0.5115350000000  0.5612940000000  0.4552120000000 1.0
C      1  0.5554150000000  0.4051600000000  0.4866960000000 1.0
C      1  0.4610570000000  0.5732470000000  0.4920750000000 1.0
C      1  0.5319900000000  0.4145900000000  0.4721410000000 1.0
C      1  0.5234300000000  0.5410630000000  0.4926010000000 1.0
C      1  0.5794550000000  0.4631500000000  0.4530470000000 1.0
C      1  0.5045870000000  0.4990000000000  0.4136940000000 1.0
C      1  0.5511620000000  0.5097260000000  0.5473560000000 1.0
C      1  0.5403740000000  0.5566200000000  0.4675120000000 1.0
C      1  0.5595170000000  0.4921030000000  0.5194960000000 1.0
C      1  0.5526030000000  0.4109530000000  0.5144100000000 1.0
C      1  0.5641440000000  0.4801230000000  0.4679110000000 1.0
C      1  0.4772460000000  0.4902290000000  0.4213530000000 1.0
C      1  0.4853510000000  0.4383100000000  0.5394010000000 1.0
C      1  0.5148490000000  0.5437620000000  0.5620830000000 1.0
C      1  0.4988160000000  0.5365180000000  0.4464050000000 1.0
C      1  0.4513240000000  0.4557360000000  0.5050350000000 1.0
C      1  0.4473230000000  0.4666920000000  0.4750620000000 1.0
C      1  0.4721070000000  0.5300770000000  0.5203800000000 1.0
C      1  0.4439630000000  0.5911720000000  0.4799200000000 1.0
C      1  0.5676780000000  0.5171310000000  0.5004020000000 1.0
C      1  0.5276030000000  0.4244710000000  0.5194590000000 1.0
C      1  0.5350130000000  0.4726630000000  0.5328390000000 1.0
C      1  0.5157360000000  0.5200350000000  0.4295040000000 1.0
C      1  0.4348210000000  0.5189100000000  0.4870010000000 1.0
C      1  0.4955830000000  0.5131540000000  0.5453290000000 1.0
C      1  0.5200360000000  0.4975410000000  0.5185000000000 1.0
C      1  0.4585040000000  0.4436750000000  0.5338880000000 1.0
C      1  0.5075660000000  0.4765000000000  0.4651610000000 1.0
C      1  0.4460410000000  0.4967420000000  0.4738670000000 1.0
C      1  0.4595000000000  0.5028050000000  0.5363640000000 1.0
C      1  0.5503010000000  0.4716790000000  0.4959160000000 1.0
C      1  0.4871670000000  0.4924770000000  0.5191730000000 1.0
C      1  0.5412450000000  0.5136720000000  0.4438630000000 1.0
C      1  0.4873520000000  0.5787700000000  0.5016610000000 1.0
C      1  0.5495480000000  0.5426100000000  0.5384990000000 1.0
C      1  0.4276630000000  0.4682950000000  0.5219240000000 1.0
C      1  0.4803030000000  0.4718470000000  0.4967450000000 1.0
C      1  0.5420950000000  0.4650660000000  0.5653760000000 1.0
C      1  0.4162950000000  0.5563530000000  0.5303840000000 1.0
C      1  0.5234330000000  0.4643660000000  0.4917370000000 1.0
C      1  0.4521490000000  0.5424700000000  0.4956850000000 1.0
C      1  0.4466850000000  0.4583620000000  0.5555930000000 1.0
C      1  0.4853150000000  0.5230460000000  0.4681620000000 1.0
C      1  0.4613490000000  0.4823230000000  0.5618390000000 1.0
C      1  0.4172090000000  0.5130400000000  0.5093100000000 1.0
C      1  0.5072180000000  0.5698530000000  0.4848440000000 1.0
C      1  0.5110180000000  0.4578180000000  0.4369570000000 1.0
END
