TITL C-2782231-7322-957 -0.00279245627970448 125000 -695.509504300825 0 0 121 (C1) n - 1
REM
REM in /home/nfs/bkarasulu/CARBON/AIRSS/Generating-Clusters/REBO/Higher-Symm/SD-CG/HFTN-CG
REM
REM
REM
REM
REM
REM ./C.cell (12c818d87b63d06a65506943cc24bca4)
REM
REM compiler GCC version 9.2.1 20190827 (Red Hat 9.2.1-1)
REM options -cpp -mtune=generic -march=x86-64 -g -O0 -fpre-include=/usr/include/finclude/math-vector-fortran.h
REM seed 1416325794 -271282166 -1417177312 -1632716325 614972306 556387830 -624033280 -72061982 1311606926 -1168035591 33142958 455116178 1527501169 613803183 -1528368858 761630827 -687943891 -55843050 548874301 -936066083 598296619 -1866021313 1954460368 1381887975 452104257 2002723446 431631652 -1998238728 367722479 1461117233 1341626781 -1469574460 791815480
REM
CELL 1.54180   50.00000   50.00000   50.00000   90.00000   90.00000   90.00000
LATT -1
SFAC C  
C      1  0.4402470000000  0.4596250000000  0.5226200000000 1.0
C      1  0.5503060000000  0.5408770000000  0.4710800000000 1.0
C      1  0.5512800000000  0.4483780000000  0.4370340000000 1.0
C      1  0.4524460000000  0.5489500000000  0.5622580000000 1.0
C      1  0.4583030000000  0.5323720000000  0.4320350000000 1.0
C      1  0.5441240000000  0.4565700000000  0.5552120000000 1.0
C      1  0.4152730000000  0.4334470000000  0.4661240000000 1.0
C      1  0.5866020000000  0.5682190000000  0.5251860000000 1.0
C      1  0.4831560000000  0.5534810000000  0.4383610000000 1.0
C      1  0.5204780000000  0.4375080000000  0.5696960000000 1.0
C      1  0.4764500000000  0.4354890000000  0.4486390000000 1.0
C      1  0.5270180000000  0.5592720000000  0.5588780000000 1.0
C      1  0.4816650000000  0.5696770000000  0.4606270000000 1.0
C      1  0.5050320000000  0.4232280000000  0.5529470000000 1.0
C      1  0.4109020000000  0.4804470000000  0.4872310000000 1.0
C      1  0.5746740000000  0.5196790000000  0.5119220000000 1.0
C      1  0.5197850000000  0.4768800000000  0.5584610000000 1.0
C      1  0.4586490000000  0.5347470000000  0.4638120000000 1.0
C      1  0.5760050000000  0.4696140000000  0.4269770000000 1.0
C      1  0.4263440000000  0.5285420000000  0.5703160000000 1.0
C      1  0.4343010000000  0.4829260000000  0.5362130000000 1.0
C      1  0.5545480000000  0.5177600000000  0.4559110000000 1.0
C      1  0.4996680000000  0.4700070000000  0.4103800000000 1.0
C      1  0.5021880000000  0.5194680000000  0.5874800000000 1.0
C      1  0.5688470000000  0.4378440000000  0.4643130000000 1.0
C      1  0.4395810000000  0.5616010000000  0.5335930000000 1.0
C      1  0.4003080000000  0.5272680000000  0.5849360000000 1.0
C      1  0.6011110000000  0.4703400000000  0.4109640000000 1.0
C      1  0.5490740000000  0.4807910000000  0.4146560000000 1.0
C      1  0.4520790000000  0.5170470000000  0.5854760000000 1.0
C      1  0.4779020000000  0.4541320000000  0.4136410000000 1.0
C      1  0.5228070000000  0.5404030000000  0.5867360000000 1.0
C      1  0.5618590000000  0.4947260000000  0.4728280000000 1.0
C      1  0.4312410000000  0.5063560000000  0.5177680000000 1.0
C      1  0.5156040000000  0.5371580000000  0.5231980000000 1.0
C      1  0.4786010000000  0.4606280000000  0.4709420000000 1.0
C      1  0.5899310000000  0.5061190000000  0.5670280000000 1.0
C      1  0.4285930000000  0.5043890000000  0.4402500000000 1.0
C      1  0.4280590000000  0.5571730000000  0.5070270000000 1.0
C      1  0.5807590000000  0.4447090000000  0.4922110000000 1.0
C      1  0.5182750000000  0.5082630000000  0.3885560000000 1.0
C      1  0.4872490000000  0.4963970000000  0.6064730000000 1.0
C      1  0.5239700000000  0.4891800000000  0.4841940000000 1.0
C      1  0.4692120000000  0.5140960000000  0.5084790000000 1.0
C      1  0.4522980000000  0.5648710000000  0.4765430000000 1.0
C      1  0.5496930000000  0.4487050000000  0.5270140000000 1.0
C      1  0.4954140000000  0.4954640000000  0.3988870000000 1.0
C      1  0.5134770000000  0.4876560000000  0.5880870000000 1.0
C      1  0.5099680000000  0.4546750000000  0.4587240000000 1.0
C      1  0.4914260000000  0.5471350000000  0.5454870000000 1.0
C      1  0.5148600000000  0.3861230000000  0.5213220000000 1.0
C      1  0.4960780000000  0.6164560000000  0.4759340000000 1.0
C      1  0.4503720000000  0.4121370000000  0.5036990000000 1.0
C      1  0.5506240000000  0.5887740000000  0.4946690000000 1.0
C      1  0.5485280000000  0.5003750000000  0.5034060000000 1.0
C      1  0.4466380000000  0.4982600000000  0.4885230000000 1.0
C      1  0.4239260000000  0.4543800000000  0.5003020000000 1.0
C      1  0.5685700000000  0.5446620000000  0.4917340000000 1.0
C      1  0.5200390000000  0.5065750000000  0.5199300000000 1.0
C      1  0.4754080000000  0.4884810000000  0.4772340000000 1.0
C      1  0.4672730000000  0.4020550000000  0.5569620000000 1.0
C      1  0.5157750000000  0.5925520000000  0.4342550000000 1.0
C      1  0.5495400000000  0.5355660000000  0.5697940000000 1.0
C      1  0.4572950000000  0.4615040000000  0.4374100000000 1.0
C      1  0.5800380000000  0.5339250000000  0.5600310000000 1.0
C      1  0.4402010000000  0.4804610000000  0.4600920000000 1.0
C      1  0.5242950000000  0.5843290000000  0.4999870000000 1.0
C      1  0.4774870000000  0.4149650000000  0.5044940000000 1.0
C      1  0.4601350000000  0.4994440000000  0.6048940000000 1.0
C      1  0.5432310000000  0.4995910000000  0.3961340000000 1.0
C      1  0.5866040000000  0.4884630000000  0.5185630000000 1.0
C      1  0.4094380000000  0.5121610000000  0.4848210000000 1.0
C      1  0.4986420000000  0.5891480000000  0.4828210000000 1.0
C      1  0.5047530000000  0.4127710000000  0.5226900000000 1.0
C      1  0.4978580000000  0.4793090000000  0.5400910000000 1.0
C      1  0.4858630000000  0.5268910000000  0.4750550000000 1.0
C      1  0.5193370000000  0.4222060000000  0.4798970000000 1.0
C      1  0.4877050000000  0.5821470000000  0.5267530000000 1.0
C      1  0.4977630000000  0.5770810000000  0.5593440000000 1.0
C      1  0.5080500000000  0.4226670000000  0.4469640000000 1.0
C      1  0.4778810000000  0.5453250000000  0.5146090000000 1.0
C      1  0.5120320000000  0.4592590000000  0.4925220000000 1.0
C      1  0.5409740000000  0.4231720000000  0.4555270000000 1.0
C      1  0.4649220000000  0.5766550000000  0.5499040000000 1.0
C      1  0.5283050000000  0.4577870000000  0.5917270000000 1.0
C      1  0.4939900000000  0.5285670000000  0.4211990000000 1.0
C      1  0.6003280000000  0.4898510000000  0.5462760000000 1.0
C      1  0.4113420000000  0.5202220000000  0.4537280000000 1.0
C      1  0.5851580000000  0.5412300000000  0.5338700000000 1.0
C      1  0.4137300000000  0.4613370000000  0.4623070000000 1.0
C      1  0.5205600000000  0.5745900000000  0.4527290000000 1.0
C      1  0.4665860000000  0.4235390000000  0.5419680000000 1.0
C      1  0.4033170000000  0.5254310000000  0.5141210000000 1.0
C      1  0.5896340000000  0.4833200000000  0.4868770000000 1.0
C      1  0.5043200000000  0.5460770000000  0.4922100000000 1.0
C      1  0.4905250000000  0.4600320000000  0.5184680000000 1.0
C      1  0.5395240000000  0.5149260000000  0.4328810000000 1.0
C      1  0.4476000000000  0.4864840000000  0.5602570000000 1.0
C      1  0.5516690000000  0.4780810000000  0.5810810000000 1.0
C      1  0.4689440000000  0.5099520000000  0.4087830000000 1.0
C      1  0.4658470000000  0.4465460000000  0.5259200000000 1.0
C      1  0.5256320000000  0.5555570000000  0.4723000000000 1.0
C      1  0.5024180000000  0.5035600000000  0.4619930000000 1.0
C      1  0.4890860000000  0.5101080000000  0.5357870000000 1.0
C      1  0.4785950000000  0.5299060000000  0.5702150000000 1.0
C      1  0.5233750000000  0.4655880000000  0.4294240000000 1.0
C      1  0.4878560000000  0.4292450000000  0.4803580000000 1.0
C      1  0.5191330000000  0.5693290000000  0.5271120000000 1.0
C      1  0.5719620000000  0.5713410000000  0.5011250000000 1.0
C      1  0.4284850000000  0.4256160000000  0.4913600000000 1.0
C      1  0.5776130000000  0.4688920000000  0.4588200000000 1.0
C      1  0.4249360000000  0.5327300000000  0.5384650000000 1.0
C      1  0.5125190000000  0.5120880000000  0.4353050000000 1.0
C      1  0.4735480000000  0.4921680000000  0.5587880000000 1.0
C      1  0.5724450000000  0.4591230000000  0.5135980000000 1.0
C      1  0.4309700000000  0.5385950000000  0.4832400000000 1.0
C      1  0.5269670000000  0.4352310000000  0.5099820000000 1.0
C      1  0.4733900000000  0.5744510000000  0.4989670000000 1.0
C      1  0.5607070000000  0.5039730000000  0.5771670000000 1.0
C      1  0.4489610000000  0.4907540000000  0.4228800000000 1.0
C      1  0.4960920000000  0.4950830000000  0.5002100000000 1.0
END
