TITL C-2782237-5345-991 0.00294378554576905 125000 -1080.32033390181 0 0 183 (C1) n - 1
REM
REM in /home/nfs/bkarasulu/CARBON/AIRSS/Generating-Clusters/REBO/Higher-Symm/SD-CG/HFTN-CG
REM
REM
REM
REM
REM
REM ./C.cell (12c818d87b63d06a65506943cc24bca4)
REM
REM compiler GCC version 9.2.1 20190827 (Red Hat 9.2.1-1)
REM options -cpp -mtune=generic -march=x86-64 -g -O0 -fpre-include=/usr/include/finclude/math-vector-fortran.h
REM seed 892441410 -1765641342 1427482416 -550549517 -1822885976 -1739897175 1703723697 -400361725 -52519593 -349425438 2034163092 39507014 -562467239 676715489 47166739 -882302216 -1873291272 -1375410706 550518446 62019675 -1802716327 -1181011651 -1244045035 -44178604 1316999473 1156669046 1454865381 -1628987337 1925109380 1226801273 -368872035 254224094 -1525520096
REM
CELL 1.54180   50.00000   50.00000   50.00000   90.00000   90.00000   90.00000
LATT -1
SFAC C  
C      1  0.5393080000000  0.4572180000000  0.4024150000000 1.0
C      1  0.5374090000000  0.5392840000000  0.5854180000000 1.0
C      1  0.4567600000000  0.5463650000000  0.4089560000000 1.0
C      1  0.4554300000000  0.4599040000000  0.5880220000000 1.0
C      1  0.5396800000000  0.4712380000000  0.5432700000000 1.0
C      1  0.5193770000000  0.5407590000000  0.4580980000000 1.0
C      1  0.4526900000000  0.5240960000000  0.5406230000000 1.0
C      1  0.4844240000000  0.4615310000000  0.4570850000000 1.0
C      1  0.4801240000000  0.6058870000000  0.4622170000000 1.0
C      1  0.3966330000000  0.4783020000000  0.5377470000000 1.0
C      1  0.5211600000000  0.3959770000000  0.4611520000000 1.0
C      1  0.6024430000000  0.5197510000000  0.5378690000000 1.0
C      1  0.5397510000000  0.5474010000000  0.4917900000000 1.0
C      1  0.4402750000000  0.5395450000000  0.5059380000000 1.0
C      1  0.4639900000000  0.4502030000000  0.4971650000000 1.0
C      1  0.5544860000000  0.4572550000000  0.5003570000000 1.0
C      1  0.4922950000000  0.4034600000000  0.4995580000000 1.0
C      1  0.6030110000000  0.4735010000000  0.4967510000000 1.0
C      1  0.5156710000000  0.5898580000000  0.5025030000000 1.0
C      1  0.3945280000000  0.5174390000000  0.4986300000000 1.0
C      1  0.4452450000000  0.4718250000000  0.5416830000000 1.0
C      1  0.5332840000000  0.4411120000000  0.4501420000000 1.0
C      1  0.5613040000000  0.5350990000000  0.5362600000000 1.0
C      1  0.4713190000000  0.5612710000000  0.4558370000000 1.0
C      1  0.5941900000000  0.4812920000000  0.4419110000000 1.0
C      1  0.5196760000000  0.5912460000000  0.5554470000000 1.0
C      1  0.4073560000000  0.5285080000000  0.4472060000000 1.0
C      1  0.4767820000000  0.4041790000000  0.5603290000000 1.0
C      1  0.5217350000000  0.4339360000000  0.4996100000000 1.0
C      1  0.5751070000000  0.5113720000000  0.4895690000000 1.0
C      1  0.4874000000000  0.5636500000000  0.5132890000000 1.0
C      1  0.4300990000000  0.4872870000000  0.4889990000000 1.0
C      1  0.4887650000000  0.4761600000000  0.5503970000000 1.0
C      1  0.5291880000000  0.4808300000000  0.4463000000000 1.0
C      1  0.5285050000000  0.5190020000000  0.5521170000000 1.0
C      1  0.4914580000000  0.5208240000000  0.4377110000000 1.0
C      1  0.4981470000000  0.5180710000000  0.4700150000000 1.0
C      1  0.4758040000000  0.4998980000000  0.5339070000000 1.0
C      1  0.5055820000000  0.4852220000000  0.4669050000000 1.0
C      1  0.5316230000000  0.4976110000000  0.5306920000000 1.0
C      1  0.5604580000000  0.4943600000000  0.5895470000000 1.0
C      1  0.5059570000000  0.5654600000000  0.4144800000000 1.0
C      1  0.4353220000000  0.5048830000000  0.5820230000000 1.0
C      1  0.4904330000000  0.4352390000000  0.4160630000000 1.0
C      1  0.4691480000000  0.4962790000000  0.4455370000000 1.0
C      1  0.5171060000000  0.4656030000000  0.5642270000000 1.0
C      1  0.5427670000000  0.5083940000000  0.4340500000000 1.0
C      1  0.4794770000000  0.5353210000000  0.5566190000000 1.0
C      1  0.5340650000000  0.5078390000000  0.5822770000000 1.0
C      1  0.4820240000000  0.5484970000000  0.4302070000000 1.0
C      1  0.4608460000000  0.4867250000000  0.5684340000000 1.0
C      1  0.5146390000000  0.4573470000000  0.4260180000000 1.0
C      1  0.3906280000000  0.4905920000000  0.4873520000000 1.0
C      1  0.5155340000000  0.3863500000000  0.5138750000000 1.0
C      1  0.6134030000000  0.5007470000000  0.4905100000000 1.0
C      1  0.4914920000000  0.6042110000000  0.5112310000000 1.0
C      1  0.5278440000000  0.4733830000000  0.4993850000000 1.0
C      1  0.5202490000000  0.5256690000000  0.5048880000000 1.0
C      1  0.4691960000000  0.5255870000000  0.4981580000000 1.0
C      1  0.4814540000000  0.4792630000000  0.5002990000000 1.0
C      1  0.5096720000000  0.5526980000000  0.5999370000000 1.0
C      1  0.4486670000000  0.5149460000000  0.4052250000000 1.0
C      1  0.4822650000000  0.4468350000000  0.6011940000000 1.0
C      1  0.5530000000000  0.4866620000000  0.3963860000000 1.0
C      1  0.4098850000000  0.5650830000000  0.4864810000000 1.0
C      1  0.4467360000000  0.4120410000000  0.5195400000000 1.0
C      1  0.5833970000000  0.4307430000000  0.4942320000000 1.0
C      1  0.5546760000000  0.5883290000000  0.5097470000000 1.0
C      1  0.4242190000000  0.4575930000000  0.5852170000000 1.0
C      1  0.5412800000000  0.4277380000000  0.4134280000000 1.0
C      1  0.5644540000000  0.5387530000000  0.5700940000000 1.0
C      1  0.4561370000000  0.5763710000000  0.4180840000000 1.0
C      1  0.4619560000000  0.5438380000000  0.5915410000000 1.0
C      1  0.4553080000000  0.4669830000000  0.4141820000000 1.0
C      1  0.5323080000000  0.4560800000000  0.6000440000000 1.0
C      1  0.5439010000000  0.5356350000000  0.4048820000000 1.0
C      1  0.5131140000000  0.4880110000000  0.5862070000000 1.0
C      1  0.5142240000000  0.5140990000000  0.4205560000000 1.0
C      1  0.4815590000000  0.5117290000000  0.5786050000000 1.0
C      1  0.4909990000000  0.4819350000000  0.4234500000000 1.0
C      1  0.5308530000000  0.4055660000000  0.4912570000000 1.0
C      1  0.6014980000000  0.5251380000000  0.5060740000000 1.0
C      1  0.4724170000000  0.6102110000000  0.4922960000000 1.0
C      1  0.4055260000000  0.4705030000000  0.5064380000000 1.0
C      1  0.4958990000000  0.3947530000000  0.5374880000000 1.0
C      1  0.5960790000000  0.4969790000000  0.4653230000000 1.0
C      1  0.4962620000000  0.5865190000000  0.5368960000000 1.0
C      1  0.4103940000000  0.4981070000000  0.4629490000000 1.0
C      1  0.4525580000000  0.4881600000000  0.5125800000000 1.0
C      1  0.5193880000000  0.4545050000000  0.4745620000000 1.0
C      1  0.5522420000000  0.5154150000000  0.5121930000000 1.0
C      1  0.4874710000000  0.5481740000000  0.4828050000000 1.0
C      1  0.4315000000000  0.4559840000000  0.4561420000000 1.0
C      1  0.5518950000000  0.4264600000000  0.5661600000000 1.0
C      1  0.5737690000000  0.5523460000000  0.4403680000000 1.0
C      1  0.4441310000000  0.5730050000000  0.5577820000000 1.0
C      1  0.5520240000000  0.5716580000000  0.4346800000000 1.0
C      1  0.4241740000000  0.5534390000000  0.5663040000000 1.0
C      1  0.4468000000000  0.4306520000000  0.4431020000000 1.0
C      1  0.5713320000000  0.4471520000000  0.5743970000000 1.0
C      1  0.4497350000000  0.4163000000000  0.5514330000000 1.0
C      1  0.5874170000000  0.4479220000000  0.4423500000000 1.0
C      1  0.5510760000000  0.5854550000000  0.5434970000000 1.0
C      1  0.4150590000000  0.5616620000000  0.4527920000000 1.0
C      1  0.5746270000000  0.5538170000000  0.4734250000000 1.0
C      1  0.4386260000000  0.5779600000000  0.5285290000000 1.0
C      1  0.4249110000000  0.4453620000000  0.4854410000000 1.0
C      1  0.5547640000000  0.4232480000000  0.5380220000000 1.0
C      1  0.5690460000000  0.5269250000000  0.4234860000000 1.0
C      1  0.4723550000000  0.5653350000000  0.5696420000000 1.0
C      1  0.4393740000000  0.4813440000000  0.4379310000000 1.0
C      1  0.5231360000000  0.4346490000000  0.5770510000000 1.0
C      1  0.5622820000000  0.4272060000000  0.4386210000000 1.0
C      1  0.5734090000000  0.5640600000000  0.5494940000000 1.0
C      1  0.4411160000000  0.5760900000000  0.4463530000000 1.0
C      1  0.4338380000000  0.4432750000000  0.5570940000000 1.0
C      1  0.5595380000000  0.4709310000000  0.4587350000000 1.0
C      1  0.5175750000000  0.5472330000000  0.5383860000000 1.0
C      1  0.4425090000000  0.5312330000000  0.4659540000000 1.0
C      1  0.4830530000000  0.4454380000000  0.5372100000000 1.0
C      1  0.4050380000000  0.5507970000000  0.5417830000000 1.0
C      1  0.4517090000000  0.4123520000000  0.4649560000000 1.0
C      1  0.5880210000000  0.4482780000000  0.5454370000000 1.0
C      1  0.5465880000000  0.5870540000000  0.4582880000000 1.0
C      1  0.4131580000000  0.4842610000000  0.5832700000000 1.0
C      1  0.5154340000000  0.4169100000000  0.4175350000000 1.0
C      1  0.5785150000000  0.5122440000000  0.5770720000000 1.0
C      1  0.4827570000000  0.5864870000000  0.4177200000000 1.0
C      1  0.5325810000000  0.5082760000000  0.3924710000000 1.0
C      1  0.4876830000000  0.5321310000000  0.6058740000000 1.0
C      1  0.4678740000000  0.4925320000000  0.3997560000000 1.0
C      1  0.5026770000000  0.4670860000000  0.6103860000000 1.0
C      1  0.5492750000000  0.5328930000000  0.4648270000000 1.0
C      1  0.4608090000000  0.5541530000000  0.5267280000000 1.0
C      1  0.4585590000000  0.4665900000000  0.4701360000000 1.0
C      1  0.5378840000000  0.4449230000000  0.5254460000000 1.0
C      1  0.4567250000000  0.5042450000000  0.4762730000000 1.0
C      1  0.5014440000000  0.4570440000000  0.5142790000000 1.0
C      1  0.5568750000000  0.5026350000000  0.4644820000000 1.0
C      1  0.4916140000000  0.5288070000000  0.5243040000000 1.0
C      1  0.5584430000000  0.4661040000000  0.5923570000000 1.0
C      1  0.5334540000000  0.5602590000000  0.4149570000000 1.0
C      1  0.4369130000000  0.5333270000000  0.5830780000000 1.0
C      1  0.4634210000000  0.4408780000000  0.4213730000000 1.0
C      1  0.4111260000000  0.5342420000000  0.4792070000000 1.0
C      1  0.4775480000000  0.4191360000000  0.5233350000000 1.0
C      1  0.5872320000000  0.4577430000000  0.4737490000000 1.0
C      1  0.5297840000000  0.5693570000000  0.5236750000000 1.0
C      1  0.5893460000000  0.5012690000000  0.5539280000000 1.0
C      1  0.4954250000000  0.5910180000000  0.4442860000000 1.0
C      1  0.4055640000000  0.4961320000000  0.5567950000000 1.0
C      1  0.5050190000000  0.4121710000000  0.4452080000000 1.0
C      1  0.4755690000000  0.4237220000000  0.4836590000000 1.0
C      1  0.5806540000000  0.4643060000000  0.5157630000000 1.0
C      1  0.5271090000000  0.5727750000000  0.4809850000000 1.0
C      1  0.4152860000000  0.5304160000000  0.5185080000000 1.0
C      1  0.5516580000000  0.4062450000000  0.4634030000000 1.0
C      1  0.5961770000000  0.5514980000000  0.5273160000000 1.0
C      1  0.4522520000000  0.5917230000000  0.4731400000000 1.0
C      1  0.4124090000000  0.4504490000000  0.5336820000000 1.0
C      1  0.4372050000000  0.4173900000000  0.4929470000000 1.0
C      1  0.5812760000000  0.4248830000000  0.5223350000000 1.0
C      1  0.5652400000000  0.5839500000000  0.4840540000000 1.0
C      1  0.4128990000000  0.5701610000000  0.5147210000000 1.0
C      1  0.4491940000000  0.5596780000000  0.4817580000000 1.0
C      1  0.4391560000000  0.4508560000000  0.5153100000000 1.0
C      1  0.5545180000000  0.4356800000000  0.4768100000000 1.0
C      1  0.5689380000000  0.5511860000000  0.5069120000000 1.0
C      1  0.5727080000000  0.4776170000000  0.5447500000000 1.0
C      1  0.5108490000000  0.5696420000000  0.4539330000000 1.0
C      1  0.4217390000000  0.5185580000000  0.5470520000000 1.0
C      1  0.4902810000000  0.4330710000000  0.4576010000000 1.0
C      1  0.5605880000000  0.4691360000000  0.4250300000000 1.0
C      1  0.5156700000000  0.5535210000000  0.5671970000000 1.0
C      1  0.4453790000000  0.5304910000000  0.4360840000000 1.0
C      1  0.4747220000000  0.4431500000000  0.5673830000000 1.0
C      1  0.4237010000000  0.5066770000000  0.4268760000000 1.0
C      1  0.4950240000000  0.4215080000000  0.5823970000000 1.0
C      1  0.5781950000000  0.4967830000000  0.4170550000000 1.0
C      1  0.4995870000000  0.5789500000000  0.5801040000000 1.0
C      1  0.4918910000000  0.4993090000000  0.6087150000000 1.0
C      1  0.5004540000000  0.4981060000000  0.3947420000000 1.0
C      1  0.5069190000000  0.4960030000000  0.5073540000000 1.0
END
