TITL C-2782231-7322-348 0.00178291263020611 125000 -616.049074212149 0 0 110 (C1) n - 1
REM
REM in /home/nfs/bkarasulu/CARBON/AIRSS/Generating-Clusters/REBO/Higher-Symm/SD-CG/HFTN-CG
REM
REM
REM
REM
REM
REM ./C.cell (12c818d87b63d06a65506943cc24bca4)
REM
REM compiler GCC version 9.2.1 20190827 (Red Hat 9.2.1-1)
REM options -cpp -mtune=generic -march=x86-64 -g -O0 -fpre-include=/usr/include/finclude/math-vector-fortran.h
REM seed 299054205 -951972690 -739123746 -1476694061 -992180667 -1713929976 -1986707162 1536466111 66288145 -1034228130 -373722716 -977986865 811594203 1861257582 1288290414 1071345141 -73264122 77647009 1241717313 -1343397726 -1838109691 60147394 -362217630 421399104 -927087209 287091788 772454649 350235895 -513456380 2079193786 -211848573 -1001388865 -814844156
REM
CELL 1.54180   50.00000   50.00000   50.00000   90.00000   90.00000   90.00000
LATT -1
SFAC C  
C      1  0.4623390000000  0.5553910000000  0.4545660000000 1.0
C      1  0.4444090000000  0.5558030000000  0.5208110000000 1.0
C      1  0.5009060000000  0.5502600000000  0.5673030000000 1.0
C      1  0.5566440000000  0.5586250000000  0.5151610000000 1.0
C      1  0.5367240000000  0.5585230000000  0.4531280000000 1.0
C      1  0.4597280000000  0.4488110000000  0.5543710000000 1.0
C      1  0.4436440000000  0.4411140000000  0.4804670000000 1.0
C      1  0.5042920000000  0.4438070000000  0.4416370000000 1.0
C      1  0.5588880000000  0.4453310000000  0.4846780000000 1.0
C      1  0.5326060000000  0.4441460000000  0.5482700000000 1.0
C      1  0.4946180000000  0.4728840000000  0.4266750000000 1.0
C      1  0.4293650000000  0.4725410000000  0.4816100000000 1.0
C      1  0.4538010000000  0.4771100000000  0.5694310000000 1.0
C      1  0.5472450000000  0.4733440000000  0.5585350000000 1.0
C      1  0.5706060000000  0.4752510000000  0.4737720000000 1.0
C      1  0.4959320000000  0.5224600000000  0.5831680000000 1.0
C      1  0.4264410000000  0.5267020000000  0.5199300000000 1.0
C      1  0.4587370000000  0.5259460000000  0.4378340000000 1.0
C      1  0.5448690000000  0.5268130000000  0.4428750000000 1.0
C      1  0.5669950000000  0.5275940000000  0.5260600000000 1.0
C      1  0.4707280000000  0.4899370000000  0.4938630000000 1.0
C      1  0.4854260000000  0.4847110000000  0.5306650000000 1.0
C      1  0.5176490000000  0.4864020000000  0.5244280000000 1.0
C      1  0.5323060000000  0.4819530000000  0.4844280000000 1.0
C      1  0.4926770000000  0.4880150000000  0.4666350000000 1.0
C      1  0.4715930000000  0.5146920000000  0.5081530000000 1.0
C      1  0.4834130000000  0.5172800000000  0.4679560000000 1.0
C      1  0.5234960000000  0.5106260000000  0.4773240000000 1.0
C      1  0.5262720000000  0.5101930000000  0.5118210000000 1.0
C      1  0.4930560000000  0.5165950000000  0.5331440000000 1.0
C      1  0.5255130000000  0.4236880000000  0.5204680000000 1.0
C      1  0.5302010000000  0.4243270000000  0.4866630000000 1.0
C      1  0.4993300000000  0.4228600000000  0.4702260000000 1.0
C      1  0.4728630000000  0.4237890000000  0.4922520000000 1.0
C      1  0.4914320000000  0.4224130000000  0.5211180000000 1.0
C      1  0.5180640000000  0.5779030000000  0.4762140000000 1.0
C      1  0.5263030000000  0.5761900000000  0.5092670000000 1.0
C      1  0.4948170000000  0.5780420000000  0.5230260000000 1.0
C      1  0.4672140000000  0.5754570000000  0.5031940000000 1.0
C      1  0.4838370000000  0.5762250000000  0.4735380000000 1.0
C      1  0.5120820000000  0.5127330000000  0.5554350000000 1.0
C      1  0.5559910000000  0.5138840000000  0.4995870000000 1.0
C      1  0.5163750000000  0.5125110000000  0.4462840000000 1.0
C      1  0.4512920000000  0.5189570000000  0.4702110000000 1.0
C      1  0.4535470000000  0.5195170000000  0.5347300000000 1.0
C      1  0.5194250000000  0.4807120000000  0.4468780000000 1.0
C      1  0.5575270000000  0.4815060000000  0.5039440000000 1.0
C      1  0.5163010000000  0.4800860000000  0.5553960000000 1.0
C      1  0.4567500000000  0.4868540000000  0.5374830000000 1.0
C      1  0.4534670000000  0.4864090000000  0.4664550000000 1.0
C      1  0.5629340000000  0.4874900000000  0.5346770000000 1.0
C      1  0.5521570000000  0.4879550000000  0.4505100000000 1.0
C      1  0.4669130000000  0.4870280000000  0.4361780000000 1.0
C      1  0.4348440000000  0.4885850000000  0.5113520000000 1.0
C      1  0.4864640000000  0.4860620000000  0.5705940000000 1.0
C      1  0.5621420000000  0.5136450000000  0.4676600000000 1.0
C      1  0.5451480000000  0.5115440000000  0.5469910000000 1.0
C      1  0.4688180000000  0.5135240000000  0.5646530000000 1.0
C      1  0.4282640000000  0.5130420000000  0.4912840000000 1.0
C      1  0.4873130000000  0.5120480000000  0.4287430000000 1.0
C      1  0.4803920000000  0.5403570000000  0.4908150000000 1.0
C      1  0.4933210000000  0.5465230000000  0.5180780000000 1.0
C      1  0.5239420000000  0.5392200000000  0.5232340000000 1.0
C      1  0.5300670000000  0.5421550000000  0.4889760000000 1.0
C      1  0.5033180000000  0.5429750000000  0.4672950000000 1.0
C      1  0.4660880000000  0.4606960000000  0.5057140000000 1.0
C      1  0.4794250000000  0.4572970000000  0.4736550000000 1.0
C      1  0.5131910000000  0.4570690000000  0.4781450000000 1.0
C      1  0.5239330000000  0.4606650000000  0.5084510000000 1.0
C      1  0.4946320000000  0.4543620000000  0.5191610000000 1.0
C      1  0.4326050000000  0.4677690000000  0.4372720000000 1.0
C      1  0.4162120000000  0.4674130000000  0.5387220000000 1.0
C      1  0.5095310000000  0.4596330000000  0.5890790000000 1.0
C      1  0.5923110000000  0.4673790000000  0.5169510000000 1.0
C      1  0.5434060000000  0.4654890000000  0.4189510000000 1.0
C      1  0.4394030000000  0.5399630000000  0.5670340000000 1.0
C      1  0.4159080000000  0.5336550000000  0.4595680000000 1.0
C      1  0.5173910000000  0.5304880000000  0.4107540000000 1.0
C      1  0.5910300000000  0.5346270000000  0.4839980000000 1.0
C      1  0.5446930000000  0.5322750000000  0.5803080000000 1.0
C      1  0.5901680000000  0.5015200000000  0.4840710000000 1.0
C      1  0.5118140000000  0.4974140000000  0.4099030000000 1.0
C      1  0.4164280000000  0.4994840000000  0.4630630000000 1.0
C      1  0.4355120000000  0.5060430000000  0.5673670000000 1.0
C      1  0.5411350000000  0.5000430000000  0.5794300000000 1.0
C      1  0.5888870000000  0.5015640000000  0.5180910000000 1.0
C      1  0.5118960000000  0.4935480000000  0.5923590000000 1.0
C      1  0.4192540000000  0.4997590000000  0.5401260000000 1.0
C      1  0.4353310000000  0.5010770000000  0.4346460000000 1.0
C      1  0.5437430000000  0.4997640000000  0.4206990000000 1.0
C      1  0.5404830000000  0.5720400000000  0.5391910000000 1.0
C      1  0.5520140000000  0.5791460000000  0.4730470000000 1.0
C      1  0.4879770000000  0.5694310000000  0.4408990000000 1.0
C      1  0.4358440000000  0.5685530000000  0.4919090000000 1.0
C      1  0.4819200000000  0.5647430000000  0.5516560000000 1.0
C      1  0.5470980000000  0.4316410000000  0.4578960000000 1.0
C      1  0.5570720000000  0.4317790000000  0.5303960000000 1.0
C      1  0.4844010000000  0.4345310000000  0.5521840000000 1.0
C      1  0.4440430000000  0.4272420000000  0.5088210000000 1.0
C      1  0.4765530000000  0.4285870000000  0.4456440000000 1.0
C      1  0.5295160000000  0.5484970000000  0.5558590000000 1.0
C      1  0.5631360000000  0.5504660000000  0.4851340000000 1.0
C      1  0.5116610000000  0.5503300000000  0.4347700000000 1.0
C      1  0.4334780000000  0.5545240000000  0.4669960000000 1.0
C      1  0.4544920000000  0.5563540000000  0.5500830000000 1.0
C      1  0.5343620000000  0.4451660000000  0.4362810000000 1.0
C      1  0.5739930000000  0.4461090000000  0.5121710000000 1.0
C      1  0.5076460000000  0.4428540000000  0.5667250000000 1.0
C      1  0.4426550000000  0.4507260000000  0.5287470000000 1.0
C      1  0.4539540000000  0.4492100000000  0.4519610000000 1.0
END
