TITL C-2782229-3092-226 -0.0213757758103424 125000 -781.465370479682 0 0 131 (C1) n - 1
REM
REM in /home/nfs/bkarasulu/CARBON/AIRSS/Generating-Clusters/REBO/Higher-Symm/SD-CG/HFTN-CG
REM
REM
REM
REM
REM
REM ./C.cell (12c818d87b63d06a65506943cc24bca4)
REM
REM compiler GCC version 9.2.1 20190827 (Red Hat 9.2.1-1)
REM options -cpp -mtune=generic -march=x86-64 -g -O0 -fpre-include=/usr/include/finclude/math-vector-fortran.h
REM seed -1231265280 -1229516889 -1112317999 -1784409760 -224176079 -245442813 -1913776664 -194170389 1845061416 -1980471078 -851790766 707490803 2075497740 999714428 885896417 -292167899 848204527 1115651886 -142464196 -296825841 -1582475995 1556885073 1052014315 751065833 1118447457 768174821 -96095734 2061118881 746522823 1206776419 1237453671 -202571657 -684912077
REM
CELL 1.54180   50.00000   50.00000   50.00000   90.00000   90.00000   90.00000
LATT -1
SFAC C  
C      1  0.5549050000000  0.4451200000000  0.5304950000000 1.0
C      1  0.5534300000000  0.5405520000000  0.5236130000000 1.0
C      1  0.4366230000000  0.4396250000000  0.5417630000000 1.0
C      1  0.4397730000000  0.5640050000000  0.5406490000000 1.0
C      1  0.4562510000000  0.4317520000000  0.4655570000000 1.0
C      1  0.4574290000000  0.5751800000000  0.4628520000000 1.0
C      1  0.4644860000000  0.4360830000000  0.5378580000000 1.0
C      1  0.4676940000000  0.5672240000000  0.5377540000000 1.0
C      1  0.4700850000000  0.4691770000000  0.4732840000000 1.0
C      1  0.4646620000000  0.5373330000000  0.4727610000000 1.0
C      1  0.4889260000000  0.5713990000000  0.4502060000000 1.0
C      1  0.4886400000000  0.4335310000000  0.4540720000000 1.0
C      1  0.5328630000000  0.4207910000000  0.4892880000000 1.0
C      1  0.5359540000000  0.5741970000000  0.4851800000000 1.0
C      1  0.4229060000000  0.4430890000000  0.5169110000000 1.0
C      1  0.4317620000000  0.5502040000000  0.5153800000000 1.0
C      1  0.5825540000000  0.5303010000000  0.5111280000000 1.0
C      1  0.5857130000000  0.4496210000000  0.5236910000000 1.0
C      1  0.4966350000000  0.5252130000000  0.5517640000000 1.0
C      1  0.4945020000000  0.4735410000000  0.5535630000000 1.0
C      1  0.4476080000000  0.5392980000000  0.5804150000000 1.0
C      1  0.4496670000000  0.4624470000000  0.5840550000000 1.0
C      1  0.5340150000000  0.4454440000000  0.5543500000000 1.0
C      1  0.5356750000000  0.5494290000000  0.5508100000000 1.0
C      1  0.5106840000000  0.4427840000000  0.4987410000000 1.0
C      1  0.5099030000000  0.5604640000000  0.4958870000000 1.0
C      1  0.4553830000000  0.5278630000000  0.5039250000000 1.0
C      1  0.4567940000000  0.4740890000000  0.5021120000000 1.0
C      1  0.5727980000000  0.4521930000000  0.4748330000000 1.0
C      1  0.5752360000000  0.5409600000000  0.4686170000000 1.0
C      1  0.4998780000000  0.4563710000000  0.4739960000000 1.0
C      1  0.4948790000000  0.5483370000000  0.4720390000000 1.0
C      1  0.4793700000000  0.5311350000000  0.4196360000000 1.0
C      1  0.4825430000000  0.4684680000000  0.4196180000000 1.0
C      1  0.4847890000000  0.4350480000000  0.5575940000000 1.0
C      1  0.4880270000000  0.5637570000000  0.5571960000000 1.0
C      1  0.4734290000000  0.5539850000000  0.5103150000000 1.0
C      1  0.4733460000000  0.4491590000000  0.5113790000000 1.0
C      1  0.5300530000000  0.4528110000000  0.4327670000000 1.0
C      1  0.5264740000000  0.5475170000000  0.4300180000000 1.0
C      1  0.5141000000000  0.4714960000000  0.4167440000000 1.0
C      1  0.5106240000000  0.5293010000000  0.4142580000000 1.0
C      1  0.5173560000000  0.5727410000000  0.4402310000000 1.0
C      1  0.5175450000000  0.4294410000000  0.4442300000000 1.0
C      1  0.5146310000000  0.5695040000000  0.5473460000000 1.0
C      1  0.5112800000000  0.4283830000000  0.5487540000000 1.0
C      1  0.5113570000000  0.4175500000000  0.5220760000000 1.0
C      1  0.5128500000000  0.5826080000000  0.5216080000000 1.0
C      1  0.5016870000000  0.5411010000000  0.5224880000000 1.0
C      1  0.5007520000000  0.4599310000000  0.5266370000000 1.0
C      1  0.5498960000000  0.5237020000000  0.4824370000000 1.0
C      1  0.5502470000000  0.4645070000000  0.4958610000000 1.0
C      1  0.4928250000000  0.5959700000000  0.5020280000000 1.0
C      1  0.4925190000000  0.4072800000000  0.5003450000000 1.0
C      1  0.5593150000000  0.4323720000000  0.4991620000000 1.0
C      1  0.5571780000000  0.5552250000000  0.4936750000000 1.0
C      1  0.4650560000000  0.4432230000000  0.4345800000000 1.0
C      1  0.4641670000000  0.5579710000000  0.4341210000000 1.0
C      1  0.5238040000000  0.4677540000000  0.5973830000000 1.0
C      1  0.5234940000000  0.5262980000000  0.5965010000000 1.0
C      1  0.4314500000000  0.4499690000000  0.5678750000000 1.0
C      1  0.4330390000000  0.5587700000000  0.5673580000000 1.0
C      1  0.5913960000000  0.4634900000000  0.4999660000000 1.0
C      1  0.5940800000000  0.5161610000000  0.4823730000000 1.0
C      1  0.4590390000000  0.4743190000000  0.4415320000000 1.0
C      1  0.4554210000000  0.5270000000000  0.4425770000000 1.0
C      1  0.4972340000000  0.4704090000000  0.6012930000000 1.0
C      1  0.4950160000000  0.5238040000000  0.5979020000000 1.0
C      1  0.4253910000000  0.4718530000000  0.5000880000000 1.0
C      1  0.4171700000000  0.5302570000000  0.4927830000000 1.0
C      1  0.5269150000000  0.5217540000000  0.5237440000000 1.0
C      1  0.5319490000000  0.4679060000000  0.5213980000000 1.0
C      1  0.5525880000000  0.4664430000000  0.4543160000000 1.0
C      1  0.5464700000000  0.5355430000000  0.4509030000000 1.0
C      1  0.5344140000000  0.5848150000000  0.4598810000000 1.0
C      1  0.5316530000000  0.4131880000000  0.4628800000000 1.0
C      1  0.4794570000000  0.4572480000000  0.5787780000000 1.0
C      1  0.4789350000000  0.5402720000000  0.5766430000000 1.0
C      1  0.5152960000000  0.5276510000000  0.4628860000000 1.0
C      1  0.5212910000000  0.4759740000000  0.4638690000000 1.0
C      1  0.5351590000000  0.4681410000000  0.5715580000000 1.0
C      1  0.5334000000000  0.5280190000000  0.5692780000000 1.0
C      1  0.4751130000000  0.4264080000000  0.4910030000000 1.0
C      1  0.4744060000000  0.5781020000000  0.4910880000000 1.0
C      1  0.4331860000000  0.4424150000000  0.4845430000000 1.0
C      1  0.4373680000000  0.5556810000000  0.4821260000000 1.0
C      1  0.4633440000000  0.4979530000000  0.3790360000000 1.0
C      1  0.4901540000000  0.4983450000000  0.3808650000000 1.0
C      1  0.4797610000000  0.4963040000000  0.6003310000000 1.0
C      1  0.5457360000000  0.5048880000000  0.4254050000000 1.0
C      1  0.4534420000000  0.4992980000000  0.4715530000000 1.0
C      1  0.4011710000000  0.4970280000000  0.4539710000000 1.0
C      1  0.5192300000000  0.5019560000000  0.4419980000000 1.0
C      1  0.5665440000000  0.4915420000000  0.4436380000000 1.0
C      1  0.4828300000000  0.5042010000000  0.4602190000000 1.0
C      1  0.4328220000000  0.5128840000000  0.5817460000000 1.0
C      1  0.5878920000000  0.5351290000000  0.4113720000000 1.0
C      1  0.5707910000000  0.5126750000000  0.6045140000000 1.0
C      1  0.6099740000000  0.5013270000000  0.5348860000000 1.0
C      1  0.5652030000000  0.4973420000000  0.5435620000000 1.0
C      1  0.4637890000000  0.5016940000000  0.5161270000000 1.0
C      1  0.5450220000000  0.5038370000000  0.3910300000000 1.0
C      1  0.4695080000000  0.5010100000000  0.5682400000000 1.0
C      1  0.5890950000000  0.5072320000000  0.4522940000000 1.0
C      1  0.4926300000000  0.4954730000000  0.5048470000000 1.0
C      1  0.3998150000000  0.4962790000000  0.4265700000000 1.0
C      1  0.5466850000000  0.4960890000000  0.4928870000000 1.0
C      1  0.3788820000000  0.5037380000000  0.5435230000000 1.0
C      1  0.5674700000000  0.4937450000000  0.5162860000000 1.0
C      1  0.4267120000000  0.5041010000000  0.5524050000000 1.0
C      1  0.4053140000000  0.5021900000000  0.5356510000000 1.0
C      1  0.5162230000000  0.5022250000000  0.4817440000000 1.0
C      1  0.5880530000000  0.5079040000000  0.5838800000000 1.0
C      1  0.5080750000000  0.4989610000000  0.5590610000000 1.0
C      1  0.5978710000000  0.4940190000000  0.5049350000000 1.0
C      1  0.5901090000000  0.5024380000000  0.5561620000000 1.0
C      1  0.5151620000000  0.4995480000000  0.4002710000000 1.0
C      1  0.4118630000000  0.4996250000000  0.5068490000000 1.0
C      1  0.4227600000000  0.5032870000000  0.4754930000000 1.0
C      1  0.4250170000000  0.4983240000000  0.4137090000000 1.0
C      1  0.4436360000000  0.4997930000000  0.4365460000000 1.0
C      1  0.4547240000000  0.5011260000000  0.5457080000000 1.0
C      1  0.4190230000000  0.5024980000000  0.6110850000000 1.0
C      1  0.4380430000000  0.4979390000000  0.3889850000000 1.0
C      1  0.5407020000000  0.4975250000000  0.5594210000000 1.0
C      1  0.6010340000000  0.5240970000000  0.4328330000000 1.0
C      1  0.5183470000000  0.4953600000000  0.5208710000000 1.0
C      1  0.5624930000000  0.5261910000000  0.4047850000000 1.0
C      1  0.4889040000000  0.5001410000000  0.4303470000000 1.0
C      1  0.5453890000000  0.5187720000000  0.6134220000000 1.0
C      1  0.4479260000000  0.4889320000000  0.5993960000000 1.0
END
