TITL C-2782227-3064-335 -0.00260473812628699 125000 -949.537110527707 0 0 152 (C1) n - 1
REM
REM in /home/nfs/bkarasulu/CARBON/AIRSS/Generating-Clusters/REBO/Higher-Symm/SD-CG/HFTN-CG
REM
REM
REM
REM
REM
REM ./C.cell (12c818d87b63d06a65506943cc24bca4)
REM
REM compiler GCC version 9.2.1 20190827 (Red Hat 9.2.1-1)
REM options -cpp -mtune=generic -march=x86-64 -g -O0 -fpre-include=/usr/include/finclude/math-vector-fortran.h
REM seed -1420687001 -1056622888 686248434 -1180089208 -1450231080 -614459999 1853717235 2096015963 330480494 1377773602 865009080 -1158480647 1346288036 -993133812 467176836 -1005525121 -410834582 -671578106 -1499127883 -24952136 -138383970 440856383 -611380440 1369697039 559572288 1196299884 616686464 333711229 1345055991 -1334457605 118736031 -540363892 -700123587
REM
CELL 1.54180   50.00000   50.00000   50.00000   90.00000   90.00000   90.00000
LATT -1
SFAC C  
C      1  0.4369380000000  0.5320180000000  0.5718500000000 1.0
C      1  0.5668000000000  0.4364120000000  0.5306820000000 1.0
C      1  0.5313700000000  0.5725790000000  0.4368570000000 1.0
C      1  0.4376310000000  0.4677970000000  0.4287530000000 1.0
C      1  0.5609150000000  0.4679510000000  0.5714580000000 1.0
C      1  0.5623200000000  0.5328590000000  0.4268310000000 1.0
C      1  0.5717270000000  0.5633370000000  0.4679140000000 1.0
C      1  0.4280660000000  0.5628010000000  0.5316770000000 1.0
C      1  0.4283910000000  0.4371250000000  0.4696150000000 1.0
C      1  0.5292380000000  0.4280060000000  0.5636920000000 1.0
C      1  0.4690930000000  0.4285320000000  0.4395240000000 1.0
C      1  0.4681550000000  0.5718710000000  0.5628160000000 1.0
C      1  0.5608790000000  0.5277600000000  0.5684960000000 1.0
C      1  0.4304770000000  0.4380090000000  0.5295520000000 1.0
C      1  0.4719350000000  0.5685040000000  0.4380370000000 1.0
C      1  0.5630410000000  0.4727010000000  0.4287420000000 1.0
C      1  0.4371260000000  0.4721900000000  0.5693720000000 1.0
C      1  0.4383620000000  0.5275310000000  0.4316320000000 1.0
C      1  0.4321140000000  0.5613860000000  0.4720710000000 1.0
C      1  0.5675850000000  0.5611850000000  0.5277150000000 1.0
C      1  0.5706880000000  0.4392600000000  0.4684270000000 1.0
C      1  0.4699120000000  0.4307920000000  0.5649940000000 1.0
C      1  0.5294810000000  0.4308480000000  0.4376240000000 1.0
C      1  0.5276720000000  0.5678050000000  0.5614630000000 1.0
C      1  0.4835350000000  0.5608940000000  0.5836500000000 1.0
C      1  0.5822490000000  0.4831910000000  0.5612370000000 1.0
C      1  0.5611740000000  0.5842480000000  0.4835610000000 1.0
C      1  0.4841550000000  0.4389280000000  0.4182370000000 1.0
C      1  0.5148500000000  0.4388880000000  0.5852450000000 1.0
C      1  0.5161080000000  0.5624850000000  0.4153460000000 1.0
C      1  0.5833860000000  0.5176220000000  0.4374330000000 1.0
C      1  0.4160040000000  0.5167330000000  0.5609990000000 1.0
C      1  0.4163010000000  0.4831330000000  0.4389550000000 1.0
C      1  0.5553300000000  0.4172170000000  0.5135210000000 1.0
C      1  0.4388230000000  0.4162000000000  0.4853440000000 1.0
C      1  0.4389020000000  0.5837320000000  0.5163630000000 1.0
C      1  0.5129040000000  0.5567610000000  0.5830570000000 1.0
C      1  0.4162570000000  0.4873530000000  0.5572160000000 1.0
C      1  0.4430600000000  0.5830740000000  0.4870390000000 1.0
C      1  0.5134510000000  0.4425750000000  0.4168210000000 1.0
C      1  0.4854890000000  0.4429600000000  0.5855570000000 1.0
C      1  0.4866250000000  0.5584330000000  0.4156220000000 1.0
C      1  0.4166060000000  0.5125850000000  0.4425550000000 1.0
C      1  0.5823460000000  0.5128270000000  0.5576600000000 1.0
C      1  0.5839540000000  0.4882620000000  0.4404030000000 1.0
C      1  0.4417460000000  0.4161960000000  0.5149240000000 1.0
C      1  0.5590270000000  0.4195200000000  0.4841520000000 1.0
C      1  0.5575110000000  0.5835380000000  0.5130550000000 1.0
C      1  0.4842920000000  0.4105800000000  0.4572160000000 1.0
C      1  0.4544870000000  0.4830030000000  0.4098450000000 1.0
C      1  0.4098680000000  0.4543870000000  0.4844030000000 1.0
C      1  0.4835880000000  0.5900340000000  0.5456740000000 1.0
C      1  0.5161280000000  0.5901770000000  0.4546370000000 1.0
C      1  0.5138090000000  0.4088950000000  0.5481400000000 1.0
C      1  0.4539230000000  0.5167010000000  0.5901660000000 1.0
C      1  0.5454600000000  0.5176320000000  0.4076160000000 1.0
C      1  0.5444680000000  0.4834260000000  0.5902890000000 1.0
C      1  0.4099410000000  0.5456250000000  0.5162070000000 1.0
C      1  0.5901280000000  0.5461130000000  0.4832900000000 1.0
C      1  0.5868100000000  0.4556450000000  0.5165210000000 1.0
C      1  0.5141200000000  0.4101320000000  0.4553750000000 1.0
C      1  0.5476690000000  0.4875510000000  0.4075440000000 1.0
C      1  0.5913740000000  0.4538420000000  0.4828440000000 1.0
C      1  0.5130370000000  0.5888570000000  0.5466240000000 1.0
C      1  0.4867280000000  0.5893210000000  0.4534050000000 1.0
C      1  0.4843160000000  0.4086450000000  0.5508880000000 1.0
C      1  0.5461970000000  0.5128950000000  0.5896820000000 1.0
C      1  0.4532160000000  0.5127880000000  0.4103360000000 1.0
C      1  0.4521810000000  0.4872900000000  0.5902370000000 1.0
C      1  0.5881110000000  0.5458080000000  0.5129890000000 1.0
C      1  0.4110590000000  0.5464600000000  0.4867450000000 1.0
C      1  0.4098760000000  0.4531240000000  0.5139540000000 1.0
C      1  0.5142350000000  0.5312870000000  0.4056610000000 1.0
C      1  0.4068690000000  0.5149190000000  0.5298200000000 1.0
C      1  0.5281340000000  0.3999490000000  0.5194590000000 1.0
C      1  0.5135950000000  0.4701990000000  0.5937600000000 1.0
C      1  0.4855710000000  0.4694590000000  0.4068450000000 1.0
C      1  0.4851750000000  0.5296070000000  0.5924790000000 1.0
C      1  0.4073830000000  0.4852030000000  0.4702010000000 1.0
C      1  0.5948310000000  0.4853210000000  0.5316290000000 1.0
C      1  0.5935030000000  0.5159170000000  0.4685300000000 1.0
C      1  0.5298470000000  0.5926670000000  0.4856810000000 1.0
C      1  0.4701480000000  0.5926840000000  0.5148470000000 1.0
C      1  0.4701780000000  0.4077890000000  0.4881290000000 1.0
C      1  0.4800980000000  0.5300610000000  0.4006140000000 1.0
C      1  0.5982060000000  0.5196120000000  0.5300460000000 1.0
C      1  0.4697270000000  0.4021770000000  0.5222580000000 1.0
C      1  0.4795650000000  0.4715120000000  0.5995890000000 1.0
C      1  0.5194940000000  0.4704720000000  0.4002630000000 1.0
C      1  0.5191730000000  0.5287360000000  0.5980950000000 1.0
C      1  0.5998680000000  0.4819370000000  0.4678190000000 1.0
C      1  0.4011260000000  0.4808570000000  0.5292520000000 1.0
C      1  0.4019290000000  0.5192820000000  0.4707260000000 1.0
C      1  0.4709940000000  0.5981510000000  0.4807490000000 1.0
C      1  0.5292150000000  0.5980410000000  0.5197530000000 1.0
C      1  0.5295900000000  0.4050710000000  0.4853790000000 1.0
C      1  0.4320060000000  0.4854820000000  0.5204960000000 1.0
C      1  0.5194940000000  0.4373420000000  0.4835990000000 1.0
C      1  0.4854310000000  0.5219320000000  0.4317140000000 1.0
C      1  0.4331670000000  0.5143450000000  0.4788570000000 1.0
C      1  0.5677110000000  0.5123730000000  0.5203370000000 1.0
C      1  0.5688030000000  0.4860090000000  0.4773410000000 1.0
C      1  0.5213900000000  0.5666100000000  0.5147140000000 1.0
C      1  0.4797420000000  0.5672630000000  0.4857540000000 1.0
C      1  0.4842120000000  0.4308990000000  0.5180830000000 1.0
C      1  0.4842900000000  0.4790150000000  0.5683060000000 1.0
C      1  0.5154640000000  0.4819990000000  0.4300170000000 1.0
C      1  0.5142940000000  0.5197190000000  0.5669940000000 1.0
C      1  0.5710810000000  0.4827650000000  0.5083370000000 1.0
C      1  0.4873650000000  0.4354620000000  0.4880190000000 1.0
C      1  0.5161390000000  0.5144710000000  0.4341080000000 1.0
C      1  0.5648730000000  0.5158020000000  0.4870190000000 1.0
C      1  0.4356800000000  0.5157340000000  0.5117510000000 1.0
C      1  0.4360910000000  0.4840040000000  0.4877480000000 1.0
C      1  0.4883130000000  0.5639220000000  0.5161640000000 1.0
C      1  0.5123910000000  0.5642820000000  0.4845150000000 1.0
C      1  0.5169200000000  0.4296400000000  0.5141790000000 1.0
C      1  0.5148620000000  0.4867300000000  0.5640520000000 1.0
C      1  0.4852550000000  0.4893810000000  0.4340090000000 1.0
C      1  0.4837820000000  0.5115840000000  0.5644740000000 1.0
C      1  0.5424780000000  0.5326550000000  0.5152380000000 1.0
C      1  0.5158540000000  0.5408710000000  0.5333450000000 1.0
C      1  0.5332310000000  0.5130860000000  0.5406170000000 1.0
C      1  0.5427070000000  0.4697920000000  0.4833300000000 1.0
C      1  0.4571860000000  0.4658050000000  0.5161310000000 1.0
C      1  0.4582860000000  0.5337390000000  0.4843790000000 1.0
C      1  0.5196720000000  0.4602660000000  0.4627260000000 1.0
C      1  0.4810120000000  0.4560430000000  0.5360460000000 1.0
C      1  0.4848750000000  0.5423540000000  0.4659280000000 1.0
C      1  0.5362480000000  0.4871010000000  0.4546930000000 1.0
C      1  0.4647780000000  0.4840210000000  0.5430280000000 1.0
C      1  0.4674210000000  0.5152030000000  0.4583970000000 1.0
C      1  0.4596050000000  0.5361600000000  0.5152810000000 1.0
C      1  0.4849920000000  0.5397390000000  0.5362070000000 1.0
C      1  0.4632610000000  0.5150170000000  0.5406250000000 1.0
C      1  0.4612290000000  0.4654480000000  0.4852840000000 1.0
C      1  0.5356110000000  0.4648060000000  0.5106590000000 1.0
C      1  0.5411200000000  0.5364980000000  0.4844270000000 1.0
C      1  0.4898140000000  0.4596590000000  0.4687700000000 1.0
C      1  0.5119330000000  0.4553870000000  0.5330530000000 1.0
C      1  0.5158620000000  0.5413640000000  0.4635080000000 1.0
C      1  0.4698850000000  0.4839850000000  0.4600760000000 1.0
C      1  0.5321050000000  0.4817190000000  0.5382340000000 1.0
C      1  0.5383790000000  0.5181180000000  0.4567660000000 1.0
C      1  0.4467020000000  0.5531810000000  0.4464110000000 1.0
C      1  0.4449450000000  0.4460670000000  0.5555040000000 1.0
C      1  0.5553760000000  0.4467380000000  0.4436200000000 1.0
C      1  0.5562660000000  0.5574020000000  0.4428060000000 1.0
C      1  0.5536350000000  0.4430010000000  0.5560190000000 1.0
C      1  0.4432040000000  0.5567950000000  0.5566340000000 1.0
C      1  0.5529110000000  0.5530910000000  0.5532990000000 1.0
C      1  0.4438960000000  0.4433680000000  0.4449130000000 1.0
END
