TITL C-2782231-7322-1290 -0.425229836107937 125000 -708.109374558157 0 0 122 (C1) n - 1
REM
REM in /home/nfs/bkarasulu/CARBON/AIRSS/Generating-Clusters/REBO/Higher-Symm/SD-CG/HFTN-CG
REM
REM
REM
REM
REM
REM ./C.cell (12c818d87b63d06a65506943cc24bca4)
REM
REM compiler GCC version 9.2.1 20190827 (Red Hat 9.2.1-1)
REM options -cpp -mtune=generic -march=x86-64 -g -O0 -fpre-include=/usr/include/finclude/math-vector-fortran.h
REM seed 331135572 -618074253 1052504324 -1944037505 1538439318 -404894285 -537518575 -400372348 -1818801895 -1976920235 -1509097768 1250369241 -1028819584 -144825202 -73366590 503732377 -1526185961 303678459 -479372886 1621438572 665466460 2132155673 1160821686 -393777480 1226585350 231580298 368541094 -1768853817 -273740669 -654730239 -1590745079 688185707 -1462809630
REM
CELL 1.54180   50.00000   50.00000   50.00000   90.00000   90.00000   90.00000
LATT -1
SFAC C  
C      1  0.5273250000000  0.6089510000000  0.5065040000000 1.0
C      1  0.4412390000000  0.5998720000000  0.5103180000000 1.0
C      1  0.3929290000000  0.5010410000000  0.5078410000000 1.0
C      1  0.4339170000000  0.4155340000000  0.5151140000000 1.0
C      1  0.5250900000000  0.3942290000000  0.5172700000000 1.0
C      1  0.5993520000000  0.4508510000000  0.5159470000000 1.0
C      1  0.6024840000000  0.5471410000000  0.5093250000000 1.0
C      1  0.4688730000000  0.5213760000000  0.5671380000000 1.0
C      1  0.4654920000000  0.4893270000000  0.5683810000000 1.0
C      1  0.4889640000000  0.4672620000000  0.5699440000000 1.0
C      1  0.5209840000000  0.4721570000000  0.5706190000000 1.0
C      1  0.5377930000000  0.4998510000000  0.5698680000000 1.0
C      1  0.5266100000000  0.5298420000000  0.5681030000000 1.0
C      1  0.4959440000000  0.5391450000000  0.5668770000000 1.0
C      1  0.5605340000000  0.5628560000000  0.4878410000000 1.0
C      1  0.4853330000000  0.5657970000000  0.4445470000000 1.0
C      1  0.4620870000000  0.5512010000000  0.4441990000000 1.0
C      1  0.4353490000000  0.4720040000000  0.4514470000000 1.0
C      1  0.4728250000000  0.4537990000000  0.4382070000000 1.0
C      1  0.5386810000000  0.4461570000000  0.4454020000000 1.0
C      1  0.5872480000000  0.4918620000000  0.4901890000000 1.0
C      1  0.5745630000000  0.4642930000000  0.5632100000000 1.0
C      1  0.5771910000000  0.5368420000000  0.5606940000000 1.0
C      1  0.5222130000000  0.5837500000000  0.5598860000000 1.0
C      1  0.4510970000000  0.5690790000000  0.5592220000000 1.0
C      1  0.4165620000000  0.5047630000000  0.5595800000000 1.0
C      1  0.4461390000000  0.4384330000000  0.5611200000000 1.0
C      1  0.5164140000000  0.4205590000000  0.5638620000000 1.0
C      1  0.4185370000000  0.5099620000000  0.5011410000000 1.0
C      1  0.4428100000000  0.4398670000000  0.5043870000000 1.0
C      1  0.5118340000000  0.4164410000000  0.5064160000000 1.0
C      1  0.5730850000000  0.4539920000000  0.5069010000000 1.0
C      1  0.5832970000000  0.5280710000000  0.5015450000000 1.0
C      1  0.5296220000000  0.5819000000000  0.4995560000000 1.0
C      1  0.4534980000000  0.5751710000000  0.5053980000000 1.0
C      1  0.4588600000000  0.5421570000000  0.5122800000000 1.0
C      1  0.4439140000000  0.4932600000000  0.5122210000000 1.0
C      1  0.4717000000000  0.4512400000000  0.5140030000000 1.0
C      1  0.5214210000000  0.4465540000000  0.5154320000000 1.0
C      1  0.5569480000000  0.4816110000000  0.5152420000000 1.0
C      1  0.5515970000000  0.5319690000000  0.5130200000000 1.0
C      1  0.5075820000000  0.5592580000000  0.5114080000000 1.0
C      1  0.4844120000000  0.5359220000000  0.5339170000000 1.0
C      1  0.4635860000000  0.5094210000000  0.5345070000000 1.0
C      1  0.4712770000000  0.4767370000000  0.5360110000000 1.0
C      1  0.5017730000000  0.4626800000000  0.5375090000000 1.0
C      1  0.5319040000000  0.4778460000000  0.5377210000000 1.0
C      1  0.5396900000000  0.5105840000000  0.5363350000000 1.0
C      1  0.5183980000000  0.5367820000000  0.5345270000000 1.0
C      1  0.4235850000000  0.4292770000000  0.4590090000000 1.0
C      1  0.5080350000000  0.3952080000000  0.4606490000000 1.0
C      1  0.5715320000000  0.4278330000000  0.4589310000000 1.0
C      1  0.5955880000000  0.5126270000000  0.4483060000000 1.0
C      1  0.5492090000000  0.5710930000000  0.4504240000000 1.0
C      1  0.4104590000000  0.5660170000000  0.4791540000000 1.0
C      1  0.4100090000000  0.5324710000000  0.4566610000000 1.0
C      1  0.4450870000000  0.5418780000000  0.5642800000000 1.0
C      1  0.4345700000000  0.4836600000000  0.5649720000000 1.0
C      1  0.4737770000000  0.4395040000000  0.5669870000000 1.0
C      1  0.5331110000000  0.4428280000000  0.5690610000000 1.0
C      1  0.5682040000000  0.4915500000000  0.5673750000000 1.0
C      1  0.5519010000000  0.5484820000000  0.5653470000000 1.0
C      1  0.4977790000000  0.5705930000000  0.5650270000000 1.0
C      1  0.5179850000000  0.4836630000000  0.4035510000000 1.0
C      1  0.5346020000000  0.4978210000000  0.4279590000000 1.0
C      1  0.5334450000000  0.5268980000000  0.4298090000000 1.0
C      1  0.5051910000000  0.5339720000000  0.4308850000000 1.0
C      1  0.4924410000000  0.5398230000000  0.4057940000000 1.0
C      1  0.4787730000000  0.5180960000000  0.3932630000000 1.0
C      1  0.4933500000000  0.4910590000000  0.3874710000000 1.0
C      1  0.5785150000000  0.5041680000000  0.5230200000000 1.0
C      1  0.5461850000000  0.5633950000000  0.5209910000000 1.0
C      1  0.4810850000000  0.5739210000000  0.5208790000000 1.0
C      1  0.4317440000000  0.5303030000000  0.5207400000000 1.0
C      1  0.4350840000000  0.4651030000000  0.5215010000000 1.0
C      1  0.4879740000000  0.4267470000000  0.5239380000000 1.0
C      1  0.5506140000000  0.4436850000000  0.5255810000000 1.0
C      1  0.5692540000000  0.4492680000000  0.4754300000000 1.0
C      1  0.5815710000000  0.5245290000000  0.4682180000000 1.0
C      1  0.5282280000000  0.5762610000000  0.4687120000000 1.0
C      1  0.4368960000000  0.5594030000000  0.4837280000000 1.0
C      1  0.4232610000000  0.5148650000000  0.4715540000000 1.0
C      1  0.4439070000000  0.4402460000000  0.4741730000000 1.0
C      1  0.5128910000000  0.4175640000000  0.4760970000000 1.0
C      1  0.5030020000000  0.5011260000000  0.4697390000000 1.0
C      1  0.4889690000000  0.5197510000000  0.4508350000000 1.0
C      1  0.4638750000000  0.5098680000000  0.4407410000000 1.0
C      1  0.4653530000000  0.4998850000000  0.4141840000000 1.0
C      1  0.4801930000000  0.4711070000000  0.4123260000000 1.0
C      1  0.5090290000000  0.4674980000000  0.4295670000000 1.0
C      1  0.5199440000000  0.4834810000000  0.4531210000000 1.0
C      1  0.4760030000000  0.5779230000000  0.5486990000000 1.0
C      1  0.4253920000000  0.5292070000000  0.5482230000000 1.0
C      1  0.4322670000000  0.4601940000000  0.5493160000000 1.0
C      1  0.4907760000000  0.4226820000000  0.5518800000000 1.0
C      1  0.5564330000000  0.4448850000000  0.5532240000000 1.0
C      1  0.5811750000000  0.5106070000000  0.5514390000000 1.0
C      1  0.5445320000000  0.5702890000000  0.5493930000000 1.0
C      1  0.5159390000000  0.4647490000000  0.4881360000000 1.0
C      1  0.5380820000000  0.4890510000000  0.4880860000000 1.0
C      1  0.5328150000000  0.5216170000000  0.4866330000000 1.0
C      1  0.5030000000000  0.5379450000000  0.4855320000000 1.0
C      1  0.4732100000000  0.5259010000000  0.4870460000000 1.0
C      1  0.4638920000000  0.4940460000000  0.4871800000000 1.0
C      1  0.4827770000000  0.4670140000000  0.4874930000000 1.0
C      1  0.4527150000000  0.5417950000000  0.4690070000000 1.0
C      1  0.4457210000000  0.4965110000000  0.4609470000000 1.0
C      1  0.4673550000000  0.4518260000000  0.4643710000000 1.0
C      1  0.5223210000000  0.4424020000000  0.4672440000000 1.0
C      1  0.5666290000000  0.4792000000000  0.4766310000000 1.0
C      1  0.5565710000000  0.5393190000000  0.4741020000000 1.0
C      1  0.5051380000000  0.5607960000000  0.4637780000000 1.0
C      1  0.5737340000000  0.4071380000000  0.4430040000000 1.0
C      1  0.6091420000000  0.5011190000000  0.4290520000000 1.0
C      1  0.5513900000000  0.5480400000000  0.4354140000000 1.0
C      1  0.3853860000000  0.5722890000000  0.4748150000000 1.0
C      1  0.3969500000000  0.5498180000000  0.4419850000000 1.0
C      1  0.4043080000000  0.4188710000000  0.4446250000000 1.0
C      1  0.5034250000000  0.3739840000000  0.4459820000000 1.0
C      1  0.5015190000000  0.5014470000000  0.5515810000000 1.0
C      1  0.5015550000000  0.5007940000000  0.5253840000000 1.0
C      1  0.5014410000000  0.5003590000000  0.4987510000000 1.0
END
