TITL C-2782227-3064-803 0.000596492321461534 125000 -994.7365831361 0 0 171 (C1) n - 1
REM
REM in /home/nfs/bkarasulu/CARBON/AIRSS/Generating-Clusters/REBO/Higher-Symm/SD-CG/HFTN-CG
REM
REM
REM
REM
REM
REM ./C.cell (12c818d87b63d06a65506943cc24bca4)
REM
REM compiler GCC version 9.2.1 20190827 (Red Hat 9.2.1-1)
REM options -cpp -mtune=generic -march=x86-64 -g -O0 -fpre-include=/usr/include/finclude/math-vector-fortran.h
REM seed 1746998956 -600631400 -656277773 1023239228 296132262 791524984 995458810 1106163066 -1026759140 701090254 -2050040421 718484573 -346020024 -1619197488 1434193743 -1585370508 -1246370639 1281543858 230538504 -2003059754 -1511046658 2129890131 -1017780921 -945088377 -1639325416 -71274810 1960109406 -723054359 -641953311 -1208820612 314288543 2044930245 -1898057229
REM
CELL 1.54180   50.00000   50.00000   50.00000   90.00000   90.00000   90.00000
LATT -1
SFAC C  
C      1  0.5753300000000  0.5129060000000  0.5264990000000 1.0
C      1  0.4074860000000  0.4741450000000  0.5452860000000 1.0
C      1  0.4455220000000  0.5136770000000  0.4860390000000 1.0
C      1  0.5176700000000  0.4588900000000  0.5973220000000 1.0
C      1  0.4630290000000  0.5646710000000  0.4385050000000 1.0
C      1  0.4833110000000  0.5391230000000  0.4663660000000 1.0
C      1  0.4488960000000  0.4277470000000  0.4455930000000 1.0
C      1  0.5881520000000  0.5627860000000  0.5116380000000 1.0
C      1  0.5411180000000  0.5073130000000  0.4005200000000 1.0
C      1  0.4573360000000  0.4418140000000  0.4156150000000 1.0
C      1  0.5821660000000  0.4482250000000  0.5284700000000 1.0
C      1  0.5378120000000  0.5509900000000  0.5269130000000 1.0
C      1  0.6032180000000  0.5583280000000  0.5365970000000 1.0
C      1  0.5140130000000  0.4725920000000  0.4975380000000 1.0
C      1  0.5373580000000  0.5014020000000  0.5402900000000 1.0
C      1  0.4875380000000  0.5685460000000  0.4936120000000 1.0
C      1  0.5850420000000  0.5065920000000  0.5587130000000 1.0
C      1  0.4936060000000  0.3912920000000  0.5053690000000 1.0
C      1  0.5051820000000  0.5031190000000  0.4164580000000 1.0
C      1  0.5192180000000  0.5299980000000  0.5436690000000 1.0
C      1  0.5197130000000  0.5744100000000  0.4405740000000 1.0
C      1  0.4200720000000  0.4625250000000  0.4600330000000 1.0
C      1  0.5056220000000  0.5615120000000  0.5911410000000 1.0
C      1  0.5087430000000  0.5016140000000  0.5119290000000 1.0
C      1  0.5357770000000  0.4416580000000  0.4317830000000 1.0
C      1  0.4959120000000  0.4123710000000  0.4300340000000 1.0
C      1  0.4013990000000  0.5127090000000  0.5511200000000 1.0
C      1  0.6036390000000  0.5325630000000  0.5062460000000 1.0
C      1  0.4286070000000  0.5529080000000  0.5251370000000 1.0
C      1  0.5185760000000  0.4607410000000  0.5261150000000 1.0
C      1  0.4444980000000  0.4949790000000  0.5231360000000 1.0
C      1  0.4637010000000  0.5224970000000  0.5224670000000 1.0
C      1  0.4665050000000  0.5509130000000  0.5636240000000 1.0
C      1  0.5368620000000  0.5901540000000  0.5160420000000 1.0
C      1  0.4825220000000  0.5719130000000  0.5793720000000 1.0
C      1  0.4836740000000  0.4253310000000  0.5718350000000 1.0
C      1  0.4181420000000  0.5154500000000  0.4351530000000 1.0
C      1  0.5043150000000  0.4333980000000  0.5269810000000 1.0
C      1  0.4695870000000  0.4186190000000  0.5468890000000 1.0
C      1  0.4753970000000  0.4768680000000  0.4185210000000 1.0
C      1  0.4714150000000  0.5872480000000  0.4625490000000 1.0
C      1  0.5011450000000  0.4161850000000  0.4621410000000 1.0
C      1  0.6026290000000  0.5185660000000  0.4498060000000 1.0
C      1  0.5428320000000  0.5065540000000  0.5884400000000 1.0
C      1  0.5552450000000  0.5212110000000  0.4236370000000 1.0
C      1  0.5638630000000  0.5732960000000  0.5063770000000 1.0
C      1  0.4817240000000  0.4707870000000  0.4743730000000 1.0
C      1  0.5673570000000  0.5487440000000  0.4288820000000 1.0
C      1  0.4031440000000  0.5422170000000  0.4730480000000 1.0
C      1  0.3926340000000  0.4717240000000  0.4763330000000 1.0
C      1  0.5490020000000  0.4801320000000  0.5594490000000 1.0
C      1  0.5131670000000  0.4194440000000  0.5707810000000 1.0
C      1  0.5607020000000  0.5329300000000  0.5093110000000 1.0
C      1  0.4535600000000  0.4010840000000  0.4814920000000 1.0
C      1  0.5543740000000  0.4475110000000  0.5677270000000 1.0
C      1  0.5267870000000  0.3982740000000  0.4705930000000 1.0
C      1  0.5502090000000  0.4421320000000  0.4595520000000 1.0
C      1  0.5314360000000  0.5644230000000  0.5745960000000 1.0
C      1  0.4330590000000  0.4340560000000  0.4708800000000 1.0
C      1  0.4302830000000  0.5580330000000  0.4613660000000 1.0
C      1  0.4802110000000  0.4544500000000  0.5332760000000 1.0
C      1  0.4388840000000  0.4643660000000  0.5374970000000 1.0
C      1  0.5354550000000  0.5600390000000  0.4945720000000 1.0
C      1  0.5712120000000  0.5083440000000  0.5853130000000 1.0
C      1  0.5236100000000  0.6045250000000  0.4916460000000 1.0
C      1  0.5211530000000  0.4812220000000  0.3931860000000 1.0
C      1  0.5889720000000  0.5018870000000  0.4327800000000 1.0
C      1  0.4703780000000  0.5247110000000  0.4427780000000 1.0
C      1  0.5108320000000  0.4734000000000  0.5503710000000 1.0
C      1  0.4547470000000  0.5008340000000  0.3948580000000 1.0
C      1  0.4332120000000  0.4787670000000  0.5007680000000 1.0
C      1  0.5017800000000  0.4993940000000  0.5583250000000 1.0
C      1  0.5093180000000  0.4494910000000  0.4350670000000 1.0
C      1  0.4715570000000  0.5066560000000  0.5512210000000 1.0
C      1  0.4725020000000  0.5176580000000  0.6004530000000 1.0
C      1  0.4780990000000  0.5145550000000  0.4049400000000 1.0
C      1  0.5246820000000  0.4866830000000  0.6015330000000 1.0
C      1  0.5209170000000  0.3867200000000  0.4987060000000 1.0
C      1  0.6064910000000  0.4766940000000  0.4991970000000 1.0
C      1  0.4880890000000  0.4287770000000  0.4084230000000 1.0
C      1  0.5296430000000  0.4845560000000  0.4316270000000 1.0
C      1  0.5253750000000  0.4966380000000  0.4761330000000 1.0
C      1  0.5564410000000  0.4623340000000  0.5014240000000 1.0
C      1  0.4097490000000  0.5740150000000  0.4828940000000 1.0
C      1  0.4539880000000  0.4653910000000  0.4577140000000 1.0
C      1  0.4258060000000  0.4822840000000  0.4340980000000 1.0
C      1  0.5324480000000  0.5764700000000  0.5467160000000 1.0
C      1  0.5196470000000  0.4147090000000  0.5433610000000 1.0
C      1  0.4736410000000  0.4961410000000  0.4941070000000 1.0
C      1  0.5293160000000  0.5349940000000  0.3965290000000 1.0
C      1  0.4402890000000  0.5027830000000  0.4572300000000 1.0
C      1  0.5440670000000  0.4089350000000  0.5046390000000 1.0
C      1  0.4358850000000  0.4181010000000  0.5011590000000 1.0
C      1  0.4479690000000  0.4345600000000  0.5286350000000 1.0
C      1  0.4845160000000  0.5950170000000  0.5628870000000 1.0
C      1  0.3783480000000  0.4771140000000  0.5013720000000 1.0
C      1  0.5424950000000  0.6063350000000  0.4702110000000 1.0
C      1  0.5049290000000  0.4457000000000  0.4787300000000 1.0
C      1  0.4873620000000  0.5409850000000  0.5385130000000 1.0
C      1  0.5777890000000  0.5042870000000  0.4777090000000 1.0
C      1  0.5772610000000  0.4706910000000  0.5745030000000 1.0
C      1  0.4825320000000  0.4868710000000  0.5256520000000 1.0
C      1  0.5447730000000  0.4688970000000  0.4727350000000 1.0
C      1  0.4128550000000  0.5214100000000  0.4939690000000 1.0
C      1  0.4583690000000  0.5220840000000  0.5748700000000 1.0
C      1  0.5812420000000  0.4336770000000  0.4707560000000 1.0
C      1  0.4969950000000  0.5985490000000  0.4830710000000 1.0
C      1  0.5024570000000  0.5319940000000  0.6008760000000 1.0
C      1  0.5580330000000  0.5226910000000  0.4575170000000 1.0
C      1  0.4172410000000  0.5412820000000  0.5539000000000 1.0
C      1  0.4308110000000  0.5909980000000  0.5359630000000 1.0
C      1  0.5032650000000  0.5025180000000  0.6144020000000 1.0
C      1  0.4735340000000  0.4908900000000  0.6187670000000 1.0
C      1  0.4281620000000  0.5163130000000  0.5721200000000 1.0
C      1  0.4824370000000  0.3986060000000  0.5304780000000 1.0
C      1  0.5466260000000  0.4125160000000  0.5340130000000 1.0
C      1  0.3887650000000  0.5527420000000  0.5229760000000 1.0
C      1  0.4410120000000  0.5382960000000  0.4371840000000 1.0
C      1  0.5715960000000  0.5436410000000  0.4806960000000 1.0
C      1  0.6036130000000  0.5264880000000  0.5399820000000 1.0
C      1  0.5847460000000  0.4398780000000  0.4385610000000 1.0
C      1  0.5850500000000  0.4771590000000  0.5425240000000 1.0
C      1  0.4557690000000  0.5783720000000  0.4910700000000 1.0
C      1  0.5216160000000  0.5399540000000  0.4773210000000 1.0
C      1  0.4407830000000  0.5639490000000  0.5540600000000 1.0
C      1  0.5336100000000  0.4383750000000  0.4956730000000 1.0
C      1  0.5621220000000  0.4819120000000  0.4264160000000 1.0
C      1  0.3943720000000  0.5266030000000  0.4473230000000 1.0
C      1  0.5597140000000  0.4898630000000  0.4570400000000 1.0
C      1  0.6027340000000  0.5347320000000  0.4721560000000 1.0
C      1  0.4899410000000  0.4733520000000  0.3952310000000 1.0
C      1  0.3970060000000  0.5250540000000  0.5203040000000 1.0
C      1  0.4539830000000  0.5422500000000  0.4747680000000 1.0
C      1  0.5072550000000  0.4483620000000  0.3952150000000 1.0
C      1  0.3889660000000  0.4924230000000  0.5266970000000 1.0
C      1  0.4736740000000  0.5432810000000  0.4150330000000 1.0
C      1  0.5643820000000  0.4514370000000  0.4235320000000 1.0
C      1  0.5597070000000  0.4838730000000  0.5213770000000 1.0
C      1  0.5232460000000  0.5394020000000  0.4473930000000 1.0
C      1  0.5311350000000  0.4381350000000  0.5836220000000 1.0
C      1  0.5265390000000  0.5307920000000  0.5769040000000 1.0
C      1  0.5175550000000  0.5105780000000  0.4473970000000 1.0
C      1  0.4437300000000  0.4729080000000  0.4114890000000 1.0
C      1  0.5642110000000  0.4318030000000  0.5435770000000 1.0
C      1  0.5035150000000  0.4747120000000  0.4515140000000 1.0
C      1  0.4698660000000  0.4643530000000  0.6148360000000 1.0
C      1  0.5455770000000  0.5840290000000  0.4533440000000 1.0
C      1  0.4968620000000  0.5663050000000  0.4603390000000 1.0
C      1  0.5341890000000  0.5194800000000  0.4993390000000 1.0
C      1  0.4688400000000  0.4932850000000  0.4440530000000 1.0
C      1  0.4129490000000  0.4910420000000  0.4870340000000 1.0
C      1  0.4388890000000  0.4509290000000  0.4998660000000 1.0
C      1  0.4777740000000  0.4455060000000  0.4430470000000 1.0
C      1  0.5242580000000  0.5519910000000  0.4167350000000 1.0
C      1  0.4485540000000  0.6006600000000  0.5097750000000 1.0
C      1  0.4516040000000  0.5476390000000  0.5061720000000 1.0
C      1  0.4960520000000  0.5210590000000  0.4881130000000 1.0
C      1  0.5869810000000  0.4503060000000  0.4963790000000 1.0
C      1  0.4804090000000  0.4007330000000  0.4814580000000 1.0
C      1  0.4526010000000  0.4726490000000  0.5656270000000 1.0
C      1  0.4867980000000  0.5689270000000  0.5240970000000 1.0
C      1  0.5981720000000  0.5025510000000  0.4953530000000 1.0
C      1  0.4095040000000  0.5765100000000  0.5134040000000 1.0
C      1  0.5871690000000  0.5096260000000  0.6080440000000 1.0
C      1  0.5048710000000  0.5902180000000  0.5400310000000 1.0
C      1  0.5642290000000  0.5626360000000  0.4539860000000 1.0
C      1  0.5551190000000  0.4131780000000  0.4734600000000 1.0
C      1  0.4252050000000  0.4855240000000  0.5681960000000 1.0
C      1  0.4651460000000  0.5920400000000  0.5370990000000 1.0
C      1  0.4872790000000  0.4516060000000  0.5931740000000 1.0
C      1  0.4815260000000  0.4645470000000  0.5653390000000 1.0
END
