TITL C-2782238-9940-754 0.000391397080887577 125000 -900.211831469673 0 0 154 (C1) n - 1
REM
REM in /home/nfs/bkarasulu/CARBON/AIRSS/Generating-Clusters/REBO/Higher-Symm/SD-CG/HFTN-CG
REM
REM
REM
REM
REM
REM ./C.cell (12c818d87b63d06a65506943cc24bca4)
REM
REM compiler GCC version 9.2.1 20190827 (Red Hat 9.2.1-1)
REM options -cpp -mtune=generic -march=x86-64 -g -O0 -fpre-include=/usr/include/finclude/math-vector-fortran.h
REM seed -634364825 1633663621 -624265734 -1860804254 -1133660916 989205008 -1015690917 349648678 412707549 1078983853 1883166030 1184121170 -1025899142 -2089734392 -2006086568 -63832234 323614124 -970211992 -1633363133 589973511 -1896593221 -230456829 2089600315 -1274154053 1710319472 115085009 29776304 -251723383 -2111714529 1828936695 -1425840484 -510957703 580314051
REM
CELL 1.54180   50.00000   50.00000   50.00000   90.00000   90.00000   90.00000
LATT -1
SFAC C  
C      1  0.4847040000000  0.5383010000000  0.4798200000000 1.0
C      1  0.4887210000000  0.5399200000000  0.4531410000000 1.0
C      1  0.4912530000000  0.5191030000000  0.4360950000000 1.0
C      1  0.4902230000000  0.4924350000000  0.4355130000000 1.0
C      1  0.4860030000000  0.4690950000000  0.4476610000000 1.0
C      1  0.4708670000000  0.4560860000000  0.4666190000000 1.0
C      1  0.4772170000000  0.4500990000000  0.4930120000000 1.0
C      1  0.4720420000000  0.4607650000000  0.5173080000000 1.0
C      1  0.4622900000000  0.4842660000000  0.5262310000000 1.0
C      1  0.4575520000000  0.5099860000000  0.5165320000000 1.0
C      1  0.4759630000000  0.5218600000000  0.4990660000000 1.0
C      1  0.5437720000000  0.4438050000000  0.5138240000000 1.0
C      1  0.5384880000000  0.4610940000000  0.5410600000000 1.0
C      1  0.5364650000000  0.4901600000000  0.5551960000000 1.0
C      1  0.5385460000000  0.5224480000000  0.5529400000000 1.0
C      1  0.5442260000000  0.5477770000000  0.5336360000000 1.0
C      1  0.5515610000000  0.5578820000000  0.5038070000000 1.0
C      1  0.5583020000000  0.5499760000000  0.4730710000000 1.0
C      1  0.5624850000000  0.5266270000000  0.4506760000000 1.0
C      1  0.5623340000000  0.4945020000000  0.4444230000000 1.0
C      1  0.5578950000000  0.4642950000000  0.4563340000000 1.0
C      1  0.5509170000000  0.4455080000000  0.4820300000000 1.0
C      1  0.5724370000000  0.5270620000000  0.5525330000000 1.0
C      1  0.5783330000000  0.5471030000000  0.5311780000000 1.0
C      1  0.5851240000000  0.5515190000000  0.5024060000000 1.0
C      1  0.5906770000000  0.5393400000000  0.4756970000000 1.0
C      1  0.5933260000000  0.5146000000000  0.4591880000000 1.0
C      1  0.5919710000000  0.4847650000000  0.4582690000000 1.0
C      1  0.5871670000000  0.4593290000000  0.4731040000000 1.0
C      1  0.5806040000000  0.4462090000000  0.4990150000000 1.0
C      1  0.5743410000000  0.4499910000000  0.5279440000000 1.0
C      1  0.5702300000000  0.4697150000000  0.5500820000000 1.0
C      1  0.5694350000000  0.4981480000000  0.5591710000000 1.0
C      1  0.5264250000000  0.5262300000000  0.5908470000000 1.0
C      1  0.5348000000000  0.5725320000000  0.5635980000000 1.0
C      1  0.5465670000000  0.5957920000000  0.5157800000000 1.0
C      1  0.5573280000000  0.5888080000000  0.4626250000000 1.0
C      1  0.5637270000000  0.5538200000000  0.4209900000000 1.0
C      1  0.5645430000000  0.5013530000000  0.4044420000000 1.0
C      1  0.5589420000000  0.4489220000000  0.4188530000000 1.0
C      1  0.5485870000000  0.4132460000000  0.4584130000000 1.0
C      1  0.5367430000000  0.4045500000000  0.5107280000000 1.0
C      1  0.5272810000000  0.4265370000000  0.5600050000000 1.0
C      1  0.5241330000000  0.4721400000000  0.5886920000000 1.0
C      1  0.4876740000000  0.5227170000000  0.3940340000000 1.0
C      1  0.4841430000000  0.4697190000000  0.3977990000000 1.0
C      1  0.4752270000000  0.4273510000000  0.4287730000000 1.0
C      1  0.4639920000000  0.4078100000000  0.4775490000000 1.0
C      1  0.4537720000000  0.4227210000000  0.5283640000000 1.0
C      1  0.4477700000000  0.4624820000000  0.5638360000000 1.0
C      1  0.4478650000000  0.5133160000000  0.5760930000000 1.0
C      1  0.4548740000000  0.5636860000000  0.5585200000000 1.0
C      1  0.4661480000000  0.5956270000000  0.5159170000000 1.0
C      1  0.4774650000000  0.5970160000000  0.4634980000000 1.0
C      1  0.4851230000000  0.5698500000000  0.4184950000000 1.0
C      1  0.4882470000000  0.4099280000000  0.4536430000000 1.0
C      1  0.4764490000000  0.4065060000000  0.5085600000000 1.0
C      1  0.4672940000000  0.4355490000000  0.5556890000000 1.0
C      1  0.4656450000000  0.4847170000000  0.5813840000000 1.0
C      1  0.4684850000000  0.5401870000000  0.5793160000000 1.0
C      1  0.4781460000000  0.5847360000000  0.5459740000000 1.0
C      1  0.4905360000000  0.6037260000000  0.4943290000000 1.0
C      1  0.5008370000000  0.5903810000000  0.4408160000000 1.0
C      1  0.5062060000000  0.5500480000000  0.4025300000000 1.0
C      1  0.5058000000000  0.4951380000000  0.3909010000000 1.0
C      1  0.4992100000000  0.4429050000000  0.4100930000000 1.0
C      1  0.4445730000000  0.5739790000000  0.5281730000000 1.0
C      1  0.4561560000000  0.5862060000000  0.4857370000000 1.0
C      1  0.4651640000000  0.5735030000000  0.4441120000000 1.0
C      1  0.4686230000000  0.5421320000000  0.4126210000000 1.0
C      1  0.4680740000000  0.4980980000000  0.4027630000000 1.0
C      1  0.4626270000000  0.4556650000000  0.4181410000000 1.0
C      1  0.4518460000000  0.4246450000000  0.4516980000000 1.0
C      1  0.4417850000000  0.4216420000000  0.4973090000000 1.0
C      1  0.4374810000000  0.4514390000000  0.5351310000000 1.0
C      1  0.4274310000000  0.4872330000000  0.5729810000000 1.0
C      1  0.4393020000000  0.5344640000000  0.5534030000000 1.0
C      1  0.4920640000000  0.5496930000000  0.5584310000000 1.0
C      1  0.5015410000000  0.5792620000000  0.5236380000000 1.0
C      1  0.5118880000000  0.5843320000000  0.4785230000000 1.0
C      1  0.5194710000000  0.5636570000000  0.4374090000000 1.0
C      1  0.5229780000000  0.5237720000000  0.4124460000000 1.0
C      1  0.5199110000000  0.4766720000000  0.4139240000000 1.0
C      1  0.5117140000000  0.4389660000000  0.4399680000000 1.0
C      1  0.5016040000000  0.4207000000000  0.4812760000000 1.0
C      1  0.4930890000000  0.4280430000000  0.5263160000000 1.0
C      1  0.4873670000000  0.4608430000000  0.5585320000000 1.0
C      1  0.4869250000000  0.5060550000000  0.5707530000000 1.0
C      1  0.5444800000000  0.4128170000000  0.5389990000000 1.0
C      1  0.5383760000000  0.4475900000000  0.5786580000000 1.0
C      1  0.5378950000000  0.4984750000000  0.5942460000000 1.0
C      1  0.5432830000000  0.5497720000000  0.5816750000000 1.0
C      1  0.5536030000000  0.5853440000000  0.5433620000000 1.0
C      1  0.5650800000000  0.5934330000000  0.4916600000000 1.0
C      1  0.5737910000000  0.5717800000000  0.4434110000000 1.0
C      1  0.5773890000000  0.5274410000000  0.4136370000000 1.0
C      1  0.5749850000000  0.4739330000000  0.4126070000000 1.0
C      1  0.5669470000000  0.4289030000000  0.4401860000000 1.0
C      1  0.5556150000000  0.4061800000000  0.4871100000000 1.0
C      1  0.5145950000000  0.5525680000000  0.5176190000000 1.0
C      1  0.5218440000000  0.5571330000000  0.4874410000000 1.0
C      1  0.5279440000000  0.5444720000000  0.4593190000000 1.0
C      1  0.5308670000000  0.5187150000000  0.4414250000000 1.0
C      1  0.5294780000000  0.4873820000000  0.4408400000000 1.0
C      1  0.5240010000000  0.4610390000000  0.4571600000000 1.0
C      1  0.5169920000000  0.4468670000000  0.4845000000000 1.0
C      1  0.5105120000000  0.4500530000000  0.5150660000000 1.0
C      1  0.5062440000000  0.4714060000000  0.5373340000000 1.0
C      1  0.5053750000000  0.5013050000000  0.5469840000000 1.0
C      1  0.5083640000000  0.5318250000000  0.5402190000000 1.0
C      1  0.5823650000000  0.4034120000000  0.4927130000000 1.0
C      1  0.5710270000000  0.4097220000000  0.5454800000000 1.0
C      1  0.5649690000000  0.4453670000000  0.5851250000000 1.0
C      1  0.5645280000000  0.4970830000000  0.6008380000000 1.0
C      1  0.5698850000000  0.5489850000000  0.5885020000000 1.0
C      1  0.5803100000000  0.5850810000000  0.5497960000000 1.0
C      1  0.5920040000000  0.5930030000000  0.4971620000000 1.0
C      1  0.6007930000000  0.5707100000000  0.4484550000000 1.0
C      1  0.6044990000000  0.5264280000000  0.4181660000000 1.0
C      1  0.6020420000000  0.4722970000000  0.4171890000000 1.0
C      1  0.5938660000000  0.4265830000000  0.4451470000000 1.0
C      1  0.4442820000000  0.5597540000000  0.4826650000000 1.0
C      1  0.4502590000000  0.5507190000000  0.4551160000000 1.0
C      1  0.4527100000000  0.5295740000000  0.4343000000000 1.0
C      1  0.4519460000000  0.5006250000000  0.4273230000000 1.0
C      1  0.4474630000000  0.4732520000000  0.4360030000000 1.0
C      1  0.4389510000000  0.4537580000000  0.4605690000000 1.0
C      1  0.4288360000000  0.4462530000000  0.4889910000000 1.0
C      1  0.4245220000000  0.4613870000000  0.5128550000000 1.0
C      1  0.4009660000000  0.4863680000000  0.5767410000000 1.0
C      1  0.4379140000000  0.5284140000000  0.5256220000000 1.0
C      1  0.4369910000000  0.5527160000000  0.5100340000000 1.0
C      1  0.3292610000000  0.4404710000000  0.5764420000000 1.0
C      1  0.3541040000000  0.4505590000000  0.5751460000000 1.0
C      1  0.3733730000000  0.4698020000000  0.5768890000000 1.0
C      1  0.3734190000000  0.5011310000000  0.5844240000000 1.0
C      1  0.3542050000000  0.5191160000000  0.5916340000000 1.0
C      1  0.3293890000000  0.5275810000000  0.5973910000000 1.0
C      1  0.3029150000000  0.5239790000000  0.6004930000000 1.0
C      1  0.2816510000000  0.5074270000000  0.5996960000000 1.0
C      1  0.2733390000000  0.4821960000000  0.5948690000000 1.0
C      1  0.2815770000000  0.4575060000000  0.5876900000000 1.0
C      1  0.3027950000000  0.4423420000000  0.5808600000000 1.0
C      1  0.4979880000000  0.5266250000000  0.5899600000000 1.0
C      1  0.5065250000000  0.5759910000000  0.5627630000000 1.0
C      1  0.5188250000000  0.6018820000000  0.5132950000000 1.0
C      1  0.5301580000000  0.5960060000000  0.4574580000000 1.0
C      1  0.5370370000000  0.5606420000000  0.4130340000000 1.0
C      1  0.5382120000000  0.5055520000000  0.3940380000000 1.0
C      1  0.5325400000000  0.4499650000000  0.4081290000000 1.0
C      1  0.5219300000000  0.4117940000000  0.4485180000000 1.0
C      1  0.5096260000000  0.4009330000000  0.5027670000000 1.0
C      1  0.4992590000000  0.4232560000000  0.5553630000000 1.0
C      1  0.4960130000000  0.4705080000000  0.5859370000000 1.0
END
