TITL C-2782226-7400-699 -0.000378723059874055 125000 -352.339205709597 0 0 62 (C2) n - 1
REM
REM in /home/nfs/bkarasulu/CARBON/AIRSS/Generating-Clusters/REBO/Higher-Symm/SD-CG/HFTN-CG
REM
REM
REM
REM
REM
REM ./C.cell (12c818d87b63d06a65506943cc24bca4)
REM
REM compiler GCC version 9.2.1 20190827 (Red Hat 9.2.1-1)
REM options -cpp -mtune=generic -march=x86-64 -g -O0 -fpre-include=/usr/include/finclude/math-vector-fortran.h
REM seed -836791432 306896037 -715604114 -1632426545 -1516989388 1870598005 911474931 1011514343 689404781 1703005540 1084713549 1268411942 -948289420 1611926501 -1870828451 525673598 -477579979 186887597 -1884736122 -2143709164 1593186255 207774085 -298444661 -100448711 -806742048 -995449847 -871226365 -280732070 1634363338 -1921710841 1038220816 -1601955197 821488374
REM
CELL 1.54180   50.00000   50.00000   50.00000   90.00000   90.00000   90.00000
LATT -1
SFAC C  
C      1  0.4415780000000  0.5191370000000  0.5215090000000 1.0
C      1  0.5584160000000  0.5191630000000  0.4784970000000 1.0
C      1  0.5014420000000  0.5852880000000  0.4360710000000 1.0
C      1  0.4985300000000  0.5852690000000  0.5639530000000 1.0
C      1  0.5486110000000  0.4711270000000  0.4685220000000 1.0
C      1  0.4513980000000  0.4711020000000  0.5314700000000 1.0
C      1  0.5288130000000  0.4713460000000  0.4472220000000 1.0
C      1  0.4711970000000  0.4713220000000  0.5527700000000 1.0
C      1  0.5354360000000  0.5178770000000  0.5626030000000 1.0
C      1  0.4645580000000  0.5178830000000  0.4374020000000 1.0
C      1  0.4741670000000  0.5128180000000  0.5249700000000 1.0
C      1  0.5258280000000  0.5128340000000  0.4750330000000 1.0
C      1  0.4950240000000  0.5603850000000  0.4463210000000 1.0
C      1  0.5049560000000  0.5603720000000  0.5536960000000 1.0
C      1  0.4483560000000  0.4511440000000  0.4833540000000 1.0
C      1  0.5516610000000  0.4511570000000  0.5166320000000 1.0
C      1  0.5637080000000  0.5115730000000  0.5455920000000 1.0
C      1  0.4362880000000  0.5115640000000  0.4544110000000 1.0
C      1  0.5596730000000  0.4894850000000  0.5243360000000 1.0
C      1  0.4403300000000  0.4894720000000  0.4756610000000 1.0
C      1  0.4410330000000  0.4709920000000  0.5050330000000 1.0
C      1  0.5589760000000  0.4710130000000  0.4949590000000 1.0
C      1  0.5634400000000  0.5418660000000  0.5481310000000 1.0
C      1  0.4365460000000  0.5418590000000  0.4518810000000 1.0
C      1  0.4711020000000  0.5196570000000  0.5642160000000 1.0
C      1  0.5288910000000  0.5196850000000  0.4357890000000 1.0
C      1  0.4892380000000  0.5370230000000  0.5435130000000 1.0
C      1  0.5107490000000  0.5370380000000  0.4564970000000 1.0
C      1  0.5352480000000  0.5515160000000  0.5638240000000 1.0
C      1  0.4647350000000  0.5515220000000  0.4361900000000 1.0
C      1  0.4197040000000  0.5279300000000  0.5314930000000 1.0
C      1  0.5802860000000  0.5279660000000  0.4685150000000 1.0
C      1  0.5174020000000  0.4284180000000  0.4901160000000 1.0
C      1  0.4826220000000  0.4284100000000  0.5098640000000 1.0
C      1  0.5180140000000  0.5946630000000  0.5817130000000 1.0
C      1  0.4819550000000  0.5946800000000  0.4183130000000 1.0
C      1  0.4561750000000  0.4649900000000  0.4581790000000 1.0
C      1  0.5438360000000  0.4649930000000  0.5418120000000 1.0
C      1  0.5149580000000  0.4824530000000  0.4868820000000 1.0
C      1  0.4850480000000  0.4824440000000  0.5131130000000 1.0
C      1  0.4788040000000  0.4656640000000  0.4421070000000 1.0
C      1  0.5212070000000  0.4656550000000  0.5578830000000 1.0
C      1  0.5191020000000  0.4943290000000  0.4323510000000 1.0
C      1  0.4809000000000  0.4943040000000  0.5676470000000 1.0
C      1  0.5055580000000  0.4057710000000  0.4807740000000 1.0
C      1  0.4944730000000  0.4057630000000  0.5192000000000 1.0
C      1  0.4964370000000  0.4526180000000  0.5499310000000 1.0
C      1  0.5035790000000  0.4526330000000  0.4500560000000 1.0
C      1  0.5132800000000  0.4932150000000  0.5682980000000 1.0
C      1  0.4867220000000  0.4932290000000  0.4317000000000 1.0
C      1  0.4875910000000  0.5011850000000  0.4843040000000 1.0
C      1  0.5124080000000  0.5011840000000  0.5156960000000 1.0
C      1  0.4880610000000  0.4536700000000  0.5211410000000 1.0
C      1  0.5119550000000  0.4536800000000  0.4788460000000 1.0
C      1  0.5102850000000  0.5137150000000  0.5419350000000 1.0
C      1  0.4897100000000  0.5137230000000  0.4580690000000 1.0
C      1  0.5420820000000  0.5058800000000  0.5040780000000 1.0
C      1  0.4579160000000  0.5058670000000  0.4959240000000 1.0
C      1  0.4618840000000  0.4276830000000  0.4908540000000 1.0
C      1  0.5381400000000  0.4276930000000  0.5091260000000 1.0
C      1  0.5392250000000  0.5765470000000  0.5835510000000 1.0
C      1  0.4607500000000  0.5765570000000  0.4164710000000 1.0
END
