TITL C-2782231-7322-155 -0.0132611013810079 125000 -519.213578880822 0 0 88 (C2) n - 1
REM
REM in /home/nfs/bkarasulu/CARBON/AIRSS/Generating-Clusters/REBO/Higher-Symm/SD-CG/HFTN-CG
REM
REM
REM
REM
REM
REM ./C.cell (12c818d87b63d06a65506943cc24bca4)
REM
REM compiler GCC version 9.2.1 20190827 (Red Hat 9.2.1-1)
REM options -cpp -mtune=generic -march=x86-64 -g -O0 -fpre-include=/usr/include/finclude/math-vector-fortran.h
REM seed -774593893 807873815 -1960944078 1334457931 -204718953 -1982552185 -1653321578 -478495127 1926096442 835776050 587283344 620053955 -134097539 -1040484607 398366309 1379856517 513483761 452097350 -1752194411 864850635 43035163 -1241786148 294225367 197475893 -1385114779 601421162 -691483497 610294767 1474985741 -1858421055 1873738823 -2026501664 1364304433
REM
CELL 1.54180   50.00000   50.00000   50.00000   90.00000   90.00000   90.00000
LATT -1
SFAC C  
C      1  0.5185540000000  0.5286430000000  0.5745510000000 1.0
C      1  0.5188070000000  0.4251160000000  0.5299200000000 1.0
C      1  0.5185160000000  0.4713580000000  0.4254390000000 1.0
C      1  0.5187860000000  0.5748860000000  0.4700700000000 1.0
C      1  0.4853120000000  0.5266490000000  0.5755970000000 1.0
C      1  0.4857500000000  0.4234800000000  0.5273160000000 1.0
C      1  0.4852730000000  0.4733500000000  0.4244110000000 1.0
C      1  0.4857300000000  0.5765190000000  0.4726920000000 1.0
C      1  0.5715810000000  0.4662210000000  0.4578900000000 1.0
C      1  0.5735220000000  0.5426450000000  0.4652590000000 1.0
C      1  0.5716010000000  0.5337830000000  0.5420720000000 1.0
C      1  0.5735440000000  0.4573600000000  0.5347020000000 1.0
C      1  0.4297720000000  0.4691870000000  0.4557280000000 1.0
C      1  0.4291540000000  0.5457540000000  0.4678410000000 1.0
C      1  0.4297930000000  0.5308080000000  0.5443090000000 1.0
C      1  0.4291740000000  0.4542410000000  0.5321970000000 1.0
C      1  0.4850870000000  0.4490110000000  0.5795290000000 1.0
C      1  0.4854970000000  0.4236730000000  0.4514990000000 1.0
C      1  0.4850410000000  0.5509880000000  0.4204790000000 1.0
C      1  0.4855170000000  0.5763260000000  0.5485090000000 1.0
C      1  0.5138910000000  0.4526500000000  0.5807640000000 1.0
C      1  0.5142760000000  0.4229080000000  0.4550280000000 1.0
C      1  0.5138440000000  0.5473510000000  0.4192290000000 1.0
C      1  0.5142950000000  0.5770930000000  0.5449640000000 1.0
C      1  0.5158780000000  0.4657010000000  0.5270970000000 1.0
C      1  0.5154420000000  0.4785090000000  0.4691390000000 1.0
C      1  0.5158610000000  0.5343000000000  0.4728940000000 1.0
C      1  0.5154570000000  0.5214920000000  0.5308530000000 1.0
C      1  0.4842270000000  0.4632600000000  0.5247920000000 1.0
C      1  0.4835400000000  0.4798780000000  0.4652860000000 1.0
C      1  0.4842110000000  0.5367390000000  0.4752160000000 1.0
C      1  0.4835570000000  0.5201210000000  0.5347220000000 1.0
C      1  0.4622090000000  0.5139740000000  0.4788290000000 1.0
C      1  0.4609020000000  0.5168420000000  0.5107610000000 1.0
C      1  0.4622210000000  0.4860230000000  0.5211910000000 1.0
C      1  0.4608970000000  0.4831560000000  0.4892600000000 1.0
C      1  0.5386620000000  0.5131770000000  0.4780250000000 1.0
C      1  0.5400060000000  0.5173270000000  0.5098780000000 1.0
C      1  0.5386750000000  0.4868260000000  0.5219540000000 1.0
C      1  0.5400020000000  0.4826760000000  0.4901000000000 1.0
C      1  0.4380940000000  0.4640980000000  0.4819850000000 1.0
C      1  0.4382080000000  0.5200050000000  0.4613770000000 1.0
C      1  0.4381010000000  0.5358980000000  0.5180480000000 1.0
C      1  0.4382300000000  0.4799910000000  0.5386560000000 1.0
C      1  0.5622310000000  0.4627780000000  0.4838910000000 1.0
C      1  0.5625960000000  0.5174660000000  0.4599330000000 1.0
C      1  0.5622370000000  0.5372270000000  0.5160760000000 1.0
C      1  0.5626180000000  0.4825380000000  0.5400340000000 1.0
C      1  0.5521670000000  0.4316690000000  0.5315520000000 1.0
C      1  0.5521850000000  0.4698760000000  0.4301860000000 1.0
C      1  0.5521460000000  0.5683350000000  0.4684210000000 1.0
C      1  0.5522200000000  0.5301280000000  0.5697860000000 1.0
C      1  0.4519330000000  0.4296490000000  0.5261470000000 1.0
C      1  0.4513670000000  0.4748490000000  0.4299310000000 1.0
C      1  0.4519140000000  0.5703480000000  0.4738790000000 1.0
C      1  0.4514030000000  0.5251470000000  0.5700950000000 1.0
C      1  0.4731740000000  0.4480410000000  0.4716860000000 1.0
C      1  0.4726000000000  0.5305580000000  0.4440320000000 1.0
C      1  0.4731860000000  0.5519570000000  0.5283280000000 1.0
C      1  0.4726320000000  0.4694400000000  0.5559830000000 1.0
C      1  0.5235910000000  0.4473390000000  0.4768920000000 1.0
C      1  0.5239880000000  0.5249700000000  0.4427360000000 1.0
C      1  0.5236000000000  0.5526630000000  0.5230950000000 1.0
C      1  0.5240210000000  0.4750320000000  0.5572510000000 1.0
C      1  0.5690590000000  0.5046050000000  0.5554980000000 1.0
C      1  0.5683070000000  0.4457840000000  0.5051240000000 1.0
C      1  0.5690300000000  0.4954000000000  0.4444650000000 1.0
C      1  0.5683000000000  0.5542200000000  0.4948400000000 1.0
C      1  0.4323760000000  0.5009310000000  0.5559430000000 1.0
C      1  0.4336330000000  0.4448890000000  0.5017950000000 1.0
C      1  0.4323460000000  0.4990650000000  0.4440930000000 1.0
C      1  0.4336280000000  0.5551060000000  0.4982400000000 1.0
C      1  0.4691230000000  0.5513430000000  0.5615050000000 1.0
C      1  0.4697820000000  0.4362250000000  0.5530680000000 1.0
C      1  0.4690940000000  0.4486550000000  0.4385110000000 1.0
C      1  0.4697490000000  0.5637730000000  0.4469480000000 1.0
C      1  0.5321490000000  0.5522560000000  0.5559050000000 1.0
C      1  0.5315760000000  0.4419470000000  0.5551790000000 1.0
C      1  0.5321230000000  0.4477460000000  0.4440770000000 1.0
C      1  0.5315430000000  0.5580550000000  0.4448040000000 1.0
C      1  0.4784920000000  0.4977660000000  0.5595400000000 1.0
C      1  0.4789860000000  0.4418210000000  0.4994610000000 1.0
C      1  0.4784610000000  0.5022320000000  0.4404710000000 1.0
C      1  0.4789820000000  0.5581780000000  0.5005510000000 1.0
C      1  0.5110370000000  0.5021840000000  0.5574950000000 1.0
C      1  0.5113570000000  0.4429250000000  0.5037010000000 1.0
C      1  0.5110060000000  0.4978170000000  0.4424990000000 1.0
C      1  0.5113510000000  0.5570760000000  0.4962930000000 1.0
END
