TITL C-2782235-7892-1464 -0.00313296783928167 125000 -1000.41429276212 0 0 172 (C1) n - 1
REM
REM in /home/nfs/bkarasulu/CARBON/AIRSS/Generating-Clusters/REBO/Higher-Symm/SD-CG/HFTN-CG
REM
REM
REM
REM
REM
REM ./C.cell (12c818d87b63d06a65506943cc24bca4)
REM
REM compiler GCC version 9.2.1 20190827 (Red Hat 9.2.1-1)
REM options -cpp -mtune=generic -march=x86-64 -g -O0 -fpre-include=/usr/include/finclude/math-vector-fortran.h
REM seed 1058878894 1108635089 -2065380870 -384084129 504944063 890265231 -1174795226 1074114743 -1606078877 2067234086 1248767728 -265417447 -1731930900 644135354 -962011876 -250843295 -1046349017 133961994 -608715563 -464935897 -1746769802 1825311467 1884408394 -804207020 130969857 -1431538255 -371360499 345070776 -979517100 615525403 -605963370 295226248 -1258121076
REM
CELL 1.54180   50.00000   50.00000   50.00000   90.00000   90.00000   90.00000
LATT -1
SFAC C  
C      1  0.4455050000000  0.5692650000000  0.4286940000000 1.0
C      1  0.5659060000000  0.5686680000000  0.4497340000000 1.0
C      1  0.5516830000000  0.5724570000000  0.5732160000000 1.0
C      1  0.4262890000000  0.5726870000000  0.5570240000000 1.0
C      1  0.4463290000000  0.5710450000000  0.5762890000000 1.0
C      1  0.5685270000000  0.5705510000000  0.5510580000000 1.0
C      1  0.5459620000000  0.5691380000000  0.4307050000000 1.0
C      1  0.4249830000000  0.5723630000000  0.4471260000000 1.0
C      1  0.5360400000000  0.4418210000000  0.5143750000000 1.0
C      1  0.4856780000000  0.4366920000000  0.5290490000000 1.0
C      1  0.4663700000000  0.4349750000000  0.4792190000000 1.0
C      1  0.5209370000000  0.4358010000000  0.4651630000000 1.0
C      1  0.5421930000000  0.4369930000000  0.4870270000000 1.0
C      1  0.4919680000000  0.4339500000000  0.4622990000000 1.0
C      1  0.4624210000000  0.4348360000000  0.5082340000000 1.0
C      1  0.5145560000000  0.4326180000000  0.5343230000000 1.0
C      1  0.4835350000000  0.4838800000000  0.4413870000000 1.0
C      1  0.5649930000000  0.4864530000000  0.4797770000000 1.0
C      1  0.5195180000000  0.4849460000000  0.5584630000000 1.0
C      1  0.4381920000000  0.4828130000000  0.5156920000000 1.0
C      1  0.4854860000000  0.4853910000000  0.5577460000000 1.0
C      1  0.5639080000000  0.4874200000000  0.5140900000000 1.0
C      1  0.5172280000000  0.4819520000000  0.4361220000000 1.0
C      1  0.4361630000000  0.4803030000000  0.4816050000000 1.0
C      1  0.4731020000000  0.4553130000000  0.4457270000000 1.0
C      1  0.5543720000000  0.4576440000000  0.4651370000000 1.0
C      1  0.5319550000000  0.4569590000000  0.5508060000000 1.0
C      1  0.4517660000000  0.4575380000000  0.5285130000000 1.0
C      1  0.4749220000000  0.4570510000000  0.5501990000000 1.0
C      1  0.5568960000000  0.4590100000000  0.5282760000000 1.0
C      1  0.5312820000000  0.4536530000000  0.4425610000000 1.0
C      1  0.4473520000000  0.4552440000000  0.4650370000000 1.0
C      1  0.5836470000000  0.5565900000000  0.4749580000000 1.0
C      1  0.5262860000000  0.5592160000000  0.5915540000000 1.0
C      1  0.4087920000000  0.5627160000000  0.5293280000000 1.0
C      1  0.4705320000000  0.5559550000000  0.4097090000000 1.0
C      1  0.5878970000000  0.5564110000000  0.5263830000000 1.0
C      1  0.5233800000000  0.5548160000000  0.4117960000000 1.0
C      1  0.4082060000000  0.5612870000000  0.4747710000000 1.0
C      1  0.4727470000000  0.5580480000000  0.5933830000000 1.0
C      1  0.3984550000000  0.4695030000000  0.4744330000000 1.0
C      1  0.5254580000000  0.4633710000000  0.4001000000000 1.0
C      1  0.5968990000000  0.4659040000000  0.5250750000000 1.0
C      1  0.4753770000000  0.4653340000000  0.5958760000000 1.0
C      1  0.4005650000000  0.4716840000000  0.5220850000000 1.0
C      1  0.5231030000000  0.4692520000000  0.5950130000000 1.0
C      1  0.6009900000000  0.4699970000000  0.4751090000000 1.0
C      1  0.4780280000000  0.4655410000000  0.4063070000000 1.0
C      1  0.4520630000000  0.4849020000000  0.4295020000000 1.0
C      1  0.5744200000000  0.4870640000000  0.4470540000000 1.0
C      1  0.5492100000000  0.4874890000000  0.5709980000000 1.0
C      1  0.4280820000000  0.4855760000000  0.5473220000000 1.0
C      1  0.4532370000000  0.4845720000000  0.5689030000000 1.0
C      1  0.5733430000000  0.4895780000000  0.5470070000000 1.0
C      1  0.5492540000000  0.4839370000000  0.4246950000000 1.0
C      1  0.4258520000000  0.4853890000000  0.4502190000000 1.0
C      1  0.4875220000000  0.4035660000000  0.5388060000000 1.0
C      1  0.4558870000000  0.4029840000000  0.4851410000000 1.0
C      1  0.5155570000000  0.4021550000000  0.4580970000000 1.0
C      1  0.5396590000000  0.4069290000000  0.5131650000000 1.0
C      1  0.4820860000000  0.4017620000000  0.4634160000000 1.0
C      1  0.4597350000000  0.4037450000000  0.5190210000000 1.0
C      1  0.5206330000000  0.4009690000000  0.5408360000000 1.0
C      1  0.5414870000000  0.4045880000000  0.4792660000000 1.0
C      1  0.4835490000000  0.4966510000000  0.4701470000000 1.0
C      1  0.5344010000000  0.4874540000000  0.4871890000000 1.0
C      1  0.5122290000000  0.5057170000000  0.5361210000000 1.0
C      1  0.4568350000000  0.5083990000000  0.5175700000000 1.0
C      1  0.4802450000000  0.5088380000000  0.5375870000000 1.0
C      1  0.5303550000000  0.4871940000000  0.5183930000000 1.0
C      1  0.5119760000000  0.4803530000000  0.4688100000000 1.0
C      1  0.4578650000000  0.5001460000000  0.4860340000000 1.0
C      1  0.4833510000000  0.5260550000000  0.5881770000000 1.0
C      1  0.4120210000000  0.5290390000000  0.4840040000000 1.0
C      1  0.5158690000000  0.5216180000000  0.4125510000000 1.0
C      1  0.5891440000000  0.5234820000000  0.5166330000000 1.0
C      1  0.4817730000000  0.5241450000000  0.4147570000000 1.0
C      1  0.4129410000000  0.5309740000000  0.5180910000000 1.0
C      1  0.5174350000000  0.5277770000000  0.5877630000000 1.0
C      1  0.5867740000000  0.5254740000000  0.4825930000000 1.0
C      1  0.5386030000000  0.4149950000000  0.4363650000000 1.0
C      1  0.5628100000000  0.4201350000000  0.5343850000000 1.0
C      1  0.4637970000000  0.4194240000000  0.5574410000000 1.0
C      1  0.4341980000000  0.4179690000000  0.4633490000000 1.0
C      1  0.5405720000000  0.4194990000000  0.5613580000000 1.0
C      1  0.5646360000000  0.4195090000000  0.4593040000000 1.0
C      1  0.4621700000000  0.4172330000000  0.4416820000000 1.0
C      1  0.4365220000000  0.4216710000000  0.5356300000000 1.0
C      1  0.5618250000000  0.5862320000000  0.4764170000000 1.0
C      1  0.5243000000000  0.5910150000000  0.5726700000000 1.0
C      1  0.4258790000000  0.5927470000000  0.5295430000000 1.0
C      1  0.4718170000000  0.5843760000000  0.4350760000000 1.0
C      1  0.5608190000000  0.5854180000000  0.5256520000000 1.0
C      1  0.5203440000000  0.5844780000000  0.4374830000000 1.0
C      1  0.4289220000000  0.5889070000000  0.4762060000000 1.0
C      1  0.4714470000000  0.5908130000000  0.5746550000000 1.0
C      1  0.4808030000000  0.5850250000000  0.4663700000000 1.0
C      1  0.5314800000000  0.5854790000000  0.4869420000000 1.0
C      1  0.5132310000000  0.5886410000000  0.5414470000000 1.0
C      1  0.4586850000000  0.5916160000000  0.5212240000000 1.0
C      1  0.4801380000000  0.5917710000000  0.5427440000000 1.0
C      1  0.5335030000000  0.5916860000000  0.5178510000000 1.0
C      1  0.5117330000000  0.5902990000000  0.4643520000000 1.0
C      1  0.4590980000000  0.5851430000000  0.4877590000000 1.0
C      1  0.5116810000000  0.4955120000000  0.5960970000000 1.0
C      1  0.4020630000000  0.4992610000000  0.5118140000000 1.0
C      1  0.4880690000000  0.4928300000000  0.4029310000000 1.0
C      1  0.6026520000000  0.4958240000000  0.4879190000000 1.0
C      1  0.5172840000000  0.4909200000000  0.3974920000000 1.0
C      1  0.3999830000000  0.4971250000000  0.4822490000000 1.0
C      1  0.4824120000000  0.4929960000000  0.5968350000000 1.0
C      1  0.6032380000000  0.4924470000000  0.5173000000000 1.0
C      1  0.5418720000000  0.5295550000000  0.4337040000000 1.0
C      1  0.5646130000000  0.5279580000000  0.5402110000000 1.0
C      1  0.4646270000000  0.5369150000000  0.5616480000000 1.0
C      1  0.4366850000000  0.5370040000000  0.4610850000000 1.0
C      1  0.5415920000000  0.5344180000000  0.5642490000000 1.0
C      1  0.5705830000000  0.5264200000000  0.4526860000000 1.0
C      1  0.4651010000000  0.5365220000000  0.4421180000000 1.0
C      1  0.4382410000000  0.5386000000000  0.5402450000000 1.0
C      1  0.5179990000000  0.4404970000000  0.5768260000000 1.0
C      1  0.4222890000000  0.4458910000000  0.5154760000000 1.0
C      1  0.4841600000000  0.4353280000000  0.4220230000000 1.0
C      1  0.5810730000000  0.4422220000000  0.4795450000000 1.0
C      1  0.5173210000000  0.4356340000000  0.4186700000000 1.0
C      1  0.4199740000000  0.4437770000000  0.4815870000000 1.0
C      1  0.4851890000000  0.4393750000000  0.5758090000000 1.0
C      1  0.5796310000000  0.4397670000000  0.5117050000000 1.0
C      1  0.5533820000000  0.5150650000000  0.5898060000000 1.0
C      1  0.4168120000000  0.5154420000000  0.5527620000000 1.0
C      1  0.4433330000000  0.5145380000000  0.4294110000000 1.0
C      1  0.5914040000000  0.5125470000000  0.4320530000000 1.0
C      1  0.5632150000000  0.5109980000000  0.4170940000000 1.0
C      1  0.4157400000000  0.5159790000000  0.4464760000000 1.0
C      1  0.4434750000000  0.5139260000000  0.5707310000000 1.0
C      1  0.5768000000000  0.5157830000000  0.5673860000000 1.0
C      1  0.5227700000000  0.5360640000000  0.5290840000000 1.0
C      1  0.4686120000000  0.5391190000000  0.5146050000000 1.0
C      1  0.4923510000000  0.5284890000000  0.4698660000000 1.0
C      1  0.5436940000000  0.5203870000000  0.4790080000000 1.0
C      1  0.5186200000000  0.5128410000000  0.4610530000000 1.0
C      1  0.4672210000000  0.5296020000000  0.4854810000000 1.0
C      1  0.4918020000000  0.5396140000000  0.5325660000000 1.0
C      1  0.5399310000000  0.5189200000000  0.5105570000000 1.0
C      1  0.4493740000000  0.4574240000000  0.4135950000000 1.0
C      1  0.5936980000000  0.4614490000000  0.4468330000000 1.0
C      1  0.5524820000000  0.4622680000000  0.5912620000000 1.0
C      1  0.4063220000000  0.4621010000000  0.5508650000000 1.0
C      1  0.4476700000000  0.4581950000000  0.5861730000000 1.0
C      1  0.5889970000000  0.4612150000000  0.5532810000000 1.0
C      1  0.5537190000000  0.4563900000000  0.4088380000000 1.0
C      1  0.4050800000000  0.4609440000000  0.4456950000000 1.0
C      1  0.4877680000000  0.5609200000000  0.5548000000000 1.0
C      1  0.4458680000000  0.5542500000000  0.4857800000000 1.0
C      1  0.5245160000000  0.5467910000000  0.4559950000000 1.0
C      1  0.5575780000000  0.5473270000000  0.5129410000000 1.0
C      1  0.4914730000000  0.5552820000000  0.4536350000000 1.0
C      1  0.4469970000000  0.5614500000000  0.5175970000000 1.0
C      1  0.5214460000000  0.5573440000000  0.5521210000000 1.0
C      1  0.5404420000000  0.5538110000000  0.4852030000000 1.0
C      1  0.4155600000000  0.4366270000000  0.5566860000000 1.0
C      1  0.4404660000000  0.4343450000000  0.4262110000000 1.0
C      1  0.5852240000000  0.4362890000000  0.4398220000000 1.0
C      1  0.5592890000000  0.4369850000000  0.5826200000000 1.0
C      1  0.4154220000000  0.4356240000000  0.4413330000000 1.0
C      1  0.4400950000000  0.4349000000000  0.5730960000000 1.0
C      1  0.5765150000000  0.4367280000000  0.5589650000000 1.0
C      1  0.5617640000000  0.4333590000000  0.4220240000000 1.0
C      1  0.4090830000000  0.5819100000000  0.5019420000000 1.0
C      1  0.4987280000000  0.5791440000000  0.5912680000000 1.0
C      1  0.4971130000000  0.5746860000000  0.4158000000000 1.0
C      1  0.5813160000000  0.5772500000000  0.5011360000000 1.0
END
