TITL C-2782236-320-847 -0.00202221682525343 125000 -835.916148180976 0 0 142 (C1) n - 1
REM
REM in /home/nfs/bkarasulu/CARBON/AIRSS/Generating-Clusters/REBO/Higher-Symm/SD-CG/HFTN-CG
REM
REM
REM
REM
REM
REM ./C.cell (12c818d87b63d06a65506943cc24bca4)
REM
REM compiler GCC version 9.2.1 20190827 (Red Hat 9.2.1-1)
REM options -cpp -mtune=generic -march=x86-64 -g -O0 -fpre-include=/usr/include/finclude/math-vector-fortran.h
REM seed -1559101841 -1545118299 -1441305557 142072045 -975132292 1562237286 -2142536594 627286306 -1236119749 -456131070 1275999928 220768880 682517941 184870564 299498864 145035238 -1378734639 1459593679 -1721746530 1038881347 -1646375229 -939839686 -1816001849 1097607699 1731838726 -1488466401 -1750969191 1830334134 276517249 -958955689 -936441879 2095272637 -937523101
REM
CELL 1.54180   50.00000   50.00000   50.00000   90.00000   90.00000   90.00000
LATT -1
SFAC C  
C      1  0.5390940000000  0.5628290000000  0.4358280000000 1.0
C      1  0.5372830000000  0.5584750000000  0.5707850000000 1.0
C      1  0.4200660000000  0.5504620000000  0.5073700000000 1.0
C      1  0.5382200000000  0.4405510000000  0.4424740000000 1.0
C      1  0.5317830000000  0.4393200000000  0.5607000000000 1.0
C      1  0.4364320000000  0.4406340000000  0.5054480000000 1.0
C      1  0.5920800000000  0.5444110000000  0.5030760000000 1.0
C      1  0.4550100000000  0.5520810000000  0.5809420000000 1.0
C      1  0.4636620000000  0.5452890000000  0.4146300000000 1.0
C      1  0.5920190000000  0.4616590000000  0.4958220000000 1.0
C      1  0.4482610000000  0.4718980000000  0.5839190000000 1.0
C      1  0.4508990000000  0.4723590000000  0.4237150000000 1.0
C      1  0.4261490000000  0.5200880000000  0.5522190000000 1.0
C      1  0.4932990000000  0.5238800000000  0.4086320000000 1.0
C      1  0.5814390000000  0.5157470000000  0.5287700000000 1.0
C      1  0.4403380000000  0.4929880000000  0.5437900000000 1.0
C      1  0.4846760000000  0.4922290000000  0.4160840000000 1.0
C      1  0.5625610000000  0.4885730000000  0.5238250000000 1.0
C      1  0.4569570000000  0.4746550000000  0.4860980000000 1.0
C      1  0.5410060000000  0.4833990000000  0.4486790000000 1.0
C      1  0.5128360000000  0.4745560000000  0.5537870000000 1.0
C      1  0.4534450000000  0.5213830000000  0.4665090000000 1.0
C      1  0.5516610000000  0.5313010000000  0.4568200000000 1.0
C      1  0.5070780000000  0.5246640000000  0.5568400000000 1.0
C      1  0.5297870000000  0.4066740000000  0.4898630000000 1.0
C      1  0.5097780000000  0.3977990000000  0.5250680000000 1.0
C      1  0.4696560000000  0.4010280000000  0.4812230000000 1.0
C      1  0.5406260000000  0.6031660000000  0.4753030000000 1.0
C      1  0.4949060000000  0.5980970000000  0.5292040000000 1.0
C      1  0.4697510000000  0.5840760000000  0.4861000000000 1.0
C      1  0.4919140000000  0.3928380000000  0.5453770000000 1.0
C      1  0.4624510000000  0.4125890000000  0.4596750000000 1.0
C      1  0.5564770000000  0.4105380000000  0.4902700000000 1.0
C      1  0.4848040000000  0.5988970000000  0.5547330000000 1.0
C      1  0.4566690000000  0.5793510000000  0.4660560000000 1.0
C      1  0.5645900000000  0.5972450000000  0.4792050000000 1.0
C      1  0.5505150000000  0.5309310000000  0.5819220000000 1.0
C      1  0.4033750000000  0.5276150000000  0.5096820000000 1.0
C      1  0.5415250000000  0.5409650000000  0.4175910000000 1.0
C      1  0.5444280000000  0.4618480000000  0.5752900000000 1.0
C      1  0.4186800000000  0.4615720000000  0.5135150000000 1.0
C      1  0.5373610000000  0.4607070000000  0.4159830000000 1.0
C      1  0.5398660000000  0.5409550000000  0.5013700000000 1.0
C      1  0.4925590000000  0.5313860000000  0.5061450000000 1.0
C      1  0.4989480000000  0.5399760000000  0.4794070000000 1.0
C      1  0.5049330000000  0.4790090000000  0.4938570000000 1.0
C      1  0.4889400000000  0.4685930000000  0.5223220000000 1.0
C      1  0.4915280000000  0.4711780000000  0.4666220000000 1.0
C      1  0.4049990000000  0.4637380000000  0.5600190000000 1.0
C      1  0.5187530000000  0.4562170000000  0.3889140000000 1.0
C      1  0.5619620000000  0.4831330000000  0.5955740000000 1.0
C      1  0.3778230000000  0.5059330000000  0.5467210000000 1.0
C      1  0.5164740000000  0.4473800000000  0.3649920000000 1.0
C      1  0.5705810000000  0.5107850000000  0.5818500000000 1.0
C      1  0.4001600000000  0.5184090000000  0.5364730000000 1.0
C      1  0.5041540000000  0.5198550000000  0.4370610000000 1.0
C      1  0.5837160000000  0.5008010000000  0.5554700000000 1.0
C      1  0.4213700000000  0.4718800000000  0.5398380000000 1.0
C      1  0.5050590000000  0.4715120000000  0.4152380000000 1.0
C      1  0.5743280000000  0.4743250000000  0.5661980000000 1.0
C      1  0.5148410000000  0.5507530000000  0.5471130000000 1.0
C      1  0.4721490000000  0.5484340000000  0.5228820000000 1.0
C      1  0.5287180000000  0.5508120000000  0.4730120000000 1.0
C      1  0.5077200000000  0.4482820000000  0.5370050000000 1.0
C      1  0.4728390000000  0.4559880000000  0.4995030000000 1.0
C      1  0.5097320000000  0.4589450000000  0.4445600000000 1.0
C      1  0.5739860000000  0.5686960000000  0.4892700000000 1.0
C      1  0.4809250000000  0.5713720000000  0.5724680000000 1.0
C      1  0.4588950000000  0.5694710000000  0.4360930000000 1.0
C      1  0.5741880000000  0.4367190000000  0.4830290000000 1.0
C      1  0.4842440000000  0.4154710000000  0.5608570000000 1.0
C      1  0.4693010000000  0.4457620000000  0.4613800000000 1.0
C      1  0.4786420000000  0.5144260000000  0.5687650000000 1.0
C      1  0.4346800000000  0.5216320000000  0.4459160000000 1.0
C      1  0.5701840000000  0.5112750000000  0.4739380000000 1.0
C      1  0.4848280000000  0.4818970000000  0.5712050000000 1.0
C      1  0.4460770000000  0.4806190000000  0.4545080000000 1.0
C      1  0.5523630000000  0.4870610000000  0.4742260000000 1.0
C      1  0.5422760000000  0.5690990000000  0.5387130000000 1.0
C      1  0.4420720000000  0.5608570000000  0.5177130000000 1.0
C      1  0.5140960000000  0.5736190000000  0.4436620000000 1.0
C      1  0.5501620000000  0.4272550000000  0.5345620000000 1.0
C      1  0.4563660000000  0.4286140000000  0.5228190000000 1.0
C      1  0.5081620000000  0.4264900000000  0.4508800000000 1.0
C      1  0.4762020000000  0.4939250000000  0.4486650000000 1.0
C      1  0.5371860000000  0.4873560000000  0.5011090000000 1.0
C      1  0.4719780000000  0.4866000000000  0.5410180000000 1.0
C      1  0.4831670000000  0.5259680000000  0.4586660000000 1.0
C      1  0.5405840000000  0.5184890000000  0.5116330000000 1.0
C      1  0.4738200000000  0.5193590000000  0.5354390000000 1.0
C      1  0.5903600000000  0.5179710000000  0.4476550000000 1.0
C      1  0.4944090000000  0.5089720000000  0.5986980000000 1.0
C      1  0.4043920000000  0.5199570000000  0.4571910000000 1.0
C      1  0.5961830000000  0.4880180000000  0.4547280000000 1.0
C      1  0.4957320000000  0.4749750000000  0.6015300000000 1.0
C      1  0.4156470000000  0.4889270000000  0.4588570000000 1.0
C      1  0.4652310000000  0.4491890000000  0.4147530000000 1.0
C      1  0.5789600000000  0.4653330000000  0.5229480000000 1.0
C      1  0.4514890000000  0.4505520000000  0.5678670000000 1.0
C      1  0.4928990000000  0.5545150000000  0.4017640000000 1.0
C      1  0.5867770000000  0.5469240000000  0.5344200000000 1.0
C      1  0.4342910000000  0.5511800000000  0.5557010000000 1.0
C      1  0.4979560000000  0.5861650000000  0.4973240000000 1.0
C      1  0.5174010000000  0.5829520000000  0.4739700000000 1.0
C      1  0.5134270000000  0.5725340000000  0.5229390000000 1.0
C      1  0.4809850000000  0.4229530000000  0.5016140000000 1.0
C      1  0.5064220000000  0.4165010000000  0.4801260000000 1.0
C      1  0.5221660000000  0.4229610000000  0.5255780000000 1.0
C      1  0.5785340000000  0.4693790000000  0.4428000000000 1.0
C      1  0.4976450000000  0.4434930000000  0.5991070000000 1.0
C      1  0.4169210000000  0.4559880000000  0.4660510000000 1.0
C      1  0.5865760000000  0.5442760000000  0.4412100000000 1.0
C      1  0.5015620000000  0.5408150000000  0.6049460000000 1.0
C      1  0.4082610000000  0.5513170000000  0.4496360000000 1.0
C      1  0.4472500000000  0.4975970000000  0.5925310000000 1.0
C      1  0.4533650000000  0.4979090000000  0.4084310000000 1.0
C      1  0.5993020000000  0.4854840000000  0.4831040000000 1.0
C      1  0.4419660000000  0.5230140000000  0.5818020000000 1.0
C      1  0.4448150000000  0.5228040000000  0.4192160000000 1.0
C      1  0.5908510000000  0.5129740000000  0.4974530000000 1.0
C      1  0.5043930000000  0.4295200000000  0.5761510000000 1.0
C      1  0.4391350000000  0.4404320000000  0.4762160000000 1.0
C      1  0.5658360000000  0.4463560000000  0.4550220000000 1.0
C      1  0.5065180000000  0.5602740000000  0.5850340000000 1.0
C      1  0.4270680000000  0.5659550000000  0.4430370000000 1.0
C      1  0.5642990000000  0.5624770000000  0.4582810000000 1.0
C      1  0.5225130000000  0.4846440000000  0.5841400000000 1.0
C      1  0.4054440000000  0.4776850000000  0.4897370000000 1.0
C      1  0.5593660000000  0.4831300000000  0.4217450000000 1.0
C      1  0.5236350000000  0.5163510000000  0.5824880000000 1.0
C      1  0.3993180000000  0.5101270000000  0.4880080000000 1.0
C      1  0.5512290000000  0.5153950000000  0.4270860000000 1.0
C      1  0.4605690000000  0.5686600000000  0.5453490000000 1.0
C      1  0.4910960000000  0.5710350000000  0.4278000000000 1.0
C      1  0.5665140000000  0.5666490000000  0.5224140000000 1.0
C      1  0.4618620000000  0.4307260000000  0.5507220000000 1.0
C      1  0.4803810000000  0.4347300000000  0.4327720000000 1.0
C      1  0.5686210000000  0.4374950000000  0.5169860000000 1.0
C      1  0.5091890000000  0.5008810000000  0.5380390000000 1.0
C      1  0.4497200000000  0.5035280000000  0.4880590000000 1.0
C      1  0.5183560000000  0.4979680000000  0.4429680000000 1.0
C      1  0.5031150000000  0.5046400000000  0.5127080000000 1.0
END
