TITL C-2782240-8521-20 -4.97659705623415e-05 125000 -375.470364813976 0 0 67 (C1) n - 1
REM
REM in /home/nfs/bkarasulu/CARBON/AIRSS/Generating-Clusters/REBO/Higher-Symm/SD-CG/HFTN-CG
REM
REM
REM
REM
REM
REM ./C.cell (12c818d87b63d06a65506943cc24bca4)
REM
REM compiler GCC version 9.2.1 20190827 (Red Hat 9.2.1-1)
REM options -cpp -mtune=generic -march=x86-64 -g -O0 -fpre-include=/usr/include/finclude/math-vector-fortran.h
REM seed -535050830 962593503 1231245805 -402921693 -2087949382 -666593085 -1846676665 405946412 -1002041653 1527739504 -467385244 -2075404558 284614013 828179390 -2077819985 1726481384 -2142573535 -683955482 1516472768 2014545853 1648698730 -957059093 -1459100378 -1352133159 -1594320665 855284449 -2063750108 -685438938 -1192849225 717627977 1590052119 595123594 1084478733
REM
CELL 1.54180   50.00000   50.00000   50.00000   90.00000   90.00000   90.00000
LATT -1
SFAC C  
C      1  0.4195730000000  0.4776840000000  0.4695550000000 1.0
C      1  0.4630080000000  0.4731780000000  0.4303670000000 1.0
C      1  0.4764580000000  0.4116930000000  0.4647050000000 1.0
C      1  0.4177480000000  0.5253580000000  0.5314670000000 1.0
C      1  0.5666650000000  0.4765230000000  0.5289880000000 1.0
C      1  0.5734290000000  0.5338480000000  0.4668110000000 1.0
C      1  0.4728000000000  0.5425390000000  0.5835490000000 1.0
C      1  0.5269010000000  0.4684660000000  0.5827420000000 1.0
C      1  0.5340420000000  0.5275720000000  0.4160500000000 1.0
C      1  0.4604220000000  0.5785150000000  0.5224300000000 1.0
C      1  0.5270720000000  0.4320220000000  0.5149630000000 1.0
C      1  0.5379660000000  0.5810840000000  0.4792250000000 1.0
C      1  0.4446610000000  0.5628440000000  0.5061040000000 1.0
C      1  0.5685560000000  0.5141550000000  0.4478820000000 1.0
C      1  0.5072110000000  0.4543590000000  0.5695570000000 1.0
C      1  0.4556860000000  0.4226510000000  0.4793210000000 1.0
C      1  0.5486930000000  0.5691720000000  0.5019390000000 1.0
C      1  0.5547990000000  0.4220630000000  0.5056000000000 1.0
C      1  0.5739310000000  0.4894750000000  0.5554870000000 1.0
C      1  0.4318000000000  0.5188590000000  0.5543360000000 1.0
C      1  0.4307750000000  0.5027820000000  0.4647400000000 1.0
C      1  0.5257880000000  0.5496670000000  0.4304860000000 1.0
C      1  0.4816730000000  0.4529470000000  0.4320950000000 1.0
C      1  0.4870890000000  0.5610940000000  0.5689140000000 1.0
C      1  0.5444050000000  0.4988170000000  0.4521120000000 1.0
C      1  0.4989630000000  0.4643130000000  0.5437690000000 1.0
C      1  0.4540440000000  0.5356300000000  0.5015300000000 1.0
C      1  0.5446540000000  0.5004260000000  0.5515100000000 1.0
C      1  0.4590930000000  0.5099340000000  0.5504270000000 1.0
C      1  0.4595970000000  0.5041350000000  0.4678360000000 1.0
C      1  0.5143970000000  0.5442170000000  0.4567400000000 1.0
C      1  0.5007800000000  0.4544360000000  0.4538960000000 1.0
C      1  0.4956180000000  0.5519370000000  0.5428840000000 1.0
C      1  0.4588620000000  0.4492450000000  0.4894010000000 1.0
C      1  0.5417870000000  0.5409150000000  0.5040050000000 1.0
C      1  0.5516630000000  0.4498450000000  0.4894830000000 1.0
C      1  0.5393800000000  0.4942370000000  0.5183720000000 1.0
C      1  0.5005160000000  0.5230130000000  0.5404620000000 1.0
C      1  0.5124560000000  0.5339330000000  0.5039000000000 1.0
C      1  0.5347090000000  0.4993060000000  0.4848470000000 1.0
C      1  0.4706440000000  0.4954410000000  0.4944640000000 1.0
C      1  0.4661000000000  0.5030810000000  0.5225840000000 1.0
C      1  0.5080820000000  0.4821240000000  0.4617710000000 1.0
C      1  0.5113650000000  0.5157830000000  0.4660540000000 1.0
C      1  0.5027090000000  0.4941110000000  0.5354990000000 1.0
C      1  0.5197030000000  0.4548080000000  0.4919990000000 1.0
C      1  0.4841400000000  0.5322560000000  0.5020230000000 1.0
C      1  0.4878160000000  0.4668740000000  0.4924280000000 1.0
C      1  0.5255060000000  0.5040150000000  0.4302680000000 1.0
C      1  0.4982850000000  0.4431400000000  0.5236670000000 1.0
C      1  0.4318350000000  0.5173540000000  0.5078620000000 1.0
C      1  0.5274760000000  0.4955020000000  0.5738220000000 1.0
C      1  0.4762360000000  0.5161570000000  0.5730580000000 1.0
C      1  0.4722080000000  0.4976690000000  0.4419610000000 1.0
C      1  0.5131910000000  0.5681560000000  0.4731260000000 1.0
C      1  0.5005300000000  0.4290070000000  0.4685550000000 1.0
C      1  0.4875200000000  0.5698490000000  0.5215980000000 1.0
C      1  0.4346310000000  0.4637620000000  0.4915070000000 1.0
C      1  0.5641960000000  0.5257690000000  0.4926900000000 1.0
C      1  0.5684850000000  0.4707880000000  0.4987430000000 1.0
C      1  0.5022410000000  0.5068990000000  0.5769340000000 1.0
C      1  0.4966120000000  0.5696090000000  0.4952910000000 1.0
C      1  0.5727640000000  0.4996920000000  0.4971410000000 1.0
C      1  0.4970040000000  0.5043260000000  0.4306500000000 1.0
C      1  0.4912920000000  0.4275820000000  0.4981950000000 1.0
C      1  0.4326730000000  0.4895240000000  0.5053710000000 1.0
C      1  0.5087550000000  0.4900540000000  0.5047920000000 1.0
END
