TITL C-2782238-9940-729 -0.00537902570793204 125000 -542.958123771819 0 0 94 (C1) n - 1
REM
REM in /home/nfs/bkarasulu/CARBON/AIRSS/Generating-Clusters/REBO/Higher-Symm/SD-CG/HFTN-CG
REM
REM
REM
REM
REM
REM ./C.cell (12c818d87b63d06a65506943cc24bca4)
REM
REM compiler GCC version 9.2.1 20190827 (Red Hat 9.2.1-1)
REM options -cpp -mtune=generic -march=x86-64 -g -O0 -fpre-include=/usr/include/finclude/math-vector-fortran.h
REM seed 440944489 1596308664 -1550816011 -1174227936 1617621780 -1127943529 1041931755 -371656338 -15004513 1568446439 1896822649 -735404621 -523451792 1316052395 -111306128 1236380736 1060462653 -2073729093 1609363287 -1476264831 -553194658 -86154461 805833442 1091116114 -391707519 1794852813 -1404148870 1368418229 -1881367403 2033085329 -1559602433 -820389207 1006982117
REM
CELL 1.54180   50.00000   50.00000   50.00000   90.00000   90.00000   90.00000
LATT -1
SFAC C  
C      1  0.5230300000000  0.4844360000000  0.4474020000000 1.0
C      1  0.4681490000000  0.4997400000000  0.4580750000000 1.0
C      1  0.5022880000000  0.5236070000000  0.4451940000000 1.0
C      1  0.5212700000000  0.5161190000000  0.5598660000000 1.0
C      1  0.4781110000000  0.5109010000000  0.5591330000000 1.0
C      1  0.5173900000000  0.4681140000000  0.5489710000000 1.0
C      1  0.4554530000000  0.5576470000000  0.5114430000000 1.0
C      1  0.5683980000000  0.5124370000000  0.5096350000000 1.0
C      1  0.4701190000000  0.4404010000000  0.5132230000000 1.0
C      1  0.4604040000000  0.4499050000000  0.4885380000000 1.0
C      1  0.5684140000000  0.4885930000000  0.5018480000000 1.0
C      1  0.4669380000000  0.5669560000000  0.4881870000000 1.0
C      1  0.4559090000000  0.5178400000000  0.4338080000000 1.0
C      1  0.5274860000000  0.5160750000000  0.4235490000000 1.0
C      1  0.5014100000000  0.4744460000000  0.4324440000000 1.0
C      1  0.4830230000000  0.4850550000000  0.5785750000000 1.0
C      1  0.5404790000000  0.4751990000000  0.5704580000000 1.0
C      1  0.5018410000000  0.5340210000000  0.5813190000000 1.0
C      1  0.4661620000000  0.5703430000000  0.5352690000000 1.0
C      1  0.5719660000000  0.4843280000000  0.5475940000000 1.0
C      1  0.4512080000000  0.4443850000000  0.5357380000000 1.0
C      1  0.4706260000000  0.4320920000000  0.4655830000000 1.0
C      1  0.5847380000000  0.5139280000000  0.4643720000000 1.0
C      1  0.4509120000000  0.5535620000000  0.4542760000000 1.0
C      1  0.4162950000000  0.5145390000000  0.4869160000000 1.0
C      1  0.5572030000000  0.5640300000000  0.4867060000000 1.0
C      1  0.5262730000000  0.4221190000000  0.4855960000000 1.0
C      1  0.4123600000000  0.4815440000000  0.5091320000000 1.0
C      1  0.5569440000000  0.4474890000000  0.5173140000000 1.0
C      1  0.5106370000000  0.5771000000000  0.5051160000000 1.0
C      1  0.4739270000000  0.5387100000000  0.5722260000000 1.0
C      1  0.5454940000000  0.5023980000000  0.5714580000000 1.0
C      1  0.4906490000000  0.4625100000000  0.5646160000000 1.0
C      1  0.4746610000000  0.4740910000000  0.4412390000000 1.0
C      1  0.5484480000000  0.4967730000000  0.4355100000000 1.0
C      1  0.4783340000000  0.5357740000000  0.4312870000000 1.0
C      1  0.5731000000000  0.5394760000000  0.4692270000000 1.0
C      1  0.4982040000000  0.4222900000000  0.4661490000000 1.0
C      1  0.4240950000000  0.5349340000000  0.4639970000000 1.0
C      1  0.5726800000000  0.4536620000000  0.5455730000000 1.0
C      1  0.4936500000000  0.5799390000000  0.5303520000000 1.0
C      1  0.4270650000000  0.4630760000000  0.5271430000000 1.0
C      1  0.4989450000000  0.4215840000000  0.5395330000000 1.0
C      1  0.4346180000000  0.5333890000000  0.5398900000000 1.0
C      1  0.5658060000000  0.5369810000000  0.5417890000000 1.0
C      1  0.5041310000000  0.5740250000000  0.4553960000000 1.0
C      1  0.4304250000000  0.4632980000000  0.4551250000000 1.0
C      1  0.5662330000000  0.4654260000000  0.4682820000000 1.0
C      1  0.5576890000000  0.4366270000000  0.4851930000000 1.0
C      1  0.4120170000000  0.4822460000000  0.4767300000000 1.0
C      1  0.5293200000000  0.5823430000000  0.4776780000000 1.0
C      1  0.5664890000000  0.5622920000000  0.5186850000000 1.0
C      1  0.4137130000000  0.5137090000000  0.5206640000000 1.0
C      1  0.5199900000000  0.4108080000000  0.5149630000000 1.0
C      1  0.4857560000000  0.4833020000000  0.4785200000000 1.0
C      1  0.4927380000000  0.5237980000000  0.4783870000000 1.0
C      1  0.5242380000000  0.4936470000000  0.4796260000000 1.0
C      1  0.4821020000000  0.5191100000000  0.5261820000000 1.0
C      1  0.4924120000000  0.4772930000000  0.5274380000000 1.0
C      1  0.5251600000000  0.5045480000000  0.5275780000000 1.0
C      1  0.5552680000000  0.4301980000000  0.5533020000000 1.0
C      1  0.4402420000000  0.4810390000000  0.5472570000000 1.0
C      1  0.5147410000000  0.5613360000000  0.5415170000000 1.0
C      1  0.5467300000000  0.5405390000000  0.4561670000000 1.0
C      1  0.4274510000000  0.5164100000000  0.4389400000000 1.0
C      1  0.5170160000000  0.4441380000000  0.4536130000000 1.0
C      1  0.5000420000000  0.4480720000000  0.5191390000000 1.0
C      1  0.4550910000000  0.5257120000000  0.5149070000000 1.0
C      1  0.5423350000000  0.5295310000000  0.5189520000000 1.0
C      1  0.4883970000000  0.5559420000000  0.4763120000000 1.0
C      1  0.4487360000000  0.4761300000000  0.4912290000000 1.0
C      1  0.5425060000000  0.4731890000000  0.4907640000000 1.0
C      1  0.4170770000000  0.4904750000000  0.4442980000000 1.0
C      1  0.5356190000000  0.5654010000000  0.4501670000000 1.0
C      1  0.5445590000000  0.4433760000000  0.4550300000000 1.0
C      1  0.4241810000000  0.5044450000000  0.5512980000000 1.0
C      1  0.5323860000000  0.4174280000000  0.5443030000000 1.0
C      1  0.5429580000000  0.5626400000000  0.5412980000000 1.0
C      1  0.4550730000000  0.5527550000000  0.5562100000000 1.0
C      1  0.5704650000000  0.5122890000000  0.5583280000000 1.0
C      1  0.4771130000000  0.4407040000000  0.5525520000000 1.0
C      1  0.4564500000000  0.4535340000000  0.4489290000000 1.0
C      1  0.5713140000000  0.4912510000000  0.4524200000000 1.0
C      1  0.4754880000000  0.5645890000000  0.4396550000000 1.0
C      1  0.4596440000000  0.5284740000000  0.4721060000000 1.0
C      1  0.5290060000000  0.5204480000000  0.4630070000000 1.0
C      1  0.4992860000000  0.4618880000000  0.4702890000000 1.0
C      1  0.4672130000000  0.4857630000000  0.5421090000000 1.0
C      1  0.5436020000000  0.4761710000000  0.5306070000000 1.0
C      1  0.5043260000000  0.5354080000000  0.5416410000000 1.0
C      1  0.4443020000000  0.5023490000000  0.4976080000000 1.0
C      1  0.5254110000000  0.4489740000000  0.5044840000000 1.0
C      1  0.5309170000000  0.5532780000000  0.5043470000000 1.0
C      1  0.5004830000000  0.5012770000000  0.5036770000000 1.0
END
