TITL C-2782228-2999-693 -0.00309994006654806 125000 -1053.84512462034 0 0 179 (C1) n - 1
REM
REM in /home/nfs/bkarasulu/CARBON/AIRSS/Generating-Clusters/REBO/Higher-Symm/SD-CG/HFTN-CG
REM
REM
REM
REM
REM
REM ./C.cell (12c818d87b63d06a65506943cc24bca4)
REM
REM compiler GCC version 9.2.1 20190827 (Red Hat 9.2.1-1)
REM options -cpp -mtune=generic -march=x86-64 -g -O0 -fpre-include=/usr/include/finclude/math-vector-fortran.h
REM seed 578401795 1892075446 -830506602 -434140211 2062644524 454647245 -1399251604 -1457833779 -370309348 1824730172 2120041313 -1116917410 -1884851186 1451542792 1718935995 785296514 -18392581 2320265 120571244 -197626616 -773720326 226256843 1876684476 -1342896617 -21894204 -1320459837 -195269761 -1905817750 -278617672 1701722207 547381446 -1775489035 1693959134
REM
CELL 1.54180   50.00000   50.00000   50.00000   90.00000   90.00000   90.00000
LATT -1
SFAC C  
C      1  0.5056260000000  0.4852670000000  0.5290080000000 1.0
C      1  0.4700650000000  0.4851440000000  0.4930140000000 1.0
C      1  0.5186440000000  0.4839120000000  0.4823170000000 1.0
C      1  0.4892310000000  0.5150640000000  0.5291620000000 1.0
C      1  0.5247250000000  0.5167640000000  0.4894510000000 1.0
C      1  0.4780570000000  0.5158130000000  0.4799010000000 1.0
C      1  0.4639680000000  0.5211000000000  0.5084860000000 1.0
C      1  0.5070070000000  0.5160420000000  0.4623450000000 1.0
C      1  0.5192340000000  0.5218770000000  0.5220370000000 1.0
C      1  0.5297840000000  0.4835590000000  0.5103540000000 1.0
C      1  0.4895840000000  0.4789850000000  0.4697790000000 1.0
C      1  0.4769450000000  0.4776670000000  0.5224170000000 1.0
C      1  0.5381320000000  0.4397580000000  0.5102050000000 1.0
C      1  0.4820100000000  0.4443520000000  0.5183740000000 1.0
C      1  0.4746660000000  0.4424930000000  0.4639720000000 1.0
C      1  0.4597460000000  0.5674680000000  0.5098990000000 1.0
C      1  0.5211090000000  0.5530350000000  0.5138170000000 1.0
C      1  0.5118930000000  0.5555030000000  0.4654020000000 1.0
C      1  0.5227570000000  0.5838160000000  0.5552900000000 1.0
C      1  0.4527120000000  0.5917270000000  0.4916520000000 1.0
C      1  0.5429020000000  0.5958640000000  0.4535560000000 1.0
C      1  0.4777390000000  0.4164770000000  0.5381690000000 1.0
C      1  0.5614080000000  0.4154030000000  0.5041440000000 1.0
C      1  0.4751410000000  0.4128870000000  0.4504030000000 1.0
C      1  0.5732080000000  0.5478900000000  0.5210870000000 1.0
C      1  0.4429090000000  0.5494790000000  0.5551170000000 1.0
C      1  0.4815440000000  0.5500120000000  0.4256260000000 1.0
C      1  0.4233130000000  0.4508250000000  0.5221650000000 1.0
C      1  0.5573510000000  0.4554010000000  0.5550210000000 1.0
C      1  0.5125440000000  0.4507680000000  0.4289540000000 1.0
C      1  0.4737560000000  0.4764870000000  0.4220140000000 1.0
C      1  0.5767480000000  0.4763590000000  0.5126060000000 1.0
C      1  0.4408460000000  0.4726770000000  0.5569550000000 1.0
C      1  0.5235210000000  0.5198980000000  0.4261210000000 1.0
C      1  0.4207180000000  0.5214260000000  0.5216210000000 1.0
C      1  0.5537240000000  0.5274040000000  0.5557960000000 1.0
C      1  0.6052780000000  0.5113470000000  0.5029450000000 1.0
C      1  0.4475710000000  0.5082790000000  0.5907930000000 1.0
C      1  0.4471510000000  0.5140770000000  0.4080970000000 1.0
C      1  0.3973740000000  0.4942360000000  0.5034760000000 1.0
C      1  0.5570570000000  0.4918110000000  0.5897740000000 1.0
C      1  0.5466660000000  0.4908910000000  0.4114540000000 1.0
C      1  0.5562630000000  0.4986540000000  0.5059080000000 1.0
C      1  0.4633160000000  0.4907970000000  0.5474040000000 1.0
C      1  0.4756180000000  0.4943170000000  0.4463060000000 1.0
C      1  0.4365910000000  0.5006730000000  0.5077100000000 1.0
C      1  0.5354240000000  0.5053660000000  0.5456810000000 1.0
C      1  0.5278520000000  0.4973220000000  0.4461390000000 1.0
C      1  0.4511990000000  0.6049450000000  0.5206400000000 1.0
C      1  0.5131240000000  0.5969730000000  0.4506470000000 1.0
C      1  0.5372160000000  0.5965880000000  0.5328840000000 1.0
C      1  0.5452540000000  0.4044310000000  0.5274130000000 1.0
C      1  0.5026920000000  0.4029180000000  0.4527600000000 1.0
C      1  0.4554150000000  0.3994730000000  0.5263940000000 1.0
C      1  0.4798650000000  0.5993620000000  0.4513100000000 1.0
C      1  0.5506220000000  0.5954610000000  0.5019480000000 1.0
C      1  0.4738810000000  0.5947570000000  0.5421210000000 1.0
C      1  0.5346620000000  0.4011330000000  0.4633930000000 1.0
C      1  0.4513090000000  0.4019670000000  0.4937870000000 1.0
C      1  0.5217350000000  0.4004640000000  0.5503280000000 1.0
C      1  0.4296980000000  0.5214620000000  0.4294260000000 1.0
C      1  0.6000490000000  0.5169240000000  0.4750570000000 1.0
C      1  0.4733210000000  0.5162070000000  0.5999890000000 1.0
C      1  0.5683130000000  0.4819260000000  0.4289870000000 1.0
C      1  0.4035960000000  0.4838100000000  0.4772550000000 1.0
C      1  0.5308300000000  0.4813670000000  0.5965530000000 1.0
C      1  0.4816410000000  0.4479620000000  0.4328580000000 1.0
C      1  0.5650760000000  0.4495160000000  0.5244930000000 1.0
C      1  0.4530520000000  0.4474370000000  0.5383350000000 1.0
C      1  0.5125660000000  0.5472430000000  0.4371210000000 1.0
C      1  0.4384400000000  0.5492290000000  0.5216450000000 1.0
C      1  0.5426730000000  0.5508760000000  0.5363530000000 1.0
C      1  0.5084410000000  0.5066280000000  0.5631520000000 1.0
C      1  0.4388820000000  0.5087970000000  0.4777750000000 1.0
C      1  0.5543070000000  0.5058050000000  0.4578450000000 1.0
C      1  0.4888260000000  0.4869920000000  0.5650500000000 1.0
C      1  0.5636180000000  0.4883180000000  0.4769690000000 1.0
C      1  0.4481730000000  0.4898060000000  0.4599750000000 1.0
C      1  0.4483040000000  0.4125170000000  0.4652140000000 1.0
C      1  0.5622320000000  0.4098260000000  0.4754030000000 1.0
C      1  0.4952760000000  0.4121110000000  0.5609620000000 1.0
C      1  0.5575600000000  0.5862360000000  0.4748790000000 1.0
C      1  0.4572070000000  0.5855170000000  0.4650450000000 1.0
C      1  0.4955790000000  0.5823900000000  0.5578340000000 1.0
C      1  0.5143170000000  0.3939330000000  0.5177000000000 1.0
C      1  0.4823690000000  0.3939230000000  0.5055680000000 1.0
C      1  0.5092150000000  0.3935180000000  0.4846660000000 1.0
C      1  0.4844390000000  0.6055180000000  0.5114800000000 1.0
C      1  0.5180620000000  0.6043510000000  0.5065320000000 1.0
C      1  0.4976480000000  0.6049230000000  0.4799620000000 1.0
C      1  0.5612000000000  0.5323740000000  0.4538820000000 1.0
C      1  0.5057800000000  0.5325030000000  0.5728490000000 1.0
C      1  0.4363960000000  0.5363720000000  0.4759030000000 1.0
C      1  0.4391150000000  0.4639890000000  0.4546300000000 1.0
C      1  0.4930700000000  0.4601480000000  0.5707680000000 1.0
C      1  0.5693780000000  0.4609040000000  0.4751120000000 1.0
C      1  0.4712640000000  0.5297840000000  0.4039880000000 1.0
C      1  0.5976230000000  0.5292670000000  0.5246040000000 1.0
C      1  0.4326150000000  0.5251350000000  0.5727740000000 1.0
C      1  0.5212780000000  0.4757990000000  0.4082080000000 1.0
C      1  0.4051750000000  0.4777090000000  0.5261040000000 1.0
C      1  0.5740990000000  0.4766070000000  0.5709390000000 1.0
C      1  0.4421080000000  0.4700290000000  0.5045180000000 1.0
C      1  0.5240870000000  0.4659930000000  0.4543900000000 1.0
C      1  0.5304710000000  0.4716660000000  0.5476980000000 1.0
C      1  0.5527080000000  0.5314770000000  0.5024920000000 1.0
C      1  0.4800560000000  0.5264200000000  0.4473220000000 1.0
C      1  0.4584150000000  0.5217400000000  0.5423970000000 1.0
C      1  0.4391880000000  0.4816720000000  0.5889500000000 1.0
C      1  0.4514280000000  0.4869870000000  0.4021760000000 1.0
C      1  0.6036100000000  0.4845400000000  0.5128830000000 1.0
C      1  0.5613000000000  0.5195510000000  0.5869960000000 1.0
C      1  0.5414350000000  0.5195270000000  0.4003450000000 1.0
C      1  0.3884780000000  0.5224890000000  0.5118550000000 1.0
C      1  0.4846630000000  0.5548340000000  0.5681990000000 1.0
C      1  0.4568510000000  0.5553740000000  0.4615580000000 1.0
C      1  0.5659730000000  0.5563400000000  0.4738980000000 1.0
C      1  0.5167740000000  0.4378050000000  0.5637150000000 1.0
C      1  0.5513670000000  0.4371150000000  0.4586150000000 1.0
C      1  0.4279050000000  0.4327420000000  0.4835970000000 1.0
C      1  0.5830960000000  0.5371460000000  0.5696670000000 1.0
C      1  0.3977280000000  0.5387210000000  0.5403690000000 1.0
C      1  0.5174080000000  0.5368460000000  0.3905570000000 1.0
C      1  0.4121470000000  0.4674370000000  0.5750350000000 1.0
C      1  0.6147550000000  0.4740970000000  0.5388080000000 1.0
C      1  0.4756480000000  0.4734560000000  0.3851300000000 1.0
C      1  0.5285370000000  0.4543580000000  0.5910180000000 1.0
C      1  0.4077970000000  0.4561860000000  0.4775660000000 1.0
C      1  0.5666240000000  0.4546250000000  0.4338150000000 1.0
C      1  0.4766260000000  0.5436540000000  0.5975050000000 1.0
C      1  0.5951950000000  0.5438840000000  0.4712170000000 1.0
C      1  0.4358940000000  0.5469560000000  0.4376410000000 1.0
C      1  0.4300470000000  0.4188950000000  0.5146760000000 1.0
C      1  0.5259280000000  0.4242140000000  0.4397360000000 1.0
C      1  0.5467450000000  0.4231480000000  0.5558150000000 1.0
C      1  0.5672250000000  0.5808390000000  0.5278390000000 1.0
C      1  0.4948050000000  0.5813320000000  0.4264400000000 1.0
C      1  0.4418860000000  0.5819410000000  0.5441650000000 1.0
C      1  0.4122430000000  0.4761890000000  0.4277000000000 1.0
C      1  0.6063240000000  0.4741190000000  0.4676090000000 1.0
C      1  0.4783260000000  0.4719790000000  0.6059110000000 1.0
C      1  0.5831760000000  0.5186010000000  0.4235080000000 1.0
C      1  0.3931030000000  0.5262700000000  0.4661090000000 1.0
C      1  0.5257860000000  0.5200800000000  0.6051600000000 1.0
C      1  0.5959620000000  0.4521440000000  0.4864370000000 1.0
C      1  0.4705770000000  0.4486300000000  0.5866290000000 1.0
C      1  0.4327730000000  0.4535290000000  0.4275320000000 1.0
C      1  0.4092100000000  0.5450340000000  0.4817330000000 1.0
C      1  0.5293880000000  0.5427170000000  0.5870870000000 1.0
C      1  0.5629950000000  0.5415840000000  0.4255800000000 1.0
C      1  0.4043400000000  0.4883240000000  0.5525230000000 1.0
C      1  0.5003720000000  0.4893940000000  0.3925040000000 1.0
C      1  0.5982260000000  0.4897380000000  0.5581420000000 1.0
C      1  0.5988980000000  0.5186060000000  0.5513500000000 1.0
C      1  0.4946230000000  0.5185870000000  0.3909720000000 1.0
C      1  0.4090320000000  0.5156660000000  0.5594300000000 1.0
C      1  0.4871280000000  0.5573740000000  0.4769540000000 1.0
C      1  0.5347990000000  0.5550370000000  0.4851040000000 1.0
C      1  0.4758470000000  0.5552080000000  0.5366790000000 1.0
C      1  0.5274660000000  0.4452480000000  0.4817660000000 1.0
C      1  0.4584750000000  0.4434960000000  0.4923640000000 1.0
C      1  0.5141450000000  0.4464930000000  0.5306290000000 1.0
C      1  0.5397790000000  0.5553580000000  0.4179680000000 1.0
C      1  0.5416140000000  0.5631030000000  0.5688150000000 1.0
C      1  0.4093670000000  0.5569470000000  0.5073260000000 1.0
C      1  0.4555940000000  0.4416180000000  0.4149570000000 1.0
C      1  0.4507820000000  0.4363210000000  0.5698780000000 1.0
C      1  0.5939000000000  0.4403650000000  0.5128200000000 1.0
C      1  0.4243400000000  0.4376400000000  0.5783700000000 1.0
C      1  0.4616290000000  0.4460300000000  0.3882190000000 1.0
C      1  0.6143960000000  0.4456430000000  0.5323890000000 1.0
C      1  0.5725480000000  0.5655860000000  0.5577740000000 1.0
C      1  0.5138980000000  0.5664630000000  0.4025070000000 1.0
C      1  0.4101820000000  0.5704410000000  0.5385710000000 1.0
C      1  0.5920730000000  0.4973500000000  0.4482230000000 1.0
C      1  0.4094960000000  0.5019550000000  0.4488590000000 1.0
C      1  0.5012650000000  0.4969760000000  0.6035920000000 1.0
C      1  0.4917800000000  0.5595920000000  0.5085910000000 1.0
C      1  0.4971050000000  0.4506010000000  0.4873140000000 1.0
END
