TITL C-2782232-2968-154 7.42467218806428e-05 125000 -441.440728321234 0 0 72 (C1) n - 1
REM
REM in /home/nfs/bkarasulu/CARBON/AIRSS/Generating-Clusters/REBO/Higher-Symm/SD-CG/HFTN-CG
REM
REM
REM
REM
REM
REM ./C.cell (12c818d87b63d06a65506943cc24bca4)
REM
REM compiler GCC version 9.2.1 20190827 (Red Hat 9.2.1-1)
REM options -cpp -mtune=generic -march=x86-64 -g -O0 -fpre-include=/usr/include/finclude/math-vector-fortran.h
REM seed -809635943 -83660344 1087975885 379571616 -758160598 -145014219 -1863801557 -1571451595 113794982 503262912 -1460872964 1717155186 -424281611 -522765063 504240503 -151702530 1758502536 -1878020972 2011293727 -759126822 928832476 -604265132 436250306 -816199453 -1487123083 -1589811189 -311949371 -1070305247 -2022807279 -204838516 1846652031 1941883211 -1372345211
REM
CELL 1.54180   50.00000   50.00000   50.00000   90.00000   90.00000   90.00000
LATT -1
SFAC C  
C      1  0.4388030000000  0.4851070000000  0.4860310000000 1.0
C      1  0.4587210000000  0.4861050000000  0.5486300000000 1.0
C      1  0.5385140000000  0.4916040000000  0.5466670000000 1.0
C      1  0.5559100000000  0.4825950000000  0.4719180000000 1.0
C      1  0.4951030000000  0.4874130000000  0.4464880000000 1.0
C      1  0.4949670000000  0.4807710000000  0.5789400000000 1.0
C      1  0.5802650000000  0.4787030000000  0.5298530000000 1.0
C      1  0.5571950000000  0.4760300000000  0.4326580000000 1.0
C      1  0.4575920000000  0.4785090000000  0.4251970000000 1.0
C      1  0.4166740000000  0.4764110000000  0.5181870000000 1.0
C      1  0.4769790000000  0.5696900000000  0.5050400000000 1.0
C      1  0.5043080000000  0.5782850000000  0.5447960000000 1.0
C      1  0.5268150000000  0.5701540000000  0.5010150000000 1.0
C      1  0.5244430000000  0.5723580000000  0.4723940000000 1.0
C      1  0.4738430000000  0.5725400000000  0.4766400000000 1.0
C      1  0.4636330000000  0.5514750000000  0.4605680000000 1.0
C      1  0.4579900000000  0.5518350000000  0.5187450000000 1.0
C      1  0.5083660000000  0.5551760000000  0.5605760000000 1.0
C      1  0.5482610000000  0.5517840000000  0.5094200000000 1.0
C      1  0.5286120000000  0.5512930000000  0.4536170000000 1.0
C      1  0.4563320000000  0.4435290000000  0.4600820000000 1.0
C      1  0.4580260000000  0.4408840000000  0.5277460000000 1.0
C      1  0.5141020000000  0.4469180000000  0.5469530000000 1.0
C      1  0.5571050000000  0.4428790000000  0.5030290000000 1.0
C      1  0.5240770000000  0.4424690000000  0.4458190000000 1.0
C      1  0.4520560000000  0.5054910000000  0.4675060000000 1.0
C      1  0.4529190000000  0.5112160000000  0.5314140000000 1.0
C      1  0.5168430000000  0.5144280000000  0.5497920000000 1.0
C      1  0.5528730000000  0.5049320000000  0.5027510000000 1.0
C      1  0.5182710000000  0.5080250000000  0.4465550000000 1.0
C      1  0.5253010000000  0.4434810000000  0.4987610000000 1.0
C      1  0.5084470000000  0.4424440000000  0.4728850000000 1.0
C      1  0.4782920000000  0.4366830000000  0.4814450000000 1.0
C      1  0.4802470000000  0.4317740000000  0.5129390000000 1.0
C      1  0.5068330000000  0.4359560000000  0.5218120000000 1.0
C      1  0.5332670000000  0.5407070000000  0.5547010000000 1.0
C      1  0.5552600000000  0.5328900000000  0.4885040000000 1.0
C      1  0.5064710000000  0.5369940000000  0.4413710000000 1.0
C      1  0.4457240000000  0.5348340000000  0.4750880000000 1.0
C      1  0.4652530000000  0.5384630000000  0.5444230000000 1.0
C      1  0.4649070000000  0.4563560000000  0.5507650000000 1.0
C      1  0.5403070000000  0.4591440000000  0.5470490000000 1.0
C      1  0.5640830000000  0.4520800000000  0.4758320000000 1.0
C      1  0.4987840000000  0.4556910000000  0.4364370000000 1.0
C      1  0.4325720000000  0.4537520000000  0.4740390000000 1.0
C      1  0.5053230000000  0.5122750000000  0.4761090000000 1.0
C      1  0.4783490000000  0.5137350000000  0.4845030000000 1.0
C      1  0.4778750000000  0.5176830000000  0.5127130000000 1.0
C      1  0.5044990000000  0.5193110000000  0.5219410000000 1.0
C      1  0.5215640000000  0.5142840000000  0.4993370000000 1.0
C      1  0.5170000000000  0.4815420000000  0.5237630000000 1.0
C      1  0.5355510000000  0.4760050000000  0.4980120000000 1.0
C      1  0.4958190000000  0.4718310000000  0.4739730000000 1.0
C      1  0.4638850000000  0.4639660000000  0.4958030000000 1.0
C      1  0.4866950000000  0.4864180000000  0.5360110000000 1.0
C      1  0.4293250000000  0.5055140000000  0.5115860000000 1.0
C      1  0.4954270000000  0.5079550000000  0.5718770000000 1.0
C      1  0.5638860000000  0.5073140000000  0.5326730000000 1.0
C      1  0.5486990000000  0.5033280000000  0.4485130000000 1.0
C      1  0.4680630000000  0.5044190000000  0.4405700000000 1.0
C      1  0.5541350000000  0.5393160000000  0.5353380000000 1.0
C      1  0.5493880000000  0.5327510000000  0.4611730000000 1.0
C      1  0.4782930000000  0.5355660000000  0.4413590000000 1.0
C      1  0.4398520000000  0.5358060000000  0.5027030000000 1.0
C      1  0.4862290000000  0.5362890000000  0.5633320000000 1.0
C      1  0.4684570000000  0.4541980000000  0.4361540000000 1.0
C      1  0.4340910000000  0.4524490000000  0.5082420000000 1.0
C      1  0.4918760000000  0.4568630000000  0.5631500000000 1.0
C      1  0.5634170000000  0.4549450000000  0.5287630000000 1.0
C      1  0.5512160000000  0.4516200000000  0.4471580000000 1.0
C      1  0.5028580000000  0.5761560000000  0.5165540000000 1.0
C      1  0.4893730000000  0.4800850000000  0.5040340000000 1.0
END
