TITL C-2782232-2968-757 0.00865010300918844 125000 -1087.13920045963 0 0 185 (C1) n - 1
REM
REM in /home/nfs/bkarasulu/CARBON/AIRSS/Generating-Clusters/REBO/Higher-Symm/SD-CG/HFTN-CG
REM
REM
REM
REM
REM
REM ./C.cell (12c818d87b63d06a65506943cc24bca4)
REM
REM compiler GCC version 9.2.1 20190827 (Red Hat 9.2.1-1)
REM options -cpp -mtune=generic -march=x86-64 -g -O0 -fpre-include=/usr/include/finclude/math-vector-fortran.h
REM seed -2097288118 -247378655 -1192311549 881904429 -676461762 941724352 -1974758874 180014478 1850869261 488970385 1836185762 1143915495 1912516800 -49291111 1529626169 913864097 27206635 -973238976 813570042 2073144801 1755022450 -933531664 542166466 -1198700762 -552933627 1839380898 -1418187544 1786228934 1466660780 1067710717 894256337 -1809369881 167706688
REM
CELL 1.54180   50.00000   50.00000   50.00000   90.00000   90.00000   90.00000
LATT -1
SFAC C  
C      1  0.5129550000000  0.4070660000000  0.5687350000000 1.0
C      1  0.4130210000000  0.4571360000000  0.5692290000000 1.0
C      1  0.4335300000000  0.5650930000000  0.5676970000000 1.0
C      1  0.5409490000000  0.5815020000000  0.5692610000000 1.0
C      1  0.5942490000000  0.4840190000000  0.5686720000000 1.0
C      1  0.4830080000000  0.4103660000000  0.5686190000000 1.0
C      1  0.5816700000000  0.4564450000000  0.5684970000000 1.0
C      1  0.5654370000000  0.5637690000000  0.5678700000000 1.0
C      1  0.4557530000000  0.5854030000000  0.5690600000000 1.0
C      1  0.4035480000000  0.4857680000000  0.5696290000000 1.0
C      1  0.5456010000000  0.5293070000000  0.4980290000000 1.0
C      1  0.5423180000000  0.4682540000000  0.5019900000000 1.0
C      1  0.4832760000000  0.4504450000000  0.5001290000000 1.0
C      1  0.4495590000000  0.4990740000000  0.5143490000000 1.0
C      1  0.4867710000000  0.5491050000000  0.5114310000000 1.0
C      1  0.4623290000000  0.5285220000000  0.5050560000000 1.0
C      1  0.4570600000000  0.4690860000000  0.5087010000000 1.0
C      1  0.5157230000000  0.4512140000000  0.5077710000000 1.0
C      1  0.5538650000000  0.4984490000000  0.5075840000000 1.0
C      1  0.5192890000000  0.5465120000000  0.5038200000000 1.0
C      1  0.4573680000000  0.4651110000000  0.4221250000000 1.0
C      1  0.4587400000000  0.5275480000000  0.4134370000000 1.0
C      1  0.5174430000000  0.5490790000000  0.4169510000000 1.0
C      1  0.5464750000000  0.4993520000000  0.4048990000000 1.0
C      1  0.5155730000000  0.4460620000000  0.4195110000000 1.0
C      1  0.5408070000000  0.4685420000000  0.4184290000000 1.0
C      1  0.5445980000000  0.5327150000000  0.4122510000000 1.0
C      1  0.4858740000000  0.5459620000000  0.4044500000000 1.0
C      1  0.4463700000000  0.4957630000000  0.4121730000000 1.0
C      1  0.4832590000000  0.4445610000000  0.4157720000000 1.0
C      1  0.5497710000000  0.4999640000000  0.5412190000000 1.0
C      1  0.5150190000000  0.4547320000000  0.5418510000000 1.0
C      1  0.4604570000000  0.4720040000000  0.5415520000000 1.0
C      1  0.4638090000000  0.5285980000000  0.5369650000000 1.0
C      1  0.5163220000000  0.5447260000000  0.5376120000000 1.0
C      1  0.4534910000000  0.5013000000000  0.5483610000000 1.0
C      1  0.4853020000000  0.4554320000000  0.5330950000000 1.0
C      1  0.5384230000000  0.4721500000000  0.5331570000000 1.0
C      1  0.5410830000000  0.5276520000000  0.5312230000000 1.0
C      1  0.4866290000000  0.5475400000000  0.5451260000000 1.0
C      1  0.5205840000000  0.4391250000000  0.4780110000000 1.0
C      1  0.4499490000000  0.4590300000000  0.4799250000000 1.0
C      1  0.4491290000000  0.5367460000000  0.4749160000000 1.0
C      1  0.5063120000000  0.5603040000000  0.4784720000000 1.0
C      1  0.5702120000000  0.5041420000000  0.4791030000000 1.0
C      1  0.4757910000000  0.4384620000000  0.4714320000000 1.0
C      1  0.5571890000000  0.4744000000000  0.4759600000000 1.0
C      1  0.5582240000000  0.5327470000000  0.4698170000000 1.0
C      1  0.4724610000000  0.5607210000000  0.4832480000000 1.0
C      1  0.4342660000000  0.5078540000000  0.4861670000000 1.0
C      1  0.5224470000000  0.5879400000000  0.4682570000000 1.0
C      1  0.5995230000000  0.5020210000000  0.4673750000000 1.0
C      1  0.5161480000000  0.4093290000000  0.4738090000000 1.0
C      1  0.4200940000000  0.4565670000000  0.4748270000000 1.0
C      1  0.4227310000000  0.5501020000000  0.4627040000000 1.0
C      1  0.4707140000000  0.5885130000000  0.4690660000000 1.0
C      1  0.4107710000000  0.4894330000000  0.4772050000000 1.0
C      1  0.4824720000000  0.4084820000000  0.4687940000000 1.0
C      1  0.5776500000000  0.4534050000000  0.4684120000000 1.0
C      1  0.5819140000000  0.5524550000000  0.4637730000000 1.0
C      1  0.4382750000000  0.4409380000000  0.5524790000000 1.0
C      1  0.4268790000000  0.5373190000000  0.5487460000000 1.0
C      1  0.5126120000000  0.5819800000000  0.5506100000000 1.0
C      1  0.5856520000000  0.5126990000000  0.5522660000000 1.0
C      1  0.5377680000000  0.4240160000000  0.5524230000000 1.0
C      1  0.5581330000000  0.4414850000000  0.5490290000000 1.0
C      1  0.5753700000000  0.5374140000000  0.5488310000000 1.0
C      1  0.4859220000000  0.5863340000000  0.5530930000000 1.0
C      1  0.4156030000000  0.5127500000000  0.5520190000000 1.0
C      1  0.4615210000000  0.4275520000000  0.5484970000000 1.0
C      1  0.4193670000000  0.5896110000000  0.4869590000000 1.0
C      1  0.5614730000000  0.6061120000000  0.4909960000000 1.0
C      1  0.6206690000000  0.4755820000000  0.4886400000000 1.0
C      1  0.5116950000000  0.3741560000000  0.4921650000000 1.0
C      1  0.3844890000000  0.4496050000000  0.4915570000000 1.0
C      1  0.5820180000000  0.5924260000000  0.4908090000000 1.0
C      1  0.4391080000000  0.6042130000000  0.4878040000000 1.0
C      1  0.3770740000000  0.4729900000000  0.4910800000000 1.0
C      1  0.4871570000000  0.3751860000000  0.4903950000000 1.0
C      1  0.6120180000000  0.4526000000000  0.4884490000000 1.0
C      1  0.5905200000000  0.5668770000000  0.5441440000000 1.0
C      1  0.5906030000000  0.4347180000000  0.5431930000000 1.0
C      1  0.4655130000000  0.3942830000000  0.5436640000000 1.0
C      1  0.3855980000000  0.4993550000000  0.5437800000000 1.0
C      1  0.4618830000000  0.6074480000000  0.5432740000000 1.0
C      1  0.4111150000000  0.5665240000000  0.5416280000000 1.0
C      1  0.4063980000000  0.4348850000000  0.5438330000000 1.0
C      1  0.5317550000000  0.3922950000000  0.5438470000000 1.0
C      1  0.6144750000000  0.4979170000000  0.5443080000000 1.0
C      1  0.5359120000000  0.6056690000000  0.5450570000000 1.0
C      1  0.4854760000000  0.4161950000000  0.5265750000000 1.0
C      1  0.4143380000000  0.4873520000000  0.5290220000000 1.0
C      1  0.4633830000000  0.5764910000000  0.5286770000000 1.0
C      1  0.5624030000000  0.5606520000000  0.5265020000000 1.0
C      1  0.5760980000000  0.4609190000000  0.5268460000000 1.0
C      1  0.5138980000000  0.4170760000000  0.5284410000000 1.0
C      1  0.5863000000000  0.4880370000000  0.5279720000000 1.0
C      1  0.5381710000000  0.5764340000000  0.5278060000000 1.0
C      1  0.4406040000000  0.5590800000000  0.5259050000000 1.0
C      1  0.4234440000000  0.4605570000000  0.5286100000000 1.0
C      1  0.5745430000000  0.5049050000000  0.4233680000000 1.0
C      1  0.5285340000000  0.4179910000000  0.4250770000000 1.0
C      1  0.4332870000000  0.4449330000000  0.4237080000000 1.0
C      1  0.4347570000000  0.5457670000000  0.4248840000000 1.0
C      1  0.5200290000000  0.5778330000000  0.4298560000000 1.0
C      1  0.4180210000000  0.5016620000000  0.4291130000000 1.0
C      1  0.4707620000000  0.4160730000000  0.4173210000000 1.0
C      1  0.5661110000000  0.4489940000000  0.4221760000000 1.0
C      1  0.5708640000000  0.5445470000000  0.4263740000000 1.0
C      1  0.4806430000000  0.5756940000000  0.4205190000000 1.0
C      1  0.4841680000000  0.5530050000000  0.5774160000000 1.0
C      1  0.5401860000000  0.5299590000000  0.5657380000000 1.0
C      1  0.5403270000000  0.4719250000000  0.5675990000000 1.0
C      1  0.4847940000000  0.4538840000000  0.5674910000000 1.0
C      1  0.4490710000000  0.5030710000000  0.5805970000000 1.0
C      1  0.5163560000000  0.5482510000000  0.5715730000000 1.0
C      1  0.4599400000000  0.5334700000000  0.5709120000000 1.0
C      1  0.4577960000000  0.4723430000000  0.5754930000000 1.0
C      1  0.5160710000000  0.4510170000000  0.5745620000000 1.0
C      1  0.5524880000000  0.5005140000000  0.5738390000000 1.0
C      1  0.4102550000000  0.4303780000000  0.4902220000000 1.0
C      1  0.4051640000000  0.5608350000000  0.4859180000000 1.0
C      1  0.5298180000000  0.6089110000000  0.4890310000000 1.0
C      1  0.6192530000000  0.5082140000000  0.4908340000000 1.0
C      1  0.5380840000000  0.3930770000000  0.4901260000000 1.0
C      1  0.5874760000000  0.4301050000000  0.4874680000000 1.0
C      1  0.5967640000000  0.5642560000000  0.4876290000000 1.0
C      1  0.4710530000000  0.6119140000000  0.4899240000000 1.0
C      1  0.3850600000000  0.5040160000000  0.4900870000000 1.0
C      1  0.4605530000000  0.3933940000000  0.4876840000000 1.0
C      1  0.4876380000000  0.4550960000000  0.4462700000000 1.0
C      1  0.4587520000000  0.4995600000000  0.4419130000000 1.0
C      1  0.4837980000000  0.5465640000000  0.4379560000000 1.0
C      1  0.5379420000000  0.5321030000000  0.4467250000000 1.0
C      1  0.5389360000000  0.4772790000000  0.4525550000000 1.0
C      1  0.5181020000000  0.4558370000000  0.4524380000000 1.0
C      1  0.5441960000000  0.5028610000000  0.4382730000000 1.0
C      1  0.5109620000000  0.5457610000000  0.4517820000000 1.0
C      1  0.4625640000000  0.5283910000000  0.4486390000000 1.0
C      1  0.4632710000000  0.4727530000000  0.4553880000000 1.0
C      1  0.5171920000000  0.6013030000000  0.5163210000000 1.0
C      1  0.6034490000000  0.5159270000000  0.5168250000000 1.0
C      1  0.5450570000000  0.4086190000000  0.5164150000000 1.0
C      1  0.4264600000000  0.4283350000000  0.5165740000000 1.0
C      1  0.4108940000000  0.5466600000000  0.5135040000000 1.0
C      1  0.4831330000000  0.6019450000000  0.5166060000000 1.0
C      1  0.3985250000000  0.5150740000000  0.5160970000000 1.0
C      1  0.4541250000000  0.4085540000000  0.5144270000000 1.0
C      1  0.5724860000000  0.4288110000000  0.5143890000000 1.0
C      1  0.5925340000000  0.5482440000000  0.5149440000000 1.0
C      1  0.5798580000000  0.5056020000000  0.5908020000000 1.0
C      1  0.5297180000000  0.4264750000000  0.5911710000000 1.0
C      1  0.4384050000000  0.4504070000000  0.5908670000000 1.0
C      1  0.4311470000000  0.5377900000000  0.5882120000000 1.0
C      1  0.5139310000000  0.5765000000000  0.5898850000000 1.0
C      1  0.4186580000000  0.5072370000000  0.5911850000000 1.0
C      1  0.4664260000000  0.4339030000000  0.5873280000000 1.0
C      1  0.5543670000000  0.4484750000000  0.5878230000000 1.0
C      1  0.5660110000000  0.5354870000000  0.5873090000000 1.0
C      1  0.4806890000000  0.5816280000000  0.5920900000000 1.0
C      1  0.5124260000000  0.4028030000000  0.4429190000000 1.0
C      1  0.4142950000000  0.4531430000000  0.4422750000000 1.0
C      1  0.4335590000000  0.5715450000000  0.4390370000000 1.0
C      1  0.5453080000000  0.5841380000000  0.4447590000000 1.0
C      1  0.5946150000000  0.4856910000000  0.4390630000000 1.0
C      1  0.4832210000000  0.3999880000000  0.4367200000000 1.0
C      1  0.5855490000000  0.4586030000000  0.4413300000000 1.0
C      1  0.5688980000000  0.5712930000000  0.4411560000000 1.0
C      1  0.4567710000000  0.5867160000000  0.4401990000000 1.0
C      1  0.4091050000000  0.4820630000000  0.4463320000000 1.0
C      1  0.5641850000000  0.3879660000000  0.4747080000000 1.0
C      1  0.4137040000000  0.4043580000000  0.4742830000000 1.0
C      1  0.3766320000000  0.5514520000000  0.4771850000000 1.0
C      1  0.5141940000000  0.6348150000000  0.4805960000000 1.0
C      1  0.6362300000000  0.5333020000000  0.4840330000000 1.0
C      1  0.4336810000000  0.3892980000000  0.4732110000000 1.0
C      1  0.5845040000000  0.4026350000000  0.4738760000000 1.0
C      1  0.6272990000000  0.5569030000000  0.4835040000000 1.0
C      1  0.4889020000000  0.6353430000000  0.4802670000000 1.0
C      1  0.3701140000000  0.5271280000000  0.4766050000000 1.0
C      1  0.4150920000000  0.5280110000000  0.4375610000000 1.0
C      1  0.5897200000000  0.5246540000000  0.4457900000000 1.0
C      1  0.5569030000000  0.4215950000000  0.4220140000000 1.0
C      1  0.4422680000000  0.4189440000000  0.4161600000000 1.0
C      1  0.4953720000000  0.5886510000000  0.4484280000000 1.0
END
