TITL C-2782231-7322-167 0.000641071263014252 125000 -1075.5380788994 0 0 189 (C1) n - 1
REM
REM in /home/nfs/bkarasulu/CARBON/AIRSS/Generating-Clusters/REBO/Higher-Symm/SD-CG/HFTN-CG
REM
REM
REM
REM
REM
REM ./C.cell (12c818d87b63d06a65506943cc24bca4)
REM
REM compiler GCC version 9.2.1 20190827 (Red Hat 9.2.1-1)
REM options -cpp -mtune=generic -march=x86-64 -g -O0 -fpre-include=/usr/include/finclude/math-vector-fortran.h
REM seed 1341896458 -2069368199 2062952987 1238778721 -140192720 628034352 54378774 -867595234 -773965748 -886442426 -1564566128 1637754523 1065298387 2026189485 -1239561865 1351376105 1168106294 1005360391 -383774320 -777490966 -1411296377 779322224 -966318098 -246853833 -499380839 680983934 1952371833 -1991152205 1862193394 821552739 -1901231961 119602534 1325004336
REM
CELL 1.54180   50.00000   50.00000   50.00000   90.00000   90.00000   90.00000
LATT -1
SFAC C  
C      1  0.4186290000000  0.5107670000000  0.4122340000000 1.0
C      1  0.4297220000000  0.4513300000000  0.4257920000000 1.0
C      1  0.4353470000000  0.4181860000000  0.4776160000000 1.0
C      1  0.4245860000000  0.4235100000000  0.5372030000000 1.0
C      1  0.4136810000000  0.4631310000000  0.5688200000000 1.0
C      1  0.4115040000000  0.5154470000000  0.5752520000000 1.0
C      1  0.4208920000000  0.5657470000000  0.5500280000000 1.0
C      1  0.4269520000000  0.5852940000000  0.4991010000000 1.0
C      1  0.4283450000000  0.5645650000000  0.4418870000000 1.0
C      1  0.5379350000000  0.5605190000000  0.4096860000000 1.0
C      1  0.5329460000000  0.4917570000000  0.3942510000000 1.0
C      1  0.5398460000000  0.4179930000000  0.4182820000000 1.0
C      1  0.5433240000000  0.3932040000000  0.4937260000000 1.0
C      1  0.5356480000000  0.4169160000000  0.5641910000000 1.0
C      1  0.5418120000000  0.4758780000000  0.6095170000000 1.0
C      1  0.5650930000000  0.5479410000000  0.6043720000000 1.0
C      1  0.5445790000000  0.5982480000000  0.5464350000000 1.0
C      1  0.5409290000000  0.6012830000000  0.4750400000000 1.0
C      1  0.4006650000000  0.4772520000000  0.4571300000000 1.0
C      1  0.3997950000000  0.4592800000000  0.4811390000000 1.0
C      1  0.3981210000000  0.4582570000000  0.5113340000000 1.0
C      1  0.3971720000000  0.4780750000000  0.5339010000000 1.0
C      1  0.3961570000000  0.5076750000000  0.5391600000000 1.0
C      1  0.3956580000000  0.5338360000000  0.5241910000000 1.0
C      1  0.3966180000000  0.5442230000000  0.4959040000000 1.0
C      1  0.3986790000000  0.5325590000000  0.4682410000000 1.0
C      1  0.4004240000000  0.5069610000000  0.4526560000000 1.0
C      1  0.4707460000000  0.5137290000000  0.3989160000000 1.0
C      1  0.4726270000000  0.4584360000000  0.4060900000000 1.0
C      1  0.4770820000000  0.4016180000000  0.4528250000000 1.0
C      1  0.4660160000000  0.4099730000000  0.5486860000000 1.0
C      1  0.4787800000000  0.4443000000000  0.6024180000000 1.0
C      1  0.4798330000000  0.5084020000000  0.6056070000000 1.0
C      1  0.4726920000000  0.5611300000000  0.5760690000000 1.0
C      1  0.4803360000000  0.6211450000000  0.5013470000000 1.0
C      1  0.4783570000000  0.5857960000000  0.4512910000000 1.0
C      1  0.5028880000000  0.5752420000000  0.4809870000000 1.0
C      1  0.4986490000000  0.5403620000000  0.4343240000000 1.0
C      1  0.4979210000000  0.4871310000000  0.4176940000000 1.0
C      1  0.4981360000000  0.4382420000000  0.4446100000000 1.0
C      1  0.4995770000000  0.4194850000000  0.4977940000000 1.0
C      1  0.5074360000000  0.4263550000000  0.5375240000000 1.0
C      1  0.5044100000000  0.4702290000000  0.5751910000000 1.0
C      1  0.5159830000000  0.5275390000000  0.5810800000000 1.0
C      1  0.5107740000000  0.5655980000000  0.5430250000000 1.0
C      1  0.5053780000000  0.5200480000000  0.4680880000000 1.0
C      1  0.5018910000000  0.4943810000000  0.4581840000000 1.0
C      1  0.5074180000000  0.4704310000000  0.4707270000000 1.0
C      1  0.4994640000000  0.4614780000000  0.4979160000000 1.0
C      1  0.4980270000000  0.4709080000000  0.5254820000000 1.0
C      1  0.4976860000000  0.4940300000000  0.5439490000000 1.0
C      1  0.4988110000000  0.5238170000000  0.5428010000000 1.0
C      1  0.4988790000000  0.5381330000000  0.5165350000000 1.0
C      1  0.4931680000000  0.5267600000000  0.4921250000000 1.0
C      1  0.4767740000000  0.4190420000000  0.5797430000000 1.0
C      1  0.4775140000000  0.4751450000000  0.6070710000000 1.0
C      1  0.4749460000000  0.5422060000000  0.6042770000000 1.0
C      1  0.4856310000000  0.6060590000000  0.5238750000000 1.0
C      1  0.4763520000000  0.6152850000000  0.4680800000000 1.0
C      1  0.4722130000000  0.5451030000000  0.4049440000000 1.0
C      1  0.4707050000000  0.4811380000000  0.3890360000000 1.0
C      1  0.4752800000000  0.4111830000000  0.4263980000000 1.0
C      1  0.4785570000000  0.3905880000000  0.4806880000000 1.0
C      1  0.4796700000000  0.5607500000000  0.5469670000000 1.0
C      1  0.4733580000000  0.5783670000000  0.4970140000000 1.0
C      1  0.4860680000000  0.5565480000000  0.4569460000000 1.0
C      1  0.4834290000000  0.5145700000000  0.4290160000000 1.0
C      1  0.4831020000000  0.4627480000000  0.4340680000000 1.0
C      1  0.4842420000000  0.4293520000000  0.4727140000000 1.0
C      1  0.4764420000000  0.4239250000000  0.5226740000000 1.0
C      1  0.4731050000000  0.4696210000000  0.5677960000000 1.0
C      1  0.4628180000000  0.5157370000000  0.5771010000000 1.0
C      1  0.5846030000000  0.4225150000000  0.5125430000000 1.0
C      1  0.5782120000000  0.4507850000000  0.5574000000000 1.0
C      1  0.5811880000000  0.4990350000000  0.5800960000000 1.0
C      1  0.5838410000000  0.5513570000000  0.5579630000000 1.0
C      1  0.5842330000000  0.5775800000000  0.5180950000000 1.0
C      1  0.5864780000000  0.5710550000000  0.4613640000000 1.0
C      1  0.5849160000000  0.5314280000000  0.4241160000000 1.0
C      1  0.5805220000000  0.4760830000000  0.4247470000000 1.0
C      1  0.5822090000000  0.4330510000000  0.4561790000000 1.0
C      1  0.5259920000000  0.4404900000000  0.6166210000000 1.0
C      1  0.5285400000000  0.5304820000000  0.6274310000000 1.0
C      1  0.5155270000000  0.5919520000000  0.5727010000000 1.0
C      1  0.5201000000000  0.6247730000000  0.4993860000000 1.0
C      1  0.5123570000000  0.5902700000000  0.4146590000000 1.0
C      1  0.5117680000000  0.5188710000000  0.3745010000000 1.0
C      1  0.5178790000000  0.4364340000000  0.3909650000000 1.0
C      1  0.5258710000000  0.3764350000000  0.4624150000000 1.0
C      1  0.5199110000000  0.3823980000000  0.5529780000000 1.0
C      1  0.5638870000000  0.5388530000000  0.4086200000000 1.0
C      1  0.5533010000000  0.4700360000000  0.4094680000000 1.0
C      1  0.5577580000000  0.4151980000000  0.4466650000000 1.0
C      1  0.5602310000000  0.4047480000000  0.5189440000000 1.0
C      1  0.5523000000000  0.4430420000000  0.5725300000000 1.0
C      1  0.5539320000000  0.5011570000000  0.5967360000000 1.0
C      1  0.5593190000000  0.5579540000000  0.5758140000000 1.0
C      1  0.5636300000000  0.5934670000000  0.5244110000000 1.0
C      1  0.5623410000000  0.5836850000000  0.4552910000000 1.0
C      1  0.4286620000000  0.5796530000000  0.4654720000000 1.0
C      1  0.4228970000000  0.5354440000000  0.4248950000000 1.0
C      1  0.4248340000000  0.4779560000000  0.4187900000000 1.0
C      1  0.4343340000000  0.4297350000000  0.4521010000000 1.0
C      1  0.4299640000000  0.4164450000000  0.5106540000000 1.0
C      1  0.4302180000000  0.4415140000000  0.5590760000000 1.0
C      1  0.4221960000000  0.4883690000000  0.5796860000000 1.0
C      1  0.4212600000000  0.5435190000000  0.5693850000000 1.0
C      1  0.4337270000000  0.5802200000000  0.5273930000000 1.0
C      1  0.4538020000000  0.4294260000000  0.4258190000000 1.0
C      1  0.4593990000000  0.4058840000000  0.4986310000000 1.0
C      1  0.4570910000000  0.4425970000000  0.5692020000000 1.0
C      1  0.4521860000000  0.4871990000000  0.5876710000000 1.0
C      1  0.4470220000000  0.5428480000000  0.5847410000000 1.0
C      1  0.4651440000000  0.5818510000000  0.5287450000000 1.0
C      1  0.4532220000000  0.5963140000000  0.4804630000000 1.0
C      1  0.4504620000000  0.5527070000000  0.4208200000000 1.0
C      1  0.4427160000000  0.4961810000000  0.3961100000000 1.0
C      1  0.5096950000000  0.3880450000000  0.4895690000000 1.0
C      1  0.5025150000000  0.4087230000000  0.5658940000000 1.0
C      1  0.5096240000000  0.4690270000000  0.6080960000000 1.0
C      1  0.5055410000000  0.5343550000000  0.6091540000000 1.0
C      1  0.5110600000000  0.5996990000000  0.5397350000000 1.0
C      1  0.5074550000000  0.6088310000000  0.4748480000000 1.0
C      1  0.5032690000000  0.5588620000000  0.4069000000000 1.0
C      1  0.5004770000000  0.4917500000000  0.3838540000000 1.0
C      1  0.5054130000000  0.4196520000000  0.4168240000000 1.0
C      1  0.5194050000000  0.5732490000000  0.5109850000000 1.0
C      1  0.5302510000000  0.5726250000000  0.4605390000000 1.0
C      1  0.5279520000000  0.5332300000000  0.4250860000000 1.0
C      1  0.5280380000000  0.4850930000000  0.4261280000000 1.0
C      1  0.5299650000000  0.4337680000000  0.4449530000000 1.0
C      1  0.5272920000000  0.4132720000000  0.5160040000000 1.0
C      1  0.5198700000000  0.4469220000000  0.5617290000000 1.0
C      1  0.5235670000000  0.4978610000000  0.5815620000000 1.0
C      1  0.5279200000000  0.5500110000000  0.5654580000000 1.0
C      1  0.5635700000000  0.4983800000000  0.4532300000000 1.0
C      1  0.5607840000000  0.4713200000000  0.4658760000000 1.0
C      1  0.5586130000000  0.4583780000000  0.4950270000000 1.0
C      1  0.5597830000000  0.4665040000000  0.5257740000000 1.0
C      1  0.5614630000000  0.4896750000000  0.5469950000000 1.0
C      1  0.5626650000000  0.5216130000000  0.5420080000000 1.0
C      1  0.5636110000000  0.5433180000000  0.5176640000000 1.0
C      1  0.5644780000000  0.5478520000000  0.4852470000000 1.0
C      1  0.5651970000000  0.5300180000000  0.4587630000000 1.0
C      1  0.4612160000000  0.5394400000000  0.5298770000000 1.0
C      1  0.4613720000000  0.5498570000000  0.4987600000000 1.0
C      1  0.4633770000000  0.5382720000000  0.4684740000000 1.0
C      1  0.4650450000000  0.5086520000000  0.4524350000000 1.0
C      1  0.4653780000000  0.4751500000000  0.4561290000000 1.0
C      1  0.4643340000000  0.4527790000000  0.4815250000000 1.0
C      1  0.4633860000000  0.4536860000000  0.5156420000000 1.0
C      1  0.4616380000000  0.4781340000000  0.5392500000000 1.0
C      1  0.4602160000000  0.5112120000000  0.5466930000000 1.0
C      1  0.5327590000000  0.5347640000000  0.4647060000000 1.0
C      1  0.5360030000000  0.5084380000000  0.4427500000000 1.0
C      1  0.5341750000000  0.4561330000000  0.4635450000000 1.0
C      1  0.5285710000000  0.4456690000000  0.4936930000000 1.0
C      1  0.5290090000000  0.4570610000000  0.5242520000000 1.0
C      1  0.5296760000000  0.4821880000000  0.5465960000000 1.0
C      1  0.5311730000000  0.5151510000000  0.5465760000000 1.0
C      1  0.5310840000000  0.5373450000000  0.5236650000000 1.0
C      1  0.5328930000000  0.5497860000000  0.4931780000000 1.0
C      1  0.5963280000000  0.5478090000000  0.5091000000000 1.0
C      1  0.5975360000000  0.5454780000000  0.4756300000000 1.0
C      1  0.5972100000000  0.5195550000000  0.4534010000000 1.0
C      1  0.5950820000000  0.4854980000000  0.4517120000000 1.0
C      1  0.5910830000000  0.4581010000000  0.4719390000000 1.0
C      1  0.5902890000000  0.4512500000000  0.5053850000000 1.0
C      1  0.5925110000000  0.4680080000000  0.5350750000000 1.0
C      1  0.5939000000000  0.4984820000000  0.5505430000000 1.0
C      1  0.5951690000000  0.5302060000000  0.5381690000000 1.0
C      1  0.5383030000000  0.5978920000000  0.5070860000000 1.0
C      1  0.5389800000000  0.5848800000000  0.4304690000000 1.0
C      1  0.5378380000000  0.5241480000000  0.3937320000000 1.0
C      1  0.5471940000000  0.4426430000000  0.3975490000000 1.0
C      1  0.5530190000000  0.3901840000000  0.4626270000000 1.0
C      1  0.5476790000000  0.3940280000000  0.5456720000000 1.0
C      1  0.5524470000000  0.4476200000000  0.6024230000000 1.0
C      1  0.5527560000000  0.5260040000000  0.6147870000000 1.0
C      1  0.5447800000000  0.5852960000000  0.5737790000000 1.0
C      1  0.4336010000000  0.4987760000000  0.4511440000000 1.0
C      1  0.4333540000000  0.4683520000000  0.4617190000000 1.0
C      1  0.4321550000000  0.4553660000000  0.4909860000000 1.0
C      1  0.4306220000000  0.4599490000000  0.5222540000000 1.0
C      1  0.4296680000000  0.4863140000000  0.5405010000000 1.0
C      1  0.4288430000000  0.5180620000000  0.5394880000000 1.0
C      1  0.4286120000000  0.5415760000000  0.5194100000000 1.0
C      1  0.4298520000000  0.5470840000000  0.4882250000000 1.0
C      1  0.4321960000000  0.5287950000000  0.4624750000000 1.0
END
