TITL C-2782226-7400-724 0.00338342377909002 125000 -618.943060589355 0 0 107 (C1) n - 1
REM
REM in /home/nfs/bkarasulu/CARBON/AIRSS/Generating-Clusters/REBO/Higher-Symm/SD-CG/HFTN-CG
REM
REM
REM
REM
REM
REM ./C.cell (12c818d87b63d06a65506943cc24bca4)
REM
REM compiler GCC version 9.2.1 20190827 (Red Hat 9.2.1-1)
REM options -cpp -mtune=generic -march=x86-64 -g -O0 -fpre-include=/usr/include/finclude/math-vector-fortran.h
REM seed 754539568 -990705913 -1690381674 342035953 1719528568 1037008687 923052471 33034238 620877196 -1626688924 -673980496 -1044047425 1566699681 -971911893 1525948652 1349081133 969293944 -524805381 1255061422 2005627843 -1752294671 990334337 1068967916 -1311445607 -917631452 -801253643 -1680233044 988123215 -353859402 192143165 886386603 -1142893863 413067326
REM
CELL 1.54180   50.00000   50.00000   50.00000   90.00000   90.00000   90.00000
LATT -1
SFAC C  
C      1  0.4545530000000  0.4704090000000  0.4608000000000 1.0
C      1  0.5588260000000  0.4567080000000  0.5276440000000 1.0
C      1  0.4659660000000  0.5437140000000  0.4613100000000 1.0
C      1  0.5434350000000  0.5662500000000  0.5431870000000 1.0
C      1  0.5856170000000  0.4402870000000  0.5034410000000 1.0
C      1  0.4237820000000  0.4437420000000  0.4786910000000 1.0
C      1  0.5739890000000  0.5705030000000  0.5181560000000 1.0
C      1  0.4298830000000  0.5692770000000  0.4789680000000 1.0
C      1  0.4120600000000  0.4591790000000  0.4632270000000 1.0
C      1  0.5922970000000  0.4622150000000  0.5248260000000 1.0
C      1  0.4356780000000  0.5513500000000  0.4584700000000 1.0
C      1  0.5742090000000  0.5560370000000  0.5444240000000 1.0
C      1  0.4910170000000  0.5959750000000  0.5083530000000 1.0
C      1  0.4987870000000  0.5765820000000  0.4853300000000 1.0
C      1  0.4907350000000  0.4101610000000  0.5116380000000 1.0
C      1  0.5007080000000  0.4155110000000  0.4793710000000 1.0
C      1  0.4237000000000  0.4539030000000  0.5694900000000 1.0
C      1  0.5751730000000  0.4499490000000  0.4504540000000 1.0
C      1  0.4319130000000  0.5449690000000  0.5613030000000 1.0
C      1  0.5719760000000  0.5412470000000  0.4345390000000 1.0
C      1  0.5978950000000  0.4896970000000  0.5086710000000 1.0
C      1  0.4141970000000  0.4878280000000  0.4909680000000 1.0
C      1  0.5852710000000  0.5197070000000  0.5112370000000 1.0
C      1  0.4088970000000  0.5180420000000  0.4838350000000 1.0
C      1  0.5107380000000  0.5143950000000  0.5757460000000 1.0
C      1  0.4990790000000  0.5069550000000  0.4200250000000 1.0
C      1  0.5069540000000  0.4819820000000  0.5811930000000 1.0
C      1  0.4832950000000  0.4806170000000  0.4273140000000 1.0
C      1  0.4952910000000  0.4653930000000  0.4498600000000 1.0
C      1  0.5036720000000  0.4562300000000  0.5614020000000 1.0
C      1  0.5135230000000  0.5260180000000  0.4409260000000 1.0
C      1  0.4990050000000  0.5294410000000  0.5495100000000 1.0
C      1  0.5610030000000  0.5129730000000  0.5650910000000 1.0
C      1  0.4461420000000  0.5233130000000  0.4325120000000 1.0
C      1  0.5563130000000  0.4828860000000  0.5575890000000 1.0
C      1  0.4371670000000  0.4950730000000  0.4335340000000 1.0
C      1  0.4427210000000  0.4763730000000  0.5813380000000 1.0
C      1  0.5669300000000  0.4704590000000  0.4284070000000 1.0
C      1  0.4494790000000  0.5176790000000  0.5607740000000 1.0
C      1  0.5513690000000  0.5196260000000  0.4249110000000 1.0
C      1  0.5834290000000  0.4920130000000  0.5396350000000 1.0
C      1  0.4165860000000  0.4900670000000  0.4569030000000 1.0
C      1  0.5791760000000  0.5261600000000  0.5426370000000 1.0
C      1  0.4195450000000  0.5242570000000  0.4542100000000 1.0
C      1  0.4625660000000  0.4248250000000  0.5158950000000 1.0
C      1  0.5317090000000  0.4282310000000  0.4880410000000 1.0
C      1  0.4697610000000  0.5701220000000  0.5133530000000 1.0
C      1  0.5268500000000  0.5706810000000  0.4839950000000 1.0
C      1  0.4596040000000  0.4367890000000  0.5427880000000 1.0
C      1  0.5241240000000  0.4388830000000  0.4575540000000 1.0
C      1  0.4708910000000  0.5701000000000  0.5451580000000 1.0
C      1  0.5336950000000  0.5543360000000  0.4602820000000 1.0
C      1  0.4165340000000  0.5178900000000  0.5168120000000 1.0
C      1  0.5640880000000  0.5229640000000  0.4856960000000 1.0
C      1  0.4231490000000  0.4856610000000  0.5234450000000 1.0
C      1  0.5762030000000  0.4911420000000  0.4851840000000 1.0
C      1  0.4745690000000  0.5108210000000  0.5405490000000 1.0
C      1  0.5305370000000  0.5202050000000  0.4644690000000 1.0
C      1  0.4767440000000  0.4616620000000  0.5463780000000 1.0
C      1  0.5253640000000  0.4706820000000  0.4530150000000 1.0
C      1  0.5599410000000  0.5627730000000  0.4463140000000 1.0
C      1  0.4456160000000  0.5677520000000  0.5578580000000 1.0
C      1  0.5563250000000  0.4313280000000  0.4567540000000 1.0
C      1  0.4372310000000  0.4325300000000  0.5576040000000 1.0
C      1  0.4712090000000  0.5261240000000  0.4221110000000 1.0
C      1  0.5399470000000  0.5234050000000  0.5799080000000 1.0
C      1  0.4566010000000  0.4782330000000  0.4216790000000 1.0
C      1  0.5373610000000  0.4699010000000  0.5778380000000 1.0
C      1  0.5016320000000  0.4582160000000  0.5117600000000 1.0
C      1  0.4893330000000  0.4672390000000  0.4811160000000 1.0
C      1  0.5086240000000  0.5460970000000  0.5238670000000 1.0
C      1  0.5052430000000  0.5265570000000  0.4976100000000 1.0
C      1  0.4943330000000  0.5597270000000  0.5585080000000 1.0
C      1  0.5081170000000  0.5546160000000  0.4386870000000 1.0
C      1  0.5228840000000  0.4380710000000  0.5584530000000 1.0
C      1  0.4914530000000  0.4316000000000  0.4511680000000 1.0
C      1  0.4822910000000  0.5493310000000  0.4889330000000 1.0
C      1  0.5080590000000  0.5737860000000  0.5238650000000 1.0
C      1  0.4768030000000  0.4383320000000  0.4876380000000 1.0
C      1  0.5122160000000  0.4325670000000  0.5131890000000 1.0
C      1  0.4525040000000  0.4911730000000  0.4800350000000 1.0
C      1  0.5444100000000  0.4869930000000  0.5261690000000 1.0
C      1  0.4538690000000  0.5192310000000  0.4812940000000 1.0
C      1  0.5328070000000  0.5131770000000  0.5232690000000 1.0
C      1  0.4732910000000  0.4762390000000  0.5769330000000 1.0
C      1  0.5396400000000  0.4764540000000  0.4272370000000 1.0
C      1  0.4773520000000  0.5076420000000  0.5746860000000 1.0
C      1  0.5324200000000  0.5011070000000  0.4164430000000 1.0
C      1  0.5216310000000  0.5701010000000  0.5611390000000 1.0
C      1  0.4818270000000  0.5600800000000  0.4403300000000 1.0
C      1  0.5478060000000  0.4375970000000  0.5484500000000 1.0
C      1  0.4609150000000  0.4453770000000  0.4516450000000 1.0
C      1  0.5819480000000  0.4831080000000  0.4551430000000 1.0
C      1  0.4217080000000  0.4842460000000  0.5557130000000 1.0
C      1  0.5701490000000  0.5141850000000  0.4533520000000 1.0
C      1  0.4188110000000  0.5165110000000  0.5482750000000 1.0
C      1  0.5498180000000  0.4778170000000  0.4951290000000 1.0
C      1  0.4495030000000  0.4770270000000  0.5078580000000 1.0
C      1  0.5386330000000  0.5331940000000  0.5009060000000 1.0
C      1  0.4408660000000  0.5318690000000  0.5033390000000 1.0
C      1  0.4470610000000  0.4472850000000  0.4976840000000 1.0
C      1  0.5556030000000  0.4446800000000  0.4958990000000 1.0
C      1  0.4420020000000  0.5603550000000  0.5032780000000 1.0
C      1  0.5434710000000  0.5633550000000  0.5091000000000 1.0
C      1  0.5267230000000  0.4906770000000  0.4776760000000 1.0
C      1  0.4773320000000  0.4857160000000  0.5222820000000 1.0
C      1  0.4989780000000  0.4950470000000  0.4974260000000 1.0
END
