TITL C-2782233-7966-1391 -0.00257182869419736 125000 -279.975330585336 0 0 49 (C1) n - 1
REM
REM in /home/nfs/bkarasulu/CARBON/AIRSS/Generating-Clusters/REBO/Higher-Symm/SD-CG/HFTN-CG
REM
REM
REM
REM
REM
REM ./C.cell (12c818d87b63d06a65506943cc24bca4)
REM
REM compiler GCC version 9.2.1 20190827 (Red Hat 9.2.1-1)
REM options -cpp -mtune=generic -march=x86-64 -g -O0 -fpre-include=/usr/include/finclude/math-vector-fortran.h
REM seed -1867478913 -969482527 1763215384 104171938 -187972580 1190999379 1246860964 -1189075664 967541832 -6441313 147818201 1062083354 -342734942 1536511873 2071580585 -715670766 -1076776173 829585810 -964464684 826067546 -239905082 -402457435 3632821 -1352784383 -1873038622 106060198 -951965587 -1289813545 891456178 -460900893 530244555 -51912586 2121617311
REM
CELL 1.54180   50.00000   50.00000   50.00000   90.00000   90.00000   90.00000
LATT -1
SFAC C  
C      1  0.4589100000000  0.5124030000000  0.5572490000000 1.0
C      1  0.4575740000000  0.4619620000000  0.5461930000000 1.0
C      1  0.4568280000000  0.4467590000000  0.4892490000000 1.0
C      1  0.4579060000000  0.4578390000000  0.4600100000000 1.0
C      1  0.4578180000000  0.5109070000000  0.4428410000000 1.0
C      1  0.4584350000000  0.5507710000000  0.4749520000000 1.0
C      1  0.4587070000000  0.5506240000000  0.5248170000000 1.0
C      1  0.4451600000000  0.5279100000000  0.4856110000000 1.0
C      1  0.4455640000000  0.5275560000000  0.5142540000000 1.0
C      1  0.4448810000000  0.5061790000000  0.5332800000000 1.0
C      1  0.4424350000000  0.4781620000000  0.5285950000000 1.0
C      1  0.4381920000000  0.4679540000000  0.5028100000000 1.0
C      1  0.4398140000000  0.4794020000000  0.4740890000000 1.0
C      1  0.4435140000000  0.5064550000000  0.4668810000000 1.0
C      1  0.5238470000000  0.5088620000000  0.5372680000000 1.0
C      1  0.5228520000000  0.4767330000000  0.5298350000000 1.0
C      1  0.5217860000000  0.4623480000000  0.5000210000000 1.0
C      1  0.5220710000000  0.4766660000000  0.4697920000000 1.0
C      1  0.5230190000000  0.5089200000000  0.4627060000000 1.0
C      1  0.5237860000000  0.5346680000000  0.4834190000000 1.0
C      1  0.5241030000000  0.5346450000000  0.5165360000000 1.0
C      1  0.5566300000000  0.5257430000000  0.5222150000000 1.0
C      1  0.5561710000000  0.4981690000000  0.5339390000000 1.0
C      1  0.5550810000000  0.4717450000000  0.5198080000000 1.0
C      1  0.5544120000000  0.4660460000000  0.4904760000000 1.0
C      1  0.5550010000000  0.4857790000000  0.4680090000000 1.0
C      1  0.5558510000000  0.5156980000000  0.4693080000000 1.0
C      1  0.5564630000000  0.5335510000000  0.4933250000000 1.0
C      1  0.5287600000000  0.5213860000000  0.5852430000000 1.0
C      1  0.5279370000000  0.4475750000000  0.5699080000000 1.0
C      1  0.5233690000000  0.4127260000000  0.5044940000000 1.0
C      1  0.5268530000000  0.4479050000000  0.4293670000000 1.0
C      1  0.5273020000000  0.5219880000000  0.4148070000000 1.0
C      1  0.5273830000000  0.5797080000000  0.4623620000000 1.0
C      1  0.5275780000000  0.5797480000000  0.5374820000000 1.0
C      1  0.4835630000000  0.5601710000000  0.5289380000000 1.0
C      1  0.4841540000000  0.5152640000000  0.5662010000000 1.0
C      1  0.4832700000000  0.4572230000000  0.5527390000000 1.0
C      1  0.4802330000000  0.4351560000000  0.4991820000000 1.0
C      1  0.4821920000000  0.4577600000000  0.4465020000000 1.0
C      1  0.4830250000000  0.5138870000000  0.4338620000000 1.0
C      1  0.4833170000000  0.5602330000000  0.4708340000000 1.0
C      1  0.5113970000000  0.5593370000000  0.5281920000000 1.0
C      1  0.5119220000000  0.5154740000000  0.5641120000000 1.0
C      1  0.5109770000000  0.4597880000000  0.5517740000000 1.0
C      1  0.5080610000000  0.4355450000000  0.5013060000000 1.0
C      1  0.5100010000000  0.4600920000000  0.4476280000000 1.0
C      1  0.5107580000000  0.5152290000000  0.4359180000000 1.0
C      1  0.5111430000000  0.5593480000000  0.4716630000000 1.0
END
