TITL C-2782240-8521-806 0.00130505568877714 125000 -582.8906179343 0 0 100 (C1) n - 1
REM
REM in /home/nfs/bkarasulu/CARBON/AIRSS/Generating-Clusters/REBO/Higher-Symm/SD-CG/HFTN-CG
REM
REM
REM
REM
REM
REM ./C.cell (12c818d87b63d06a65506943cc24bca4)
REM
REM compiler GCC version 9.2.1 20190827 (Red Hat 9.2.1-1)
REM options -cpp -mtune=generic -march=x86-64 -g -O0 -fpre-include=/usr/include/finclude/math-vector-fortran.h
REM seed 280100484 526110607 2129093430 1752610478 260088474 1676844317 -1118493540 -1339871193 843380411 -1939620575 -807803053 -1692182886 -1819274087 -1222911676 -1757029307 400020717 -544843243 -195546565 1623312472 1199064633 -585030781 2106874525 -1325741648 -852481331 -296283946 -703780919 -1961386508 651187894 1007031768 908703332 1658205818 1960101308 799540024
REM
CELL 1.54180   50.00000   50.00000   50.00000   90.00000   90.00000   90.00000
LATT -1
SFAC C  
C      1  0.5385370000000  0.4677190000000  0.4236510000000 1.0
C      1  0.5357930000000  0.5823150000000  0.5120820000000 1.0
C      1  0.5425330000000  0.4486740000000  0.5657430000000 1.0
C      1  0.4229640000000  0.4560340000000  0.5147660000000 1.0
C      1  0.4247320000000  0.5147540000000  0.4489410000000 1.0
C      1  0.4289750000000  0.5339750000000  0.5312020000000 1.0
C      1  0.4981710000000  0.4488470000000  0.5295260000000 1.0
C      1  0.4934560000000  0.5071160000000  0.4571880000000 1.0
C      1  0.4975860000000  0.5358170000000  0.5276870000000 1.0
C      1  0.5012690000000  0.5258370000000  0.5783350000000 1.0
C      1  0.4992320000000  0.4196930000000  0.4857240000000 1.0
C      1  0.4994130000000  0.5525010000000  0.4367880000000 1.0
C      1  0.4803490000000  0.4789370000000  0.5588420000000 1.0
C      1  0.4770830000000  0.4599970000000  0.4615460000000 1.0
C      1  0.4733570000000  0.5630330000000  0.4798980000000 1.0
C      1  0.4534530000000  0.5852060000000  0.4716410000000 1.0
C      1  0.4557660000000  0.4762570000000  0.5773500000000 1.0
C      1  0.4548020000000  0.4508890000000  0.4432500000000 1.0
C      1  0.5490040000000  0.5230180000000  0.4521370000000 1.0
C      1  0.5494820000000  0.5304620000000  0.5451110000000 1.0
C      1  0.5511700000000  0.4459160000000  0.5038330000000 1.0
C      1  0.4713710000000  0.4858690000000  0.5328830000000 1.0
C      1  0.4689120000000  0.4834610000000  0.4793860000000 1.0
C      1  0.4606440000000  0.5419990000000  0.4941680000000 1.0
C      1  0.5181320000000  0.4706600000000  0.5402550000000 1.0
C      1  0.5117440000000  0.4813500000000  0.4633880000000 1.0
C      1  0.5144740000000  0.5494260000000  0.5041540000000 1.0
C      1  0.5376620000000  0.4997560000000  0.4739400000000 1.0
C      1  0.5340860000000  0.5255730000000  0.5151840000000 1.0
C      1  0.5383400000000  0.4748980000000  0.5146170000000 1.0
C      1  0.5333730000000  0.5389470000000  0.4778570000000 1.0
C      1  0.5346590000000  0.4998260000000  0.5452120000000 1.0
C      1  0.5334210000000  0.4602860000000  0.4783520000000 1.0
C      1  0.5046490000000  0.5458620000000  0.5575290000000 1.0
C      1  0.5087720000000  0.4188900000000  0.5168070000000 1.0
C      1  0.5022870000000  0.5210610000000  0.4305450000000 1.0
C      1  0.5204730000000  0.5037440000000  0.5822010000000 1.0
C      1  0.5162720000000  0.4275340000000  0.4637840000000 1.0
C      1  0.5162860000000  0.5670270000000  0.4552300000000 1.0
C      1  0.4678930000000  0.5374220000000  0.5231560000000 1.0
C      1  0.4643560000000  0.4656590000000  0.5148720000000 1.0
C      1  0.4620980000000  0.5076950000000  0.4609900000000 1.0
C      1  0.5532740000000  0.5566110000000  0.4990550000000 1.0
C      1  0.5567530000000  0.4743100000000  0.5496890000000 1.0
C      1  0.5531840000000  0.4692730000000  0.4537850000000 1.0
C      1  0.4502390000000  0.5855400000000  0.5033070000000 1.0
C      1  0.4527300000000  0.4501960000000  0.5606810000000 1.0
C      1  0.4526780000000  0.4716900000000  0.4229680000000 1.0
C      1  0.5492550000000  0.5056080000000  0.5819640000000 1.0
C      1  0.5454810000000  0.4256640000000  0.4625360000000 1.0
C      1  0.5454610000000  0.5689410000000  0.4545400000000 1.0
C      1  0.5198590000000  0.4963820000000  0.4192620000000 1.0
C      1  0.5167990000000  0.5700490000000  0.5382040000000 1.0
C      1  0.5274320000000  0.4263530000000  0.5442990000000 1.0
C      1  0.5697170000000  0.5106100000000  0.5608190000000 1.0
C      1  0.5676080000000  0.4399840000000  0.4767310000000 1.0
C      1  0.5673220000000  0.5488910000000  0.4597800000000 1.0
C      1  0.4416980000000  0.5259880000000  0.4768180000000 1.0
C      1  0.4542750000000  0.5104900000000  0.5313360000000 1.0
C      1  0.4416370000000  0.4756410000000  0.4940930000000 1.0
C      1  0.4557590000000  0.5602420000000  0.5441890000000 1.0
C      1  0.4623170000000  0.4320270000000  0.5153480000000 1.0
C      1  0.4618640000000  0.5222130000000  0.4303990000000 1.0
C      1  0.4802040000000  0.4375010000000  0.5564620000000 1.0
C      1  0.4782800000000  0.4782950000000  0.4103240000000 1.0
C      1  0.4741430000000  0.5946140000000  0.5195820000000 1.0
C      1  0.5024880000000  0.5866440000000  0.5118800000000 1.0
C      1  0.5093380000000  0.4434190000000  0.5679080000000 1.0
C      1  0.5053250000000  0.4653500000000  0.4198400000000 1.0
C      1  0.4385540000000  0.4440660000000  0.5361070000000 1.0
C      1  0.4392390000000  0.4965880000000  0.4302970000000 1.0
C      1  0.4358640000000  0.5616300000000  0.5185560000000 1.0
C      1  0.4696300000000  0.5518560000000  0.4354640000000 1.0
C      1  0.4741780000000  0.5203790000000  0.5871140000000 1.0
C      1  0.4700100000000  0.4250870000000  0.4855030000000 1.0
C      1  0.5788790000000  0.4693330000000  0.4881050000000 1.0
C      1  0.5772600000000  0.5243390000000  0.4796490000000 1.0
C      1  0.5775210000000  0.5061970000000  0.5303980000000 1.0
C      1  0.4477280000000  0.4338270000000  0.4681120000000 1.0
C      1  0.4475550000000  0.5658480000000  0.4483060000000 1.0
C      1  0.4500460000000  0.5054860000000  0.5806840000000 1.0
C      1  0.4690510000000  0.5854370000000  0.5466730000000 1.0
C      1  0.4808680000000  0.4137970000000  0.5339250000000 1.0
C      1  0.4812180000000  0.5071550000000  0.4089470000000 1.0
C      1  0.5479140000000  0.5584860000000  0.5328450000000 1.0
C      1  0.5539000000000  0.4437730000000  0.5341070000000 1.0
C      1  0.5485830000000  0.4978710000000  0.4355670000000 1.0
C      1  0.5704320000000  0.4942390000000  0.4697990000000 1.0
C      1  0.5676200000000  0.5274780000000  0.5097070000000 1.0
C      1  0.5713810000000  0.4770190000000  0.5186750000000 1.0
C      1  0.5090690000000  0.4655240000000  0.5018850000000 1.0
C      1  0.5102260000000  0.5150860000000  0.4844590000000 1.0
C      1  0.5089670000000  0.5054430000000  0.5231630000000 1.0
C      1  0.4273720000000  0.4476380000000  0.4835750000000 1.0
C      1  0.4269720000000  0.5463940000000  0.4551520000000 1.0
C      1  0.4359300000000  0.5157830000000  0.5578590000000 1.0
C      1  0.5047790000000  0.4522540000000  0.4497020000000 1.0
C      1  0.5024970000000  0.5699180000000  0.4828250000000 1.0
C      1  0.5098320000000  0.4773830000000  0.5715980000000 1.0
C      1  0.4922170000000  0.4909010000000  0.4977360000000 1.0
END
