TITL C-2782235-7892-570 -0.000374441057158075 125000 -978.290684574195 0 0 169 (C1) n - 1
REM
REM in /home/nfs/bkarasulu/CARBON/AIRSS/Generating-Clusters/REBO/Higher-Symm/SD-CG/HFTN-CG
REM
REM
REM
REM
REM
REM ./C.cell (12c818d87b63d06a65506943cc24bca4)
REM
REM compiler GCC version 9.2.1 20190827 (Red Hat 9.2.1-1)
REM options -cpp -mtune=generic -march=x86-64 -g -O0 -fpre-include=/usr/include/finclude/math-vector-fortran.h
REM seed 2017306547 1466053271 -174900252 -1680185159 1225928384 1057935684 -1664741146 1181707663 1021326748 1238788396 -312948447 -512022473 -891475570 1637759022 -1943232447 -78622248 624394925 724167338 -1764426818 -566779828 851076616 -1438654936 1329062231 629565896 433595128 -2136090132 -1777413960 1157356709 -730347227 -748021074 -2010056065 1487714440 83773618
REM
CELL 1.54180   50.00000   50.00000   50.00000   90.00000   90.00000   90.00000
LATT -1
SFAC C  
C      1  0.5469360000000  0.5234410000000  0.4854480000000 1.0
C      1  0.5067640000000  0.5342940000000  0.5941610000000 1.0
C      1  0.5667860000000  0.4265130000000  0.5540220000000 1.0
C      1  0.5397180000000  0.5741580000000  0.5564230000000 1.0
C      1  0.5719050000000  0.5296650000000  0.4162830000000 1.0
C      1  0.5657810000000  0.4222210000000  0.4823390000000 1.0
C      1  0.4986460000000  0.4929060000000  0.5522380000000 1.0
C      1  0.5592880000000  0.5506840000000  0.4955100000000 1.0
C      1  0.5061380000000  0.5632580000000  0.5103240000000 1.0
C      1  0.4241050000000  0.4435810000000  0.4723120000000 1.0
C      1  0.4806650000000  0.4107000000000  0.5642620000000 1.0
C      1  0.6002430000000  0.4948720000000  0.5428040000000 1.0
C      1  0.4963190000000  0.5185750000000  0.4735740000000 1.0
C      1  0.4505180000000  0.4013670000000  0.5082630000000 1.0
C      1  0.4462370000000  0.4752790000000  0.4588200000000 1.0
C      1  0.4886960000000  0.5032120000000  0.3965600000000 1.0
C      1  0.5581340000000  0.5113530000000  0.5261650000000 1.0
C      1  0.6040360000000  0.4684470000000  0.5242270000000 1.0
C      1  0.4830970000000  0.5999910000000  0.4373510000000 1.0
C      1  0.5449080000000  0.5389500000000  0.5230540000000 1.0
C      1  0.5799260000000  0.4597780000000  0.5717710000000 1.0
C      1  0.5397760000000  0.4868260000000  0.4081830000000 1.0
C      1  0.4333740000000  0.4273200000000  0.4982470000000 1.0
C      1  0.5936040000000  0.4772920000000  0.4929060000000 1.0
C      1  0.4561550000000  0.4117420000000  0.4763740000000 1.0
C      1  0.4264560000000  0.4950220000000  0.5486480000000 1.0
C      1  0.5246810000000  0.5326060000000  0.4610190000000 1.0
C      1  0.5093390000000  0.4948340000000  0.4215020000000 1.0
C      1  0.4518740000000  0.4773480000000  0.5415750000000 1.0
C      1  0.4637780000000  0.5103270000000  0.4150270000000 1.0
C      1  0.5108930000000  0.4114590000000  0.5524260000000 1.0
C      1  0.5673350000000  0.4799880000000  0.4261100000000 1.0
C      1  0.4535310000000  0.5015140000000  0.4789970000000 1.0
C      1  0.4810610000000  0.4553430000000  0.6092860000000 1.0
C      1  0.4833320000000  0.4237660000000  0.5124910000000 1.0
C      1  0.4930350000000  0.5186520000000  0.5225740000000 1.0
C      1  0.4337360000000  0.5287540000000  0.5501710000000 1.0
C      1  0.4587240000000  0.4013610000000  0.5408340000000 1.0
C      1  0.5094600000000  0.5833280000000  0.5497820000000 1.0
C      1  0.4084540000000  0.4735290000000  0.4761740000000 1.0
C      1  0.5064180000000  0.4001800000000  0.5229850000000 1.0
C      1  0.4769490000000  0.5895140000000  0.5459060000000 1.0
C      1  0.4959140000000  0.4437210000000  0.5346200000000 1.0
C      1  0.4685270000000  0.4609350000000  0.4137980000000 1.0
C      1  0.4935360000000  0.5079110000000  0.5988600000000 1.0
C      1  0.4797190000000  0.5354810000000  0.4957500000000 1.0
C      1  0.5365750000000  0.5283880000000  0.5848820000000 1.0
C      1  0.4921770000000  0.5531950000000  0.5522290000000 1.0
C      1  0.4400170000000  0.5645630000000  0.4358510000000 1.0
C      1  0.5216580000000  0.4483830000000  0.5169310000000 1.0
C      1  0.5081550000000  0.6017480000000  0.5209080000000 1.0
C      1  0.5255590000000  0.5047100000000  0.5041900000000 1.0
C      1  0.5977200000000  0.5513190000000  0.4845890000000 1.0
C      1  0.4892070000000  0.5645820000000  0.4201050000000 1.0
C      1  0.5475690000000  0.5731580000000  0.4778050000000 1.0
C      1  0.5121130000000  0.4132650000000  0.4784810000000 1.0
C      1  0.5016150000000  0.4491210000000  0.5911380000000 1.0
C      1  0.4846230000000  0.5578870000000  0.5905010000000 1.0
C      1  0.4980950000000  0.5511330000000  0.4504930000000 1.0
C      1  0.5734950000000  0.5537600000000  0.5467670000000 1.0
C      1  0.4587890000000  0.5872830000000  0.4533910000000 1.0
C      1  0.5153570000000  0.5752490000000  0.4822440000000 1.0
C      1  0.5721060000000  0.5483190000000  0.4403580000000 1.0
C      1  0.5374370000000  0.4973560000000  0.5900520000000 1.0
C      1  0.5171460000000  0.4625540000000  0.3994590000000 1.0
C      1  0.4908640000000  0.4717390000000  0.5067690000000 1.0
C      1  0.5572510000000  0.4810140000000  0.5190790000000 1.0
C      1  0.4316500000000  0.5120080000000  0.4212160000000 1.0
C      1  0.4634530000000  0.5742770000000  0.5703010000000 1.0
C      1  0.5443210000000  0.5211030000000  0.4065810000000 1.0
C      1  0.4270750000000  0.4703110000000  0.5804770000000 1.0
C      1  0.5889800000000  0.5350500000000  0.4619550000000 1.0
C      1  0.5265290000000  0.4663550000000  0.4477030000000 1.0
C      1  0.4491610000000  0.5496060000000  0.4902440000000 1.0
C      1  0.5210630000000  0.5139530000000  0.5430480000000 1.0
C      1  0.4772210000000  0.5306400000000  0.4364750000000 1.0
C      1  0.4148600000000  0.5537510000000  0.4563550000000 1.0
C      1  0.4339220000000  0.5752090000000  0.4734070000000 1.0
C      1  0.5296850000000  0.4380460000000  0.5546720000000 1.0
C      1  0.5291220000000  0.5149100000000  0.4344290000000 1.0
C      1  0.4464750000000  0.5106800000000  0.5153970000000 1.0
C      1  0.4107140000000  0.4723150000000  0.5312750000000 1.0
C      1  0.4685780000000  0.5893070000000  0.4860960000000 1.0
C      1  0.5578480000000  0.5404760000000  0.5676630000000 1.0
C      1  0.5064640000000  0.4176490000000  0.4330030000000 1.0
C      1  0.4886960000000  0.4425630000000  0.5640490000000 1.0
C      1  0.5787160000000  0.4744580000000  0.4579080000000 1.0
C      1  0.5478520000000  0.4993310000000  0.4544750000000 1.0
C      1  0.5913090000000  0.5550370000000  0.5178090000000 1.0
C      1  0.5697650000000  0.4479480000000  0.4386570000000 1.0
C      1  0.5160300000000  0.4816260000000  0.5201240000000 1.0
C      1  0.5301080000000  0.4639050000000  0.5901380000000 1.0
C      1  0.5468240000000  0.4296600000000  0.5265680000000 1.0
C      1  0.4932060000000  0.4488900000000  0.4612220000000 1.0
C      1  0.4115660000000  0.4956390000000  0.4292460000000 1.0
C      1  0.4462970000000  0.5339330000000  0.4418970000000 1.0
C      1  0.5512940000000  0.4103410000000  0.5040400000000 1.0
C      1  0.5301190000000  0.4716340000000  0.5482420000000 1.0
C      1  0.4388270000000  0.4750520000000  0.4918240000000 1.0
C      1  0.5167710000000  0.5359190000000  0.5102480000000 1.0
C      1  0.5497770000000  0.4990790000000  0.5539690000000 1.0
C      1  0.5311210000000  0.3916900000000  0.5061450000000 1.0
C      1  0.5624310000000  0.5816630000000  0.5328060000000 1.0
C      1  0.5112360000000  0.5938400000000  0.4398680000000 1.0
C      1  0.4089450000000  0.5241260000000  0.4658590000000 1.0
C      1  0.4403620000000  0.5270480000000  0.4715790000000 1.0
C      1  0.4598750000000  0.4839300000000  0.4320230000000 1.0
C      1  0.4790990000000  0.4973240000000  0.4582030000000 1.0
C      1  0.5516210000000  0.5666220000000  0.4476050000000 1.0
C      1  0.5274320000000  0.4115850000000  0.4538320000000 1.0
C      1  0.4786900000000  0.5631060000000  0.5245390000000 1.0
C      1  0.4777890000000  0.3847640000000  0.5183800000000 1.0
C      1  0.5517680000000  0.4446300000000  0.5789330000000 1.0
C      1  0.5240750000000  0.5473340000000  0.4118260000000 1.0
C      1  0.4405530000000  0.5612690000000  0.5576500000000 1.0
C      1  0.4025440000000  0.4840070000000  0.5055410000000 1.0
C      1  0.5133710000000  0.4432370000000  0.4870030000000 1.0
C      1  0.4629850000000  0.5737970000000  0.4154780000000 1.0
C      1  0.5782530000000  0.5089530000000  0.4418480000000 1.0
C      1  0.4897910000000  0.4708970000000  0.3964330000000 1.0
C      1  0.5401380000000  0.4504110000000  0.4296850000000 1.0
C      1  0.5778410000000  0.4472700000000  0.4891700000000 1.0
C      1  0.5578630000000  0.5951110000000  0.5017840000000 1.0
C      1  0.4503880000000  0.5187970000000  0.5851450000000 1.0
C      1  0.5325340000000  0.4655970000000  0.4778060000000 1.0
C      1  0.4020050000000  0.5252840000000  0.5406570000000 1.0
C      1  0.5988850000000  0.5036160000000  0.5122320000000 1.0
C      1  0.4245370000000  0.4479710000000  0.5608760000000 1.0
C      1  0.4850650000000  0.5631530000000  0.4766690000000 1.0
C      1  0.5071150000000  0.4872250000000  0.5809220000000 1.0
C      1  0.5794950000000  0.5257640000000  0.5085660000000 1.0
C      1  0.4033650000000  0.4974080000000  0.4564530000000 1.0
C      1  0.4569830000000  0.5403600000000  0.5280470000000 1.0
C      1  0.4953530000000  0.5336910000000  0.4077910000000 1.0
C      1  0.4971750000000  0.4759310000000  0.4435880000000 1.0
C      1  0.5233220000000  0.5460280000000  0.5483810000000 1.0
C      1  0.4408230000000  0.5880900000000  0.5042130000000 1.0
C      1  0.4574300000000  0.4722340000000  0.5960730000000 1.0
C      1  0.4621680000000  0.4602150000000  0.5648360000000 1.0
C      1  0.4017490000000  0.5401180000000  0.5114510000000 1.0
C      1  0.4516420000000  0.4281190000000  0.5604410000000 1.0
C      1  0.4318360000000  0.5767290000000  0.5348850000000 1.0
C      1  0.4460000000000  0.4601780000000  0.5172050000000 1.0
C      1  0.5282130000000  0.5702200000000  0.4301370000000 1.0
C      1  0.4634340000000  0.4504440000000  0.4721210000000 1.0
C      1  0.4428570000000  0.4370280000000  0.4485590000000 1.0
C      1  0.5708450000000  0.4995210000000  0.4797320000000 1.0
C      1  0.4786750000000  0.4196970000000  0.4520090000000 1.0
C      1  0.4710550000000  0.4512150000000  0.5020790000000 1.0
C      1  0.4227360000000  0.5599490000000  0.5083070000000 1.0
C      1  0.4543510000000  0.4376310000000  0.4225200000000 1.0
C      1  0.4663010000000  0.5015680000000  0.6013070000000 1.0
C      1  0.5197390000000  0.6024940000000  0.4665510000000 1.0
C      1  0.4771560000000  0.6015350000000  0.5139930000000 1.0
C      1  0.5554710000000  0.4662550000000  0.4953820000000 1.0
C      1  0.5328100000000  0.5793470000000  0.5178560000000 1.0
C      1  0.5210130000000  0.4953410000000  0.4741130000000 1.0
C      1  0.4267080000000  0.5026460000000  0.5792920000000 1.0
C      1  0.5618040000000  0.4627690000000  0.5429280000000 1.0
C      1  0.5547980000000  0.4224640000000  0.4554970000000 1.0
C      1  0.5801390000000  0.4915860000000  0.5632570000000 1.0
C      1  0.4854800000000  0.4003610000000  0.4889760000000 1.0
C      1  0.4155080000000  0.5102480000000  0.5133900000000 1.0
C      1  0.4223620000000  0.4410900000000  0.5274610000000 1.0
C      1  0.5283930000000  0.6108540000000  0.4949020000000 1.0
C      1  0.5920900000000  0.4463020000000  0.5427390000000 1.0
C      1  0.5201350000000  0.4353840000000  0.4133080000000 1.0
C      1  0.4695100000000  0.5352450000000  0.5703420000000 1.0
C      1  0.4724490000000  0.4983010000000  0.5337250000000 1.0
END
