TITL C-2782238-9940-1412 7.69746626705329e-06 125000 -587.492045667232 0 0 108 (C1) n - 1
REM
REM in /home/nfs/bkarasulu/CARBON/AIRSS/Generating-Clusters/REBO/Higher-Symm/SD-CG/HFTN-CG
REM
REM
REM
REM
REM
REM ./C.cell (12c818d87b63d06a65506943cc24bca4)
REM
REM compiler GCC version 9.2.1 20190827 (Red Hat 9.2.1-1)
REM options -cpp -mtune=generic -march=x86-64 -g -O0 -fpre-include=/usr/include/finclude/math-vector-fortran.h
REM seed -823387663 508652093 1891314912 1975705487 -1729297384 1388270772 923954948 -2054412710 -483134977 -1202626063 -2116325577 -567914251 1741596421 257059277 -1341275956 1994763781 1501994147 1937786366 -1184701457 812586590 685117858 -1837782296 1631115659 -1902053283 185001578 -1435132479 -1819032336 1243172857 -1755962795 -1945512484 1739873223 754846178 -359832815
REM
CELL 1.54180   50.00000   50.00000   50.00000   90.00000   90.00000   90.00000
LATT -1
SFAC C  
C      1  0.5403370000000  0.5143660000000  0.5396580000000 1.0
C      1  0.5141660000000  0.4635170000000  0.5375710000000 1.0
C      1  0.4634690000000  0.4843600000000  0.5391450000000 1.0
C      1  0.4878410000000  0.5363260000000  0.5394420000000 1.0
C      1  0.4663240000000  0.5136520000000  0.5319710000000 1.0
C      1  0.4850070000000  0.4617810000000  0.5455610000000 1.0
C      1  0.5360080000000  0.4847640000000  0.5461390000000 1.0
C      1  0.5175750000000  0.5354270000000  0.5334960000000 1.0
C      1  0.5745030000000  0.4868480000000  0.5268990000000 1.0
C      1  0.4866060000000  0.4250790000000  0.5298160000000 1.0
C      1  0.4273680000000  0.5134390000000  0.5217080000000 1.0
C      1  0.5148400000000  0.5737020000000  0.5223770000000 1.0
C      1  0.4246870000000  0.4849100000000  0.5293980000000 1.0
C      1  0.5148550000000  0.4251410000000  0.5244560000000 1.0
C      1  0.5768010000000  0.5150320000000  0.5235720000000 1.0
C      1  0.4865580000000  0.5733850000000  0.5242100000000 1.0
C      1  0.5149940000000  0.5641710000000  0.5608090000000 1.0
C      1  0.5701520000000  0.4847600000000  0.5661520000000 1.0
C      1  0.4792270000000  0.4260640000000  0.5622240000000 1.0
C      1  0.4381400000000  0.5117050000000  0.5598750000000 1.0
C      1  0.4813600000000  0.5675870000000  0.5630880000000 1.0
C      1  0.4308090000000  0.4783500000000  0.5611230000000 1.0
C      1  0.5126890000000  0.4329660000000  0.5630950000000 1.0
C      1  0.5723190000000  0.5185800000000  0.5627610000000 1.0
C      1  0.5393250000000  0.4804870000000  0.5800150000000 1.0
C      1  0.4826580000000  0.4557500000000  0.5781030000000 1.0
C      1  0.4705310000000  0.5126230000000  0.5664610000000 1.0
C      1  0.5203720000000  0.5326860000000  0.5685970000000 1.0
C      1  0.4623400000000  0.4802280000000  0.5727680000000 1.0
C      1  0.5144540000000  0.4641640000000  0.5725210000000 1.0
C      1  0.5423980000000  0.5121610000000  0.5744260000000 1.0
C      1  0.4884940000000  0.5370200000000  0.5735450000000 1.0
C      1  0.5379970000000  0.5185130000000  0.4509270000000 1.0
C      1  0.5108270000000  0.4614790000000  0.4480580000000 1.0
C      1  0.4561010000000  0.4862570000000  0.4442840000000 1.0
C      1  0.4836160000000  0.5422290000000  0.4489450000000 1.0
C      1  0.4592270000000  0.5169260000000  0.4387950000000 1.0
C      1  0.4799760000000  0.4603830000000  0.4541740000000 1.0
C      1  0.5357290000000  0.4874060000000  0.4548590000000 1.0
C      1  0.5143530000000  0.5454680000000  0.4437510000000 1.0
C      1  0.4563920000000  0.5723110000000  0.4808530000000 1.0
C      1  0.5734460000000  0.5471000000000  0.4816500000000 1.0
C      1  0.5468940000000  0.4296580000000  0.4849070000000 1.0
C      1  0.4308710000000  0.4507120000000  0.4902310000000 1.0
C      1  0.5473490000000  0.5727820000000  0.4819320000000 1.0
C      1  0.4325890000000  0.5446100000000  0.4803210000000 1.0
C      1  0.4554570000000  0.4273340000000  0.4856250000000 1.0
C      1  0.5722280000000  0.4561000000000  0.4844280000000 1.0
C      1  0.5914650000000  0.4372950000000  0.4656520000000 1.0
C      1  0.4371680000000  0.4281430000000  0.4580100000000 1.0
C      1  0.4218360000000  0.5667550000000  0.4615010000000 1.0
C      1  0.5708710000000  0.5832780000000  0.4648110000000 1.0
C      1  0.4242400000000  0.4489650000000  0.4509350000000 1.0
C      1  0.5705110000000  0.4199100000000  0.4675000000000 1.0
C      1  0.5919740000000  0.5661490000000  0.4624350000000 1.0
C      1  0.4363120000000  0.5897980000000  0.4614190000000 1.0
C      1  0.5296510000000  0.4490850000000  0.4257070000000 1.0
C      1  0.4445120000000  0.4668930000000  0.4215180000000 1.0
C      1  0.4642420000000  0.5552980000000  0.4289430000000 1.0
C      1  0.5502290000000  0.5358710000000  0.4290450000000 1.0
C      1  0.4618060000000  0.4485560000000  0.4323940000000 1.0
C      1  0.5471350000000  0.4688800000000  0.4331570000000 1.0
C      1  0.5341240000000  0.5568650000000  0.4217420000000 1.0
C      1  0.4458800000000  0.5376330000000  0.4187200000000 1.0
C      1  0.4573620000000  0.5646680000000  0.5407030000000 1.0
C      1  0.5671630000000  0.5439290000000  0.5406840000000 1.0
C      1  0.5413960000000  0.4352700000000  0.5446300000000 1.0
C      1  0.4313730000000  0.4486770000000  0.5444750000000 1.0
C      1  0.5428920000000  0.5651870000000  0.5410620000000 1.0
C      1  0.4375360000000  0.5400820000000  0.5408710000000 1.0
C      1  0.4500410000000  0.4274780000000  0.5447540000000 1.0
C      1  0.5658860000000  0.4583330000000  0.5448800000000 1.0
C      1  0.5724420000000  0.5185100000000  0.4711830000000 1.0
C      1  0.5194620000000  0.4255470000000  0.4733730000000 1.0
C      1  0.4218220000000  0.4753940000000  0.4686570000000 1.0
C      1  0.4857080000000  0.5757410000000  0.4706040000000 1.0
C      1  0.4235190000000  0.5131410000000  0.4711710000000 1.0
C      1  0.4854870000000  0.4238490000000  0.4751740000000 1.0
C      1  0.5710230000000  0.4845150000000  0.4734210000000 1.0
C      1  0.5198060000000  0.5763180000000  0.4697850000000 1.0
C      1  0.4631490000000  0.5149720000000  0.4708730000000 1.0
C      1  0.5129800000000  0.5375980000000  0.4755860000000 1.0
C      1  0.5336560000000  0.4842100000000  0.4875210000000 1.0
C      1  0.4787560000000  0.4610930000000  0.4870330000000 1.0
C      1  0.5349790000000  0.5146590000000  0.4839680000000 1.0
C      1  0.4824820000000  0.5376210000000  0.4814610000000 1.0
C      1  0.4576940000000  0.4839870000000  0.4781220000000 1.0
C      1  0.5095490000000  0.4633700000000  0.4807410000000 1.0
C      1  0.4207160000000  0.4544780000000  0.5165050000000 1.0
C      1  0.4562490000000  0.5805180000000  0.5105220000000 1.0
C      1  0.5827820000000  0.5458090000000  0.5104940000000 1.0
C      1  0.5462070000000  0.4214160000000  0.5138450000000 1.0
C      1  0.5799780000000  0.4565300000000  0.5138200000000 1.0
C      1  0.5455800000000  0.5808620000000  0.5109500000000 1.0
C      1  0.4240420000000  0.5442790000000  0.5097930000000 1.0
C      1  0.4571570000000  0.4160910000000  0.5153270000000 1.0
C      1  0.5219890000000  0.4523960000000  0.5080770000000 1.0
C      1  0.4512910000000  0.4789910000000  0.5093880000000 1.0
C      1  0.4744010000000  0.5455590000000  0.5100270000000 1.0
C      1  0.5484210000000  0.5261690000000  0.5101630000000 1.0
C      1  0.4717850000000  0.4527140000000  0.5164990000000 1.0
C      1  0.5450050000000  0.4750730000000  0.5153140000000 1.0
C      1  0.5249500000000  0.5477590000000  0.5036020000000 1.0
C      1  0.4541720000000  0.5194030000000  0.5025510000000 1.0
C      1  0.5727650000000  0.4997150000000  0.4448710000000 1.0
C      1  0.4005800000000  0.4978950000000  0.4631640000000 1.0
C      1  0.5020490000000  0.5835240000000  0.4437530000000 1.0
C      1  0.5015000000000  0.4169980000000  0.4478760000000 1.0
END
