TITL C-2782235-7892-1030 -0.00263885148146256 125000 -1002.30911455627 0 0 164 (C3) n - 1
REM
REM in /home/nfs/bkarasulu/CARBON/AIRSS/Generating-Clusters/REBO/Higher-Symm/SD-CG/HFTN-CG
REM
REM
REM
REM
REM
REM ./C.cell (12c818d87b63d06a65506943cc24bca4)
REM
REM compiler GCC version 9.2.1 20190827 (Red Hat 9.2.1-1)
REM options -cpp -mtune=generic -march=x86-64 -g -O0 -fpre-include=/usr/include/finclude/math-vector-fortran.h
REM seed 1162893001 -1052201116 -760281912 1648811828 326834110 -564832783 -363793823 1492651516 1511824649 1948303254 308159143 1382376078 45885536 -487377789 -1273893949 -69002208 934759435 1995432743 -152526043 851620705 1538718741 -1493745311 420038865 1179964150 -278031233 -1707043035 1023818772 -1000519180 221672160 -1794808960 1746128751 -314509916 773725826
REM
CELL 1.54180   50.00000   50.00000   50.00000   90.00000   90.00000   90.00000
LATT -1
SFAC C  
C      1  0.5883150000000  0.5074360000000  0.4740660000000 1.0
C      1  0.4624660000000  0.4198990000000  0.4740790000000 1.0
C      1  0.4495810000000  0.5726550000000  0.4740580000000 1.0
C      1  0.5883900000000  0.4928580000000  0.5265690000000 1.0
C      1  0.4621760000000  0.5800200000000  0.5265580000000 1.0
C      1  0.4497980000000  0.4271350000000  0.5265800000000 1.0
C      1  0.4284540000000  0.4480340000000  0.4468380000000 1.0
C      1  0.4909560000000  0.5880370000000  0.4468180000000 1.0
C      1  0.5809510000000  0.4639070000000  0.4468340000000 1.0
C      1  0.4289240000000  0.5515890000000  0.5532410000000 1.0
C      1  0.4910500000000  0.4125580000000  0.5532600000000 1.0
C      1  0.5803910000000  0.5358760000000  0.5532420000000 1.0
C      1  0.4034410000000  0.5347850000000  0.5040900000000 1.0
C      1  0.5785850000000  0.5663370000000  0.5040840000000 1.0
C      1  0.5183380000000  0.3988820000000  0.5041080000000 1.0
C      1  0.4036850000000  0.4653660000000  0.4966210000000 1.0
C      1  0.5783320000000  0.4338010000000  0.4966230000000 1.0
C      1  0.5183450000000  0.6008320000000  0.4966010000000 1.0
C      1  0.5214830000000  0.5182940000000  0.4261190000000 1.0
C      1  0.5052910000000  0.4723380000000  0.4261260000000 1.0
C      1  0.4735870000000  0.5093380000000  0.4261210000000 1.0
C      1  0.5214890000000  0.4819080000000  0.5748830000000 1.0
C      1  0.5051160000000  0.5275670000000  0.5748760000000 1.0
C      1  0.4737600000000  0.4905580000000  0.5748820000000 1.0
C      1  0.5211010000000  0.5890100000000  0.5284200000000 1.0
C      1  0.5667130000000  0.4373330000000  0.5284410000000 1.0
C      1  0.4125500000000  0.4736700000000  0.5284370000000 1.0
C      1  0.5212850000000  0.4108080000000  0.4723300000000 1.0
C      1  0.5667790000000  0.5629200000000  0.4723080000000 1.0
C      1  0.4122990000000  0.5262630000000  0.4723150000000 1.0
C      1  0.4665980000000  0.4019670000000  0.5234670000000 1.0
C      1  0.4319800000000  0.5780540000000  0.5234430000000 1.0
C      1  0.6017850000000  0.5199900000000  0.5234490000000 1.0
C      1  0.4666320000000  0.5976250000000  0.4770840000000 1.0
C      1  0.4323170000000  0.4221810000000  0.4771090000000 1.0
C      1  0.6014140000000  0.4801850000000  0.4770990000000 1.0
C      1  0.5565860000000  0.5798610000000  0.5611800000000 1.0
C      1  0.5410430000000  0.4111830000000  0.5612040000000 1.0
C      1  0.4027360000000  0.5089830000000  0.5611910000000 1.0
C      1  0.5568580000000  0.4196680000000  0.4394080000000 1.0
C      1  0.5413140000000  0.5892900000000  0.4393850000000 1.0
C      1  0.4021890000000  0.4910170000000  0.4393990000000 1.0
C      1  0.4990320000000  0.4724110000000  0.3866600000000 1.0
C      1  0.4767850000000  0.5147130000000  0.3866540000000 1.0
C      1  0.5245430000000  0.5128290000000  0.3866540000000 1.0
C      1  0.4990330000000  0.5276260000000  0.6143610000000 1.0
C      1  0.4767560000000  0.4852690000000  0.6143680000000 1.0
C      1  0.5245770000000  0.4871540000000  0.6143670000000 1.0
C      1  0.4744980000000  0.4865560000000  0.3924910000000 1.0
C      1  0.5013010000000  0.5288900000000  0.3924850000000 1.0
C      1  0.5245620000000  0.4845110000000  0.3924910000000 1.0
C      1  0.4745020000000  0.5134540000000  0.6084870000000 1.0
C      1  0.5012940000000  0.4711090000000  0.6084930000000 1.0
C      1  0.5245700000000  0.5154840000000  0.6084870000000 1.0
C      1  0.4554840000000  0.4794940000000  0.5362560000000 1.0
C      1  0.5046760000000  0.5489180000000  0.5362460000000 1.0
C      1  0.5402030000000  0.4716050000000  0.5362570000000 1.0
C      1  0.4563740000000  0.5198920000000  0.4653720000000 1.0
C      1  0.5047630000000  0.4521620000000  0.4653810000000 1.0
C      1  0.5392240000000  0.5279330000000  0.4653700000000 1.0
C      1  0.3960440000000  0.4982770000000  0.5370240000000 1.0
C      1  0.5506630000000  0.5910040000000  0.5370090000000 1.0
C      1  0.5536570000000  0.4107360000000  0.5370350000000 1.0
C      1  0.3956920000000  0.5017210000000  0.4636260000000 1.0
C      1  0.5508410000000  0.4086950000000  0.4636380000000 1.0
C      1  0.5538290000000  0.5895710000000  0.4636130000000 1.0
C      1  0.4759830000000  0.5816870000000  0.5025080000000 1.0
C      1  0.5829320000000  0.4800620000000  0.5025210000000 1.0
C      1  0.4414480000000  0.4382530000000  0.5025280000000 1.0
C      1  0.4761230000000  0.4178020000000  0.4981460000000 1.0
C      1  0.5833050000000  0.5203170000000  0.4981300000000 1.0
C      1  0.4409340000000  0.5618820000000  0.4981260000000 1.0
C      1  0.4553270000000  0.5054220000000  0.5554600000000 1.0
C      1  0.5272070000000  0.5360940000000  0.5554550000000 1.0
C      1  0.5178300000000  0.4585080000000  0.5554660000000 1.0
C      1  0.4545420000000  0.4946600000000  0.4453820000000 1.0
C      1  0.5275280000000  0.4631870000000  0.4453850000000 1.0
C      1  0.5182910000000  0.5421310000000  0.4453750000000 1.0
C      1  0.5719210000000  0.5461340000000  0.4481950000000 1.0
C      1  0.5041800000000  0.4147420000000  0.4482130000000 1.0
C      1  0.4242610000000  0.5391040000000  0.4481970000000 1.0
C      1  0.5721430000000  0.4538280000000  0.5526190000000 1.0
C      1  0.5041040000000  0.5854710000000  0.5526010000000 1.0
C      1  0.4241170000000  0.4607250000000  0.5526190000000 1.0
C      1  0.3895510000000  0.4901020000000  0.4893460000000 1.0
C      1  0.5468350000000  0.6007040000000  0.4893300000000 1.0
C      1  0.5639770000000  0.4091910000000  0.4893560000000 1.0
C      1  0.3895630000000  0.5098920000000  0.5114270000000 1.0
C      1  0.5468350000000  0.3993110000000  0.5114410000000 1.0
C      1  0.5639650000000  0.5908030000000  0.5114140000000 1.0
C      1  0.5642870000000  0.5390690000000  0.4212680000000 1.0
C      1  0.5018810000000  0.4248800000000  0.4212840000000 1.0
C      1  0.4341930000000  0.5360190000000  0.4212700000000 1.0
C      1  0.5641870000000  0.4607930000000  0.5794740000000 1.0
C      1  0.5020530000000  0.5751040000000  0.5794580000000 1.0
C      1  0.4341240000000  0.4641380000000  0.5794740000000 1.0
C      1  0.5551910000000  0.4742240000000  0.4929720000000 1.0
C      1  0.4502640000000  0.4651950000000  0.4929740000000 1.0
C      1  0.4949080000000  0.5605790000000  0.4929600000000 1.0
C      1  0.5555420000000  0.5258870000000  0.5073210000000 1.0
C      1  0.4499940000000  0.5350550000000  0.5073210000000 1.0
C      1  0.4948280000000  0.4390630000000  0.5073340000000 1.0
C      1  0.4560400000000  0.4760020000000  0.4100650000000 1.0
C      1  0.5013880000000  0.5501550000000  0.4100540000000 1.0
C      1  0.5429330000000  0.4738070000000  0.4100640000000 1.0
C      1  0.4562070000000  0.5240940000000  0.5907890000000 1.0
C      1  0.5012240000000  0.4499410000000  0.5907990000000 1.0
C      1  0.5429340000000  0.5260040000000  0.5907880000000 1.0
C      1  0.5644090000000  0.4892500000000  0.4311310000000 1.0
C      1  0.4586740000000  0.4496860000000  0.4311370000000 1.0
C      1  0.4772780000000  0.5610370000000  0.4311210000000 1.0
C      1  0.5646090000000  0.5106480000000  0.5698420000000 1.0
C      1  0.4586650000000  0.5505380000000  0.5698380000000 1.0
C      1  0.4770910000000  0.4388440000000  0.5698530000000 1.0
C      1  0.4950930000000  0.5189900000000  0.5341560000000 1.0
C      1  0.5190760000000  0.4948670000000  0.5341590000000 1.0
C      1  0.4861940000000  0.4861590000000  0.5341600000000 1.0
C      1  0.4952020000000  0.4811170000000  0.4703410000000 1.0
C      1  0.5189300000000  0.5051760000000  0.4703380000000 1.0
C      1  0.4862300000000  0.5136960000000  0.4703370000000 1.0
C      1  0.5521930000000  0.5269960000000  0.5376080000000 1.0
C      1  0.4974600000000  0.4414160000000  0.5376200000000 1.0
C      1  0.4507120000000  0.5316060000000  0.5376080000000 1.0
C      1  0.5529720000000  0.4717890000000  0.4631390000000 1.0
C      1  0.4981230000000  0.5598690000000  0.4631270000000 1.0
C      1  0.4492670000000  0.4683280000000  0.4631400000000 1.0
C      1  0.4986400000000  0.6020900000000  0.4767890000000 1.0
C      1  0.5892760000000  0.4502330000000  0.4768090000000 1.0
C      1  0.4124460000000  0.4476680000000  0.4768110000000 1.0
C      1  0.4986380000000  0.3974440000000  0.5240210000000 1.0
C      1  0.5896820000000  0.5499990000000  0.5239990000000 1.0
C      1  0.4120440000000  0.5525680000000  0.5240000000000 1.0
C      1  0.5253750000000  0.5154360000000  0.5082760000000 1.0
C      1  0.5008610000000  0.4704140000000  0.5082830000000 1.0
C      1  0.4741270000000  0.5141540000000  0.5082770000000 1.0
C      1  0.5254880000000  0.4847350000000  0.4962060000000 1.0
C      1  0.5006570000000  0.5296010000000  0.4962000000000 1.0
C      1  0.4742170000000  0.4856640000000  0.4962060000000 1.0
C      1  0.5428970000000  0.4511230000000  0.5091770000000 1.0
C      1  0.4364020000000  0.4873960000000  0.5091730000000 1.0
C      1  0.5210640000000  0.5614860000000  0.5091620000000 1.0
C      1  0.5431000000000  0.5492410000000  0.4916610000000 1.0
C      1  0.4359870000000  0.5125990000000  0.4916670000000 1.0
C      1  0.5212760000000  0.4381570000000  0.4916770000000 1.0
C      1  0.4891620000000  0.4504210000000  0.4185490000000 1.0
C      1  0.4626730000000  0.5342640000000  0.4185370000000 1.0
C      1  0.5485270000000  0.5152830000000  0.4185390000000 1.0
C      1  0.4891830000000  0.5496630000000  0.5821980000000 1.0
C      1  0.4625920000000  0.4657140000000  0.5822100000000 1.0
C      1  0.5485900000000  0.4846600000000  0.5822070000000 1.0
C      1  0.4290580000000  0.4776500000000  0.4307290000000 1.0
C      1  0.5163040000000  0.5727030000000  0.4307150000000 1.0
C      1  0.5549990000000  0.4496190000000  0.4307320000000 1.0
C      1  0.4296280000000  0.5223600000000  0.5696210000000 1.0
C      1  0.5160130000000  0.4277860000000  0.5696340000000 1.0
C      1  0.5547230000000  0.5498850000000  0.5696160000000 1.0
C      1  0.5679220000000  0.5142060000000  0.4533730000000 1.0
C      1  0.4785270000000  0.4341700000000  0.4533850000000 1.0
C      1  0.4539120000000  0.5516060000000  0.4533690000000 1.0
C      1  0.5686780000000  0.4857760000000  0.5477410000000 1.0
C      1  0.4781670000000  0.5664940000000  0.5477300000000 1.0
C      1  0.4535190000000  0.4477510000000  0.5477470000000 1.0
C      1  0.5001200000000  0.4999900000000  0.4243730000000 1.0
C      1  0.5001220000000  0.5000110000000  0.5770670000000 1.0
END
