TITL C-2782239-8622-296 4.93516351214285e-05 125000 -879.889228861741 0 0 152 (C1) n - 1
REM
REM in /home/nfs/bkarasulu/CARBON/AIRSS/Generating-Clusters/REBO/Higher-Symm/SD-CG/HFTN-CG
REM
REM
REM
REM
REM
REM ./C.cell (12c818d87b63d06a65506943cc24bca4)
REM
REM compiler GCC version 9.2.1 20190827 (Red Hat 9.2.1-1)
REM options -cpp -mtune=generic -march=x86-64 -g -O0 -fpre-include=/usr/include/finclude/math-vector-fortran.h
REM seed -1879373476 674016264 1639666466 1669586610 -1387131119 2141193944 182097349 501281628 1786218098 1620905597 -25906863 -73662711 280904884 -1079268596 -1278888368 148342661 -1848402126 -1169332510 -1071217065 2011428661 1271376365 1982265409 -285749691 984314 1286989309 -986139974 1663650293 1824077703 -1879808122 -1278832172 -757863056 476587093 1338041588
REM
CELL 1.54180   50.00000   50.00000   50.00000   90.00000   90.00000   90.00000
LATT -1
SFAC C  
C      1  0.4848480000000  0.4013810000000  0.4516550000000 1.0
C      1  0.5134560000000  0.4892920000000  0.4788780000000 1.0
C      1  0.5810950000000  0.5495220000000  0.4601140000000 1.0
C      1  0.4788690000000  0.4907860000000  0.3983750000000 1.0
C      1  0.5472710000000  0.4985840000000  0.4052110000000 1.0
C      1  0.5657950000000  0.4621230000000  0.4416870000000 1.0
C      1  0.5436760000000  0.5037760000000  0.4728610000000 1.0
C      1  0.4860310000000  0.4520060000000  0.4274030000000 1.0
C      1  0.3969360000000  0.4826620000000  0.5635590000000 1.0
C      1  0.4861840000000  0.3960260000000  0.4788810000000 1.0
C      1  0.5012350000000  0.4586070000000  0.4554960000000 1.0
C      1  0.5465940000000  0.5365590000000  0.4783570000000 1.0
C      1  0.4804050000000  0.5426330000000  0.5488820000000 1.0
C      1  0.5227530000000  0.4279470000000  0.5650410000000 1.0
C      1  0.5449590000000  0.5914240000000  0.4782660000000 1.0
C      1  0.4777140000000  0.5923630000000  0.4998510000000 1.0
C      1  0.4121040000000  0.5535510000000  0.5122970000000 1.0
C      1  0.4524310000000  0.5075030000000  0.4946390000000 1.0
C      1  0.4802720000000  0.4232360000000  0.4263290000000 1.0
C      1  0.5694620000000  0.4319990000000  0.4863960000000 1.0
C      1  0.4845680000000  0.5179960000000  0.4567680000000 1.0
C      1  0.5364580000000  0.3956780000000  0.5138040000000 1.0
C      1  0.4566430000000  0.5069700000000  0.4655350000000 1.0
C      1  0.5421430000000  0.4244200000000  0.4681050000000 1.0
C      1  0.4578130000000  0.4091540000000  0.5177940000000 1.0
C      1  0.4784590000000  0.4669320000000  0.6084720000000 1.0
C      1  0.5301830000000  0.4863340000000  0.5593470000000 1.0
C      1  0.4370960000000  0.4820130000000  0.4548280000000 1.0
C      1  0.4279700000000  0.5451140000000  0.4383500000000 1.0
C      1  0.5306060000000  0.5206120000000  0.3982330000000 1.0
C      1  0.4822730000000  0.5165070000000  0.4103510000000 1.0
C      1  0.4843890000000  0.5759500000000  0.4272360000000 1.0
C      1  0.4877110000000  0.5289810000000  0.6031150000000 1.0
C      1  0.5198220000000  0.4605690000000  0.4907630000000 1.0
C      1  0.4906830000000  0.5148610000000  0.5550320000000 1.0
C      1  0.5789690000000  0.5033270000000  0.5122190000000 1.0
C      1  0.5088170000000  0.5201990000000  0.5786110000000 1.0
C      1  0.4489110000000  0.4605990000000  0.5822930000000 1.0
C      1  0.5580980000000  0.4765470000000  0.4668200000000 1.0
C      1  0.4234510000000  0.4496470000000  0.5021070000000 1.0
C      1  0.5133370000000  0.5101290000000  0.4448240000000 1.0
C      1  0.4384880000000  0.4348290000000  0.5293840000000 1.0
C      1  0.4782090000000  0.5580850000000  0.5774530000000 1.0
C      1  0.4568920000000  0.4851840000000  0.3832590000000 1.0
C      1  0.4408110000000  0.5366680000000  0.5897690000000 1.0
C      1  0.4787430000000  0.5530630000000  0.5067850000000 1.0
C      1  0.5958450000000  0.4945900000000  0.4625640000000 1.0
C      1  0.4591800000000  0.4591340000000  0.4584400000000 1.0
C      1  0.5649620000000  0.5346860000000  0.5608810000000 1.0
C      1  0.5398080000000  0.5031840000000  0.5048400000000 1.0
C      1  0.5556440000000  0.4014040000000  0.4877860000000 1.0
C      1  0.4485180000000  0.5121730000000  0.5341360000000 1.0
C      1  0.5249200000000  0.4354930000000  0.4470120000000 1.0
C      1  0.5068320000000  0.5222580000000  0.4823280000000 1.0
C      1  0.5559820000000  0.5693760000000  0.5308300000000 1.0
C      1  0.4970700000000  0.4322680000000  0.5769520000000 1.0
C      1  0.5936780000000  0.4800160000000  0.4928640000000 1.0
C      1  0.4523590000000  0.4651240000000  0.5262400000000 1.0
C      1  0.4887730000000  0.4924620000000  0.5019180000000 1.0
C      1  0.4472390000000  0.4321650000000  0.4609950000000 1.0
C      1  0.5061460000000  0.5902020000000  0.5186950000000 1.0
C      1  0.5618490000000  0.4949510000000  0.5367740000000 1.0
C      1  0.6095720000000  0.5091330000000  0.5010980000000 1.0
C      1  0.5145000000000  0.5805740000000  0.4121630000000 1.0
C      1  0.5672310000000  0.5320650000000  0.5034140000000 1.0
C      1  0.5694270000000  0.4782930000000  0.5602000000000 1.0
C      1  0.5098880000000  0.5480150000000  0.4623790000000 1.0
C      1  0.5352140000000  0.5154890000000  0.5423260000000 1.0
C      1  0.5179490000000  0.4342460000000  0.5347930000000 1.0
C      1  0.5402690000000  0.5569100000000  0.4516290000000 1.0
C      1  0.4782900000000  0.4472710000000  0.5326860000000 1.0
C      1  0.4586180000000  0.4898690000000  0.5970080000000 1.0
C      1  0.5176970000000  0.5426110000000  0.6029730000000 1.0
C      1  0.5721920000000  0.5334440000000  0.5373130000000 1.0
C      1  0.5513410000000  0.4576520000000  0.4893860000000 1.0
C      1  0.5842130000000  0.4850520000000  0.4378770000000 1.0
C      1  0.5658870000000  0.4094990000000  0.5191690000000 1.0
C      1  0.4350150000000  0.5119120000000  0.4402400000000 1.0
C      1  0.5657570000000  0.5296030000000  0.4377110000000 1.0
C      1  0.4920260000000  0.5919280000000  0.5496020000000 1.0
C      1  0.4852150000000  0.5825820000000  0.5772620000000 1.0
C      1  0.4969850000000  0.4883340000000  0.5347200000000 1.0
C      1  0.4699390000000  0.5785250000000  0.5280860000000 1.0
C      1  0.4297900000000  0.5769120000000  0.4967770000000 1.0
C      1  0.4604590000000  0.5848880000000  0.4570280000000 1.0
C      1  0.5670540000000  0.5760630000000  0.4741480000000 1.0
C      1  0.5007940000000  0.4785390000000  0.5674680000000 1.0
C      1  0.5326990000000  0.5497810000000  0.5428360000000 1.0
C      1  0.5252590000000  0.5933770000000  0.4582320000000 1.0
C      1  0.5984280000000  0.5217650000000  0.4633230000000 1.0
C      1  0.5037630000000  0.4348590000000  0.4891030000000 1.0
C      1  0.5060060000000  0.4604930000000  0.5196240000000 1.0
C      1  0.4039310000000  0.5274960000000  0.4933600000000 1.0
C      1  0.4405590000000  0.5377440000000  0.5048660000000 1.0
C      1  0.5512800000000  0.4813950000000  0.5847450000000 1.0
C      1  0.4178570000000  0.4336980000000  0.4519860000000 1.0
C      1  0.4072570000000  0.5312460000000  0.4615750000000 1.0
C      1  0.4935150000000  0.5900350000000  0.4568960000000 1.0
C      1  0.4558830000000  0.5613930000000  0.4335980000000 1.0
C      1  0.5708610000000  0.5053880000000  0.4218330000000 1.0
C      1  0.5480280000000  0.4550980000000  0.5963770000000 1.0
C      1  0.5261760000000  0.5541400000000  0.4991930000000 1.0
C      1  0.4066250000000  0.5021100000000  0.5093980000000 1.0
C      1  0.4600760000000  0.4080640000000  0.5497560000000 1.0
C      1  0.4963970000000  0.4696890000000  0.4070110000000 1.0
C      1  0.4960880000000  0.4578180000000  0.5895350000000 1.0
C      1  0.5478510000000  0.4355280000000  0.5749250000000 1.0
C      1  0.5748290000000  0.5631700000000  0.5112000000000 1.0
C      1  0.5152240000000  0.4825170000000  0.4396800000000 1.0
C      1  0.5051810000000  0.5609110000000  0.5361490000000 1.0
C      1  0.4172940000000  0.4733340000000  0.5469140000000 1.0
C      1  0.4487180000000  0.4864030000000  0.5480420000000 1.0
C      1  0.5092720000000  0.4126150000000  0.4342890000000 1.0
C      1  0.5680750000000  0.4464550000000  0.5516700000000 1.0
C      1  0.4361870000000  0.4503540000000  0.5595970000000 1.0
C      1  0.4511690000000  0.5878850000000  0.4839710000000 1.0
C      1  0.5432920000000  0.4518180000000  0.4281410000000 1.0
C      1  0.4110940000000  0.4746790000000  0.5166370000000 1.0
C      1  0.5001910000000  0.5706390000000  0.4846950000000 1.0
C      1  0.5353860000000  0.5261740000000  0.4409940000000 1.0
C      1  0.5362650000000  0.5388310000000  0.5747000000000 1.0
C      1  0.4761850000000  0.4403200000000  0.5008830000000 1.0
C      1  0.4480380000000  0.4284180000000  0.4915100000000 1.0
C      1  0.4810530000000  0.4665450000000  0.4812130000000 1.0
C      1  0.5196110000000  0.5257680000000  0.5137950000000 1.0
C      1  0.4481910000000  0.4808630000000  0.5030420000000 1.0
C      1  0.4661400000000  0.5513260000000  0.4777320000000 1.0
C      1  0.5120830000000  0.4087590000000  0.5190770000000 1.0
C      1  0.4763210000000  0.4290420000000  0.5571730000000 1.0
C      1  0.4427060000000  0.5733550000000  0.5409490000000 1.0
C      1  0.5393760000000  0.4600100000000  0.5413660000000 1.0
C      1  0.5291820000000  0.4741930000000  0.4116310000000 1.0
C      1  0.5884130000000  0.4520380000000  0.5033170000000 1.0
C      1  0.4610340000000  0.5204180000000  0.6017910000000 1.0
C      1  0.3851470000000  0.5201800000000  0.4485250000000 1.0
C      1  0.5363490000000  0.5824400000000  0.4325980000000 1.0
C      1  0.4178010000000  0.5190700000000  0.5315730000000 1.0
C      1  0.4753620000000  0.5211470000000  0.5144710000000 1.0
C      1  0.4868920000000  0.4022430000000  0.5065480000000 1.0
C      1  0.5483590000000  0.4746880000000  0.5147900000000 1.0
C      1  0.4240250000000  0.5470290000000  0.5707200000000 1.0
C      1  0.5074000000000  0.5522210000000  0.4294270000000 1.0
C      1  0.6155600000000  0.5351450000000  0.4968700000000 1.0
C      1  0.4512480000000  0.5444110000000  0.5359690000000 1.0
C      1  0.5068110000000  0.5293190000000  0.4103760000000 1.0
C      1  0.4635680000000  0.5282780000000  0.4325820000000 1.0
C      1  0.4378070000000  0.5414280000000  0.4729990000000 1.0
C      1  0.5789140000000  0.4333100000000  0.5265390000000 1.0
C      1  0.4703000000000  0.4906910000000  0.5669810000000 1.0
C      1  0.4188070000000  0.4585820000000  0.4696250000000 1.0
C      1  0.4123280000000  0.5452430000000  0.5450770000000 1.0
C      1  0.5965120000000  0.5553770000000  0.4898530000000 1.0
END
