TITL C-2782234-8014-1258 -0.000362095283701429 125000 -204.356505220091 0 0 33 (Cs) n - 1
REM
REM in /home/nfs/bkarasulu/CARBON/AIRSS/Generating-Clusters/REBO/Higher-Symm/SD-CG/HFTN-CG
REM
REM
REM
REM
REM
REM ./C.cell (12c818d87b63d06a65506943cc24bca4)
REM
REM compiler GCC version 9.2.1 20190827 (Red Hat 9.2.1-1)
REM options -cpp -mtune=generic -march=x86-64 -g -O0 -fpre-include=/usr/include/finclude/math-vector-fortran.h
REM seed -765489528 -350303234 -956523126 -2060631156 536211946 127157189 -645301172 -305992699 240347788 -759849275 1296923379 1258867145 -1018400427 610519692 -377925226 1416065906 -313219332 1458493845 -1971363602 1465266229 1292688461 -516816354 -1675814072 -369043656 -2053471867 -598126687 -1738904920 -664796563 -1957174398 -330123669 -171243817 -1140897379 -2074558253
REM
CELL 1.54180   50.00000   50.00000   50.00000   90.00000   90.00000   90.00000
LATT -1
SFAC C  
C      1  0.5025110000000  0.4473400000000  0.4862570000000 1.0
C      1  0.5021560000000  0.5527350000000  0.5124070000000 1.0
C      1  0.4991500000000  0.4423770000000  0.5156790000000 1.0
C      1  0.4978250000000  0.5606400000000  0.4836500000000 1.0
C      1  0.5026870000000  0.4885220000000  0.4461540000000 1.0
C      1  0.5019810000000  0.5118670000000  0.5522040000000 1.0
C      1  0.4994740000000  0.5180800000000  0.4419600000000 1.0
C      1  0.4974920000000  0.4829290000000  0.5593240000000 1.0
C      1  0.5227040000000  0.5552260000000  0.4690720000000 1.0
C      1  0.5240340000000  0.4500800000000  0.5291370000000 1.0
C      1  0.4767930000000  0.5423340000000  0.5223660000000 1.0
C      1  0.4773140000000  0.4584490000000  0.4765400000000 1.0
C      1  0.5223310000000  0.4683900000000  0.5536310000000 1.0
C      1  0.5243820000000  0.5312190000000  0.4501250000000 1.0
C      1  0.4767070000000  0.5222100000000  0.5419630000000 1.0
C      1  0.4774000000000  0.4786250000000  0.4568930000000 1.0
C      1  0.5412940000000  0.5093250000000  0.4657550000000 1.0
C      1  0.5383410000000  0.4870830000000  0.5323610000000 1.0
C      1  0.4606930000000  0.4996910000000  0.5329800000000 1.0
C      1  0.4616660000000  0.5013140000000  0.4660120000000 1.0
C      1  0.5411100000000  0.4662110000000  0.5077380000000 1.0
C      1  0.5385390000000  0.5333970000000  0.4872610000000 1.0
C      1  0.4608400000000  0.5340220000000  0.4995490000000 1.0
C      1  0.4615190000000  0.4670310000000  0.4993960000000 1.0
C      1  0.4737770000000  0.4557330000000  0.5234880000000 1.0
C      1  0.4730510000000  0.5458770000000  0.4756470000000 1.0
C      1  0.5273440000000  0.4630480000000  0.4818140000000 1.0
C      1  0.5258480000000  0.5345270000000  0.5141010000000 1.0
C      1  0.4740770000000  0.5256430000000  0.4554100000000 1.0
C      1  0.4727490000000  0.4754300000000  0.5442470000000 1.0
C      1  0.5274320000000  0.4835550000000  0.4618450000000 1.0
C      1  0.5257600000000  0.5139390000000  0.5341500000000 1.0
C      1  0.4546010000000  0.5004550000000  0.4993930000000 1.0
END
