TITL C-2782237-5345-520 -8.03489933413519e-08 125000 -19.0187538210903 0 0 4 (D(inf)h) n - 1
REM
REM in /home/nfs/bkarasulu/CARBON/AIRSS/Generating-Clusters/REBO/Higher-Symm/SD-CG/HFTN-CG
REM
REM
REM
REM
REM
REM ./C.cell (12c818d87b63d06a65506943cc24bca4)
REM
REM compiler GCC version 9.2.1 20190827 (Red Hat 9.2.1-1)
REM options -cpp -mtune=generic -march=x86-64 -g -O0 -fpre-include=/usr/include/finclude/math-vector-fortran.h
REM seed -1985233951 -1198648879 435796297 -397886407 2075145621 1784508267 1317601797 1894401913 1401877612 -1257660251 259838561 -2138537704 -567371954 -862160263 -557681711 1354284160 1229413758 -2053584379 -174078301 -920222622 1242451853 1013245118 -69553159 -889210481 27809928 1218687355 -1598858288 -1461272503 631759769 111488225 -30937563 -1591568488 1516521239
REM
CELL 1.54180   50.00000   50.00000   50.00000   90.00000   90.00000   90.00000
LATT -1
SFAC C  
C      1  0.4866850000000  0.5016180000000  0.4986220000000 1.0
C      1  0.5395230000000  0.5016180000000  0.4986220000000 1.0
C      1  0.4604770000000  0.5016180000000  0.4986220000000 1.0
C      1  0.5133150000000  0.5016180000000  0.4986220000000 1.0
END
