TITL C-2782229-3092-76 0.0305930040939985 125000 -630.830299800194 0 0 106 (C1) n - 1
REM
REM in /home/nfs/bkarasulu/CARBON/AIRSS/Generating-Clusters/REBO/Higher-Symm/SD-CG/HFTN-CG
REM
REM
REM
REM
REM
REM ./C.cell (12c818d87b63d06a65506943cc24bca4)
REM
REM compiler GCC version 9.2.1 20190827 (Red Hat 9.2.1-1)
REM options -cpp -mtune=generic -march=x86-64 -g -O0 -fpre-include=/usr/include/finclude/math-vector-fortran.h
REM seed -596337591 643688035 -1971047376 -861354978 329894260 -1574563408 295837528 -1049685669 1583405846 -1725995564 -262356666 1390577321 -1372068236 1946540400 1184826536 1388733997 -698179732 -847299526 -1058448401 -1072129478 1797733277 -1162676399 -401807838 378316489 495030182 180619771 -1949063217 1708626304 1890962861 1556020425 -1967355339 1067320671 -1600230063
REM
CELL 1.54180   50.00000   50.00000   50.00000   90.00000   90.00000   90.00000
LATT -1
SFAC C  
C      1  0.4535110000000  0.5214860000000  0.4497480000000 1.0
C      1  0.4567850000000  0.4729470000000  0.4484860000000 1.0
C      1  0.4603300000000  0.4450780000000  0.4891920000000 1.0
C      1  0.4319770000000  0.4450170000000  0.5380410000000 1.0
C      1  0.4583580000000  0.4973790000000  0.5523750000000 1.0
C      1  0.4551710000000  0.5435370000000  0.5324580000000 1.0
C      1  0.4556880000000  0.5489160000000  0.4813170000000 1.0
C      1  0.5679180000000  0.4309340000000  0.4494560000000 1.0
C      1  0.5432540000000  0.4225220000000  0.5166060000000 1.0
C      1  0.5519940000000  0.4678600000000  0.5758380000000 1.0
C      1  0.5581560000000  0.5411800000000  0.5734940000000 1.0
C      1  0.5591430000000  0.5832480000000  0.5131590000000 1.0
C      1  0.5584250000000  0.5616820000000  0.4431650000000 1.0
C      1  0.5361550000000  0.4939520000000  0.4293690000000 1.0
C      1  0.5686820000000  0.4616570000000  0.4979460000000 1.0
C      1  0.5698860000000  0.4739770000000  0.5283260000000 1.0
C      1  0.5691420000000  0.5068860000000  0.5369910000000 1.0
C      1  0.5683380000000  0.5333760000000  0.5178670000000 1.0
C      1  0.5649510000000  0.5329570000000  0.4840200000000 1.0
C      1  0.5663260000000  0.5096100000000  0.4632840000000 1.0
C      1  0.5661760000000  0.4777250000000  0.4693940000000 1.0
C      1  0.5522770000000  0.5148860000000  0.4389250000000 1.0
C      1  0.5664080000000  0.4585650000000  0.4440030000000 1.0
C      1  0.5610500000000  0.4307000000000  0.4967380000000 1.0
C      1  0.5573250000000  0.4544990000000  0.5515270000000 1.0
C      1  0.5614390000000  0.5138770000000  0.5674490000000 1.0
C      1  0.5609630000000  0.5615930000000  0.5309430000000 1.0
C      1  0.5633660000000  0.5614500000000  0.4709470000000 1.0
C      1  0.5354610000000  0.5253180000000  0.5258990000000 1.0
C      1  0.5354730000000  0.5303670000000  0.4956600000000 1.0
C      1  0.5173840000000  0.5100600000000  0.4801940000000 1.0
C      1  0.5335870000000  0.4868860000000  0.4685690000000 1.0
C      1  0.5351000000000  0.4632480000000  0.4897650000000 1.0
C      1  0.5366810000000  0.4689460000000  0.5205810000000 1.0
C      1  0.5375250000000  0.4953320000000  0.5371640000000 1.0
C      1  0.4324530000000  0.5271410000000  0.5215280000000 1.0
C      1  0.4306520000000  0.5329380000000  0.4895410000000 1.0
C      1  0.4290990000000  0.5117700000000  0.4646720000000 1.0
C      1  0.4318120000000  0.4793280000000  0.4654590000000 1.0
C      1  0.4357510000000  0.4616330000000  0.4922140000000 1.0
C      1  0.4302800000000  0.4672810000000  0.5225720000000 1.0
C      1  0.4332060000000  0.4967860000000  0.5347930000000 1.0
C      1  0.5149160000000  0.4617180000000  0.4202530000000 1.0
C      1  0.5222100000000  0.4172350000000  0.4709020000000 1.0
C      1  0.5101810000000  0.4328010000000  0.5492710000000 1.0
C      1  0.5146660000000  0.5022150000000  0.5826280000000 1.0
C      1  0.5158740000000  0.5612870000000  0.5549170000000 1.0
C      1  0.5186140000000  0.5789380000000  0.4845210000000 1.0
C      1  0.5126710000000  0.5411380000000  0.4312900000000 1.0
C      1  0.4580630000000  0.5690470000000  0.4635860000000 1.0
C      1  0.4536310000000  0.5342940000000  0.4268340000000 1.0
C      1  0.4564270000000  0.4609540000000  0.4250650000000 1.0
C      1  0.4605120000000  0.4187910000000  0.4875980000000 1.0
C      1  0.4463610000000  0.4220980000000  0.5392550000000 1.0
C      1  0.4580870000000  0.4936740000000  0.5784550000000 1.0
C      1  0.4530240000000  0.5643290000000  0.5483570000000 1.0
C      1  0.5118880000000  0.5492960000000  0.4849710000000 1.0
C      1  0.5042910000000  0.5309110000000  0.4584030000000 1.0
C      1  0.5095130000000  0.4820430000000  0.4470180000000 1.0
C      1  0.5112780000000  0.4448270000000  0.4859850000000 1.0
C      1  0.5097090000000  0.4627500000000  0.5342570000000 1.0
C      1  0.5122330000000  0.5064210000000  0.5522910000000 1.0
C      1  0.5084500000000  0.5364500000000  0.5386870000000 1.0
C      1  0.5535190000000  0.4207330000000  0.4712720000000 1.0
C      1  0.5410050000000  0.4335660000000  0.5422210000000 1.0
C      1  0.5452950000000  0.4949000000000  0.5804250000000 1.0
C      1  0.5470950000000  0.5597000000000  0.5553530000000 1.0
C      1  0.5493780000000  0.5801720000000  0.4869080000000 1.0
C      1  0.5432780000000  0.5407000000000  0.4323900000000 1.0
C      1  0.5482580000000  0.4666180000000  0.4241930000000 1.0
C      1  0.5027970000000  0.5211730000000  0.4111360000000 1.0
C      1  0.5062830000000  0.4341030000000  0.4216310000000 1.0
C      1  0.5143500000000  0.4161990000000  0.5040910000000 1.0
C      1  0.5009900000000  0.4590790000000  0.5668760000000 1.0
C      1  0.5075130000000  0.5272760000000  0.5966310000000 1.0
C      1  0.5063600000000  0.5853340000000  0.5402190000000 1.0
C      1  0.5077990000000  0.5884080000000  0.4576020000000 1.0
C      1  0.3985400000000  0.4868610000000  0.4690600000000 1.0
C      1  0.4038300000000  0.4677650000000  0.4915200000000 1.0
C      1  0.3908820000000  0.4705250000000  0.5166040000000 1.0
C      1  0.3998000000000  0.4897010000000  0.5353470000000 1.0
C      1  0.4006240000000  0.5190520000000  0.5290100000000 1.0
C      1  0.3984930000000  0.5310280000000  0.5012020000000 1.0
C      1  0.3972860000000  0.5167610000000  0.4748070000000 1.0
C      1  0.4881960000000  0.4717450000000  0.6130500000000 1.0
C      1  0.4972300000000  0.5527370000000  0.6137780000000 1.0
C      1  0.4929600000000  0.6127140000000  0.5294770000000 1.0
C      1  0.4777680000000  0.5812440000000  0.4482950000000 1.0
C      1  0.4874850000000  0.5069240000000  0.3865010000000 1.0
C      1  0.4953880000000  0.4039110000000  0.4175150000000 1.0
C      1  0.4697850000000  0.4101830000000  0.5329380000000 1.0
C      1  0.4959600000000  0.4143550000000  0.5289620000000 1.0
C      1  0.4994380000000  0.4765490000000  0.5883720000000 1.0
C      1  0.5059430000000  0.5566640000000  0.5828870000000 1.0
C      1  0.5067260000000  0.5922450000000  0.5085430000000 1.0
C      1  0.5027480000000  0.5699670000000  0.4311940000000 1.0
C      1  0.5028230000000  0.4883740000000  0.4081340000000 1.0
C      1  0.5101770000000  0.4124130000000  0.4449650000000 1.0
C      1  0.4893230000000  0.4776750000000  0.5170320000000 1.0
C      1  0.4838680000000  0.5027720000000  0.5361690000000 1.0
C      1  0.4812370000000  0.5319140000000  0.5219310000000 1.0
C      1  0.4829960000000  0.5356980000000  0.4918060000000 1.0
C      1  0.4779140000000  0.5137680000000  0.4660310000000 1.0
C      1  0.4831120000000  0.4827220000000  0.4629050000000 1.0
C      1  0.4855560000000  0.4621350000000  0.4881370000000 1.0
C      1  0.4977980000000  0.4990300000000  0.4974070000000 1.0
END
