TITL C-2782231-7322-302 0.0112630806505471 125000 -928.257385522145 0 0 165 (C1) n - 1
REM
REM in /home/nfs/bkarasulu/CARBON/AIRSS/Generating-Clusters/REBO/Higher-Symm/SD-CG/HFTN-CG
REM
REM
REM
REM
REM
REM ./C.cell (12c818d87b63d06a65506943cc24bca4)
REM
REM compiler GCC version 9.2.1 20190827 (Red Hat 9.2.1-1)
REM options -cpp -mtune=generic -march=x86-64 -g -O0 -fpre-include=/usr/include/finclude/math-vector-fortran.h
REM seed 1156468999 1526621919 733338003 1857009528 2053814342 1899408200 606641419 -117114945 -2036053835 -305458305 -1338459971 2143589088 1259614787 -1074211073 -286065852 1007565017 444605593 -2103075966 -1854729374 -1574821924 1658296374 -1755349189 -2111432136 179560079 -1667689176 -1438715979 -367137933 624417235 294083296 -508832322 -278479754 421271788 -820869990
REM
CELL 1.54180   50.00000   50.00000   50.00000   90.00000   90.00000   90.00000
LATT -1
SFAC C  
C      1  0.4728010000000  0.4759590000000  0.4430920000000 1.0
C      1  0.5265930000000  0.4658850000000  0.5480640000000 1.0
C      1  0.4744010000000  0.5303650000000  0.5600580000000 1.0
C      1  0.5282820000000  0.5286570000000  0.4458170000000 1.0
C      1  0.4435570000000  0.4722200000000  0.4729440000000 1.0
C      1  0.5530700000000  0.4680000000000  0.5278440000000 1.0
C      1  0.5582000000000  0.5286910000000  0.4747550000000 1.0
C      1  0.4402640000000  0.5232780000000  0.5308970000000 1.0
C      1  0.4909080000000  0.5426170000000  0.4364520000000 1.0
C      1  0.5111190000000  0.5434370000000  0.5680080000000 1.0
C      1  0.4896540000000  0.4537650000000  0.5585080000000 1.0
C      1  0.5079280000000  0.4576260000000  0.4424300000000 1.0
C      1  0.4284920000000  0.5452030000000  0.4859110000000 1.0
C      1  0.5509960000000  0.5494050000000  0.5142110000000 1.0
C      1  0.5569250000000  0.4553820000000  0.4902390000000 1.0
C      1  0.4399960000000  0.4600850000000  0.5102390000000 1.0
C      1  0.5209600000000  0.5273370000000  0.6033320000000 1.0
C      1  0.4790310000000  0.5114670000000  0.3974750000000 1.0
C      1  0.5220120000000  0.4908460000000  0.4005330000000 1.0
C      1  0.4770980000000  0.4881280000000  0.6000280000000 1.0
C      1  0.6074400000000  0.5154710000000  0.5172410000000 1.0
C      1  0.3995930000000  0.5098110000000  0.4751070000000 1.0
C      1  0.3973100000000  0.4870210000000  0.5223430000000 1.0
C      1  0.6023050000000  0.4849500000000  0.4735260000000 1.0
C      1  0.3956240000000  0.5254430000000  0.4513630000000 1.0
C      1  0.6126060000000  0.5334040000000  0.5391690000000 1.0
C      1  0.3817290000000  0.4689320000000  0.5418500000000 1.0
C      1  0.6019040000000  0.4696420000000  0.4485950000000 1.0
C      1  0.4595590000000  0.5279940000000  0.3804720000000 1.0
C      1  0.5470790000000  0.5358490000000  0.6068600000000 1.0
C      1  0.5397710000000  0.4726730000000  0.3828600000000 1.0
C      1  0.4505390000000  0.4756980000000  0.6020780000000 1.0
C      1  0.5625090000000  0.5564800000000  0.5459600000000 1.0
C      1  0.4365480000000  0.5518240000000  0.4536580000000 1.0
C      1  0.5589460000000  0.4460700000000  0.4574210000000 1.0
C      1  0.4316150000000  0.4516580000000  0.5410520000000 1.0
C      1  0.5418130000000  0.5537090000000  0.5715920000000 1.0
C      1  0.4579730000000  0.5478430000000  0.4295030000000 1.0
C      1  0.4563530000000  0.4474010000000  0.5612260000000 1.0
C      1  0.5392210000000  0.4492420000000  0.4313420000000 1.0
C      1  0.5398530000000  0.5081920000000  0.4941820000000 1.0
C      1  0.4647880000000  0.5094170000000  0.5119770000000 1.0
C      1  0.5374350000000  0.4945750000000  0.5225690000000 1.0
C      1  0.4678950000000  0.4933850000000  0.4840370000000 1.0
C      1  0.4831580000000  0.5098040000000  0.5366380000000 1.0
C      1  0.5213850000000  0.5077360000000  0.4696180000000 1.0
C      1  0.5115650000000  0.4949780000000  0.5423030000000 1.0
C      1  0.4923940000000  0.4937830000000  0.4655070000000 1.0
C      1  0.4048480000000  0.5280660000000  0.5033850000000 1.0
C      1  0.5992690000000  0.5312420000000  0.4878300000000 1.0
C      1  0.4093420000000  0.4675810000000  0.4969580000000 1.0
C      1  0.5872780000000  0.4687160000000  0.4995680000000 1.0
C      1  0.5049600000000  0.5312960000000  0.4075560000000 1.0
C      1  0.4912400000000  0.5379030000000  0.5953150000000 1.0
C      1  0.4975980000000  0.4702630000000  0.4122610000000 1.0
C      1  0.5015450000000  0.4676840000000  0.5875120000000 1.0
C      1  0.4477890000000  0.4602690000000  0.4244940000000 1.0
C      1  0.5525240000000  0.4579640000000  0.5689460000000 1.0
C      1  0.4465190000000  0.5421480000000  0.5764850000000 1.0
C      1  0.5546390000000  0.5409180000000  0.4278920000000 1.0
C      1  0.4252570000000  0.4577540000000  0.4475730000000 1.0
C      1  0.5793380000000  0.4617060000000  0.5477820000000 1.0
C      1  0.5807310000000  0.5384670000000  0.4501660000000 1.0
C      1  0.4208000000000  0.5395390000000  0.5542100000000 1.0
C      1  0.5539030000000  0.4167140000000  0.4686270000000 1.0
C      1  0.4451350000000  0.4236450000000  0.5307240000000 1.0
C      1  0.5497020000000  0.5847210000000  0.5319000000000 1.0
C      1  0.4492520000000  0.5759380000000  0.4712800000000 1.0
C      1  0.4675520000000  0.4177900000000  0.5563770000000 1.0
C      1  0.5279310000000  0.4224940000000  0.4467220000000 1.0
C      1  0.5294410000000  0.5813180000000  0.5596040000000 1.0
C      1  0.4692890000000  0.5755160000000  0.4432290000000 1.0
C      1  0.4292110000000  0.5004550000000  0.4861630000000 1.0
C      1  0.5762100000000  0.5166080000000  0.5081210000000 1.0
C      1  0.4272920000000  0.4974220000000  0.5158910000000 1.0
C      1  0.5752820000000  0.5005680000000  0.4790680000000 1.0
C      1  0.4845260000000  0.5042200000000  0.4285040000000 1.0
C      1  0.5192250000000  0.5064050000000  0.5798430000000 1.0
C      1  0.5148560000000  0.5008550000000  0.4312120000000 1.0
C      1  0.4901330000000  0.5036760000000  0.5748050000000 1.0
C      1  0.5396370000000  0.4086460000000  0.5182010000000 1.0
C      1  0.4563250000000  0.4070050000000  0.4827800000000 1.0
C      1  0.5405340000000  0.5871190000000  0.4804570000000 1.0
C      1  0.4575750000000  0.5864600000000  0.5210620000000 1.0
C      1  0.5149500000000  0.4049140000000  0.5401500000000 1.0
C      1  0.4779930000000  0.4109160000000  0.4597050000000 1.0
C      1  0.4815570000000  0.5927930000000  0.5414130000000 1.0
C      1  0.5160440000000  0.5914030000000  0.4594510000000 1.0
C      1  0.4106830000000  0.4696150000000  0.5557340000000 1.0
C      1  0.5746300000000  0.4665740000000  0.4375630000000 1.0
C      1  0.4224480000000  0.5302550000000  0.4342460000000 1.0
C      1  0.5866630000000  0.5362900000000  0.5559900000000 1.0
C      1  0.5537020000000  0.4693410000000  0.4117680000000 1.0
C      1  0.4375220000000  0.4687000000000  0.5765570000000 1.0
C      1  0.4446860000000  0.5288090000000  0.4087520000000 1.0
C      1  0.5641730000000  0.5300870000000  0.5799670000000 1.0
C      1  0.5237330000000  0.5498950000000  0.4938240000000 1.0
C      1  0.4799230000000  0.5448300000000  0.5116320000000 1.0
C      1  0.5281480000000  0.4455950000000  0.5061830000000 1.0
C      1  0.4715630000000  0.4559610000000  0.4976500000000 1.0
C      1  0.5022910000000  0.5476380000000  0.5373010000000 1.0
C      1  0.5008020000000  0.5460140000000  0.4687570000000 1.0
C      1  0.5021460000000  0.4437850000000  0.5284470000000 1.0
C      1  0.4980770000000  0.4558750000000  0.4755130000000 1.0
C      1  0.4160890000000  0.5537120000000  0.5227660000000 1.0
C      1  0.5840110000000  0.5585780000000  0.4792100000000 1.0
C      1  0.4176920000000  0.4424760000000  0.4780830000000 1.0
C      1  0.5823150000000  0.4426190000000  0.5183540000000 1.0
C      1  0.5245140000000  0.5568750000000  0.4185870000000 1.0
C      1  0.4742690000000  0.5623670000000  0.5837440000000 1.0
C      1  0.4783880000000  0.4447370000000  0.4189100000000 1.0
C      1  0.5222460000000  0.4420070000000  0.5788310000000 1.0
C      1  0.5812630000000  0.5024380000000  0.4386960000000 1.0
C      1  0.4187520000000  0.5000350000000  0.5584060000000 1.0
C      1  0.5787940000000  0.5034430000000  0.5540750000000 1.0
C      1  0.4215340000000  0.4966900000000  0.4414030000000 1.0
C      1  0.4390860000000  0.5051060000000  0.5775070000000 1.0
C      1  0.5593260000000  0.4995890000000  0.4210360000000 1.0
C      1  0.5576800000000  0.4979470000000  0.5728620000000 1.0
C      1  0.4422890000000  0.4989350000000  0.4197000000000 1.0
C      1  0.5278450000000  0.4805220000000  0.4529120000000 1.0
C      1  0.4758540000000  0.4815640000000  0.5541230000000 1.0
C      1  0.5313230000000  0.5201310000000  0.5526200000000 1.0
C      1  0.4729420000000  0.5204050000000  0.4551690000000 1.0
C      1  0.4539420000000  0.4832340000000  0.5310880000000 1.0
C      1  0.5516860000000  0.4819720000000  0.4731330000000 1.0
C      1  0.5535840000000  0.5216430000000  0.5290580000000 1.0
C      1  0.4509060000000  0.5230360000000  0.4771510000000 1.0
C      1  0.5012140000000  0.5789960000000  0.4312640000000 1.0
C      1  0.4971330000000  0.5841150000000  0.5705580000000 1.0
C      1  0.4996570000000  0.4182060000000  0.5679510000000 1.0
C      1  0.4969920000000  0.4193400000000  0.4323740000000 1.0
C      1  0.4319940000000  0.5753920000000  0.5009680000000 1.0
C      1  0.5658880000000  0.5771190000000  0.5020670000000 1.0
C      1  0.5672010000000  0.4179640000000  0.4998990000000 1.0
C      1  0.4295570000000  0.4192590000000  0.5003750000000 1.0
C      1  0.5289030000000  0.4172850000000  0.4888140000000 1.0
C      1  0.4680220000000  0.4256770000000  0.5065510000000 1.0
C      1  0.5266700000000  0.5804940000000  0.5080060000000 1.0
C      1  0.4713620000000  0.5715230000000  0.4963120000000 1.0
C      1  0.4862710000000  0.4156170000000  0.5303870000000 1.0
C      1  0.5047240000000  0.4255710000000  0.4706700000000 1.0
C      1  0.5099170000000  0.5784390000000  0.5334280000000 1.0
C      1  0.4889910000000  0.5760060000000  0.4691650000000 1.0
C      1  0.5335610000000  0.4793170000000  0.5858050000000 1.0
C      1  0.4659610000000  0.4801140000000  0.4037040000000 1.0
C      1  0.5375100000000  0.5210900000000  0.4060950000000 1.0
C      1  0.4625150000000  0.5195610000000  0.5976660000000 1.0
C      1  0.5927570000000  0.4864570000000  0.5281060000000 1.0
C      1  0.4049120000000  0.4779260000000  0.4647260000000 1.0
C      1  0.4009000000000  0.5186090000000  0.5359800000000 1.0
C      1  0.6053120000000  0.5159630000000  0.4587480000000 1.0
C      1  0.4711030000000  0.4426900000000  0.4506150000000 1.0
C      1  0.5317460000000  0.4300550000000  0.5508270000000 1.0
C      1  0.4690370000000  0.5634730000000  0.5516520000000 1.0
C      1  0.5308320000000  0.5631450000000  0.4500130000000 1.0
C      1  0.4492180000000  0.4376370000000  0.4713780000000 1.0
C      1  0.5550830000000  0.4343870000000  0.5331670000000 1.0
C      1  0.5533230000000  0.5597700000000  0.4690600000000 1.0
C      1  0.4483460000000  0.5553000000000  0.5307480000000 1.0
C      1  0.5190070000000  0.4742880000000  0.4914210000000 1.0
C      1  0.4922930000000  0.5260070000000  0.4895880000000 1.0
C      1  0.4943040000000  0.4697870000000  0.5127660000000 1.0
C      1  0.5145740000000  0.5270820000000  0.5170750000000 1.0
C      1  0.5024910000000  0.4991630000000  0.5037000000000 1.0
END
