TITL C-2782235-7892-1209 -0.000361464257149062 125000 -463.52576608545 0 0 82 (C1) n - 1
REM
REM in /home/nfs/bkarasulu/CARBON/AIRSS/Generating-Clusters/REBO/Higher-Symm/SD-CG/HFTN-CG
REM
REM
REM
REM
REM
REM ./C.cell (12c818d87b63d06a65506943cc24bca4)
REM
REM compiler GCC version 9.2.1 20190827 (Red Hat 9.2.1-1)
REM options -cpp -mtune=generic -march=x86-64 -g -O0 -fpre-include=/usr/include/finclude/math-vector-fortran.h
REM seed 1120926271 -1695721268 -983021386 -962247965 -320294115 -1982623763 -535091628 -1129193737 -169598841 2144262164 609690506 751067857 -1028708213 -2045301373 -698110327 551171065 1936728413 -1879604783 1099118022 -1928851432 188827985 -1124356221 928850747 -904755154 83182594 -1795177785 -535557031 121566933 1567800622 980829026 -107459262 538821881 -1514575889
REM
CELL 1.54180   50.00000   50.00000   50.00000   90.00000   90.00000   90.00000
LATT -1
SFAC C  
C      1  0.5427780000000  0.5125650000000  0.5098540000000 1.0
C      1  0.5078970000000  0.5143680000000  0.4577820000000 1.0
C      1  0.4599310000000  0.5108030000000  0.4929090000000 1.0
C      1  0.4919020000000  0.5186070000000  0.5496670000000 1.0
C      1  0.5395690000000  0.4851790000000  0.5112580000000 1.0
C      1  0.5088550000000  0.4862960000000  0.4623140000000 1.0
C      1  0.4615700000000  0.4827250000000  0.4891340000000 1.0
C      1  0.4915720000000  0.4909470000000  0.5475290000000 1.0
C      1  0.5085260000000  0.5197900000000  0.4252130000000 1.0
C      1  0.4302340000000  0.5194950000000  0.4878590000000 1.0
C      1  0.4815590000000  0.5285140000000  0.5805130000000 1.0
C      1  0.5749300000000  0.5196810000000  0.5114680000000 1.0
C      1  0.5127810000000  0.4861320000000  0.4301270000000 1.0
C      1  0.4310590000000  0.4827830000000  0.4843880000000 1.0
C      1  0.4840050000000  0.4942500000000  0.5803570000000 1.0
C      1  0.5722600000000  0.4858030000000  0.5136330000000 1.0
C      1  0.4357150000000  0.4865200000000  0.5432880000000 1.0
C      1  0.5459630000000  0.4831250000000  0.5635390000000 1.0
C      1  0.5624630000000  0.4870170000000  0.4507040000000 1.0
C      1  0.4518220000000  0.4851170000000  0.4329590000000 1.0
C      1  0.4320150000000  0.5189000000000  0.5405270000000 1.0
C      1  0.5411190000000  0.5154250000000  0.5657630000000 1.0
C      1  0.5647440000000  0.5199830000000  0.4533120000000 1.0
C      1  0.4553590000000  0.5180780000000  0.4307900000000 1.0
C      1  0.5049490000000  0.4482450000000  0.4445840000000 1.0
C      1  0.4466870000000  0.4457840000000  0.4898070000000 1.0
C      1  0.4942580000000  0.4442480000000  0.5524960000000 1.0
C      1  0.5542700000000  0.4490100000000  0.5028160000000 1.0
C      1  0.5062050000000  0.5537790000000  0.4465800000000 1.0
C      1  0.4553320000000  0.5504050000000  0.4899970000000 1.0
C      1  0.4913010000000  0.5575690000000  0.5577640000000 1.0
C      1  0.5548770000000  0.5531490000000  0.5053580000000 1.0
C      1  0.5440420000000  0.4804730000000  0.4251970000000 1.0
C      1  0.4269480000000  0.4800610000000  0.4527320000000 1.0
C      1  0.4574810000000  0.4817440000000  0.5661030000000 1.0
C      1  0.5707920000000  0.4780850000000  0.5446810000000 1.0
C      1  0.5413750000000  0.5140620000000  0.4302200000000 1.0
C      1  0.4353270000000  0.5128480000000  0.4564200000000 1.0
C      1  0.4546820000000  0.5156710000000  0.5638090000000 1.0
C      1  0.5649070000000  0.5117630000000  0.5430680000000 1.0
C      1  0.4733880000000  0.4312020000000  0.4996250000000 1.0
C      1  0.4918050000000  0.4289720000000  0.5274760000000 1.0
C      1  0.5274970000000  0.4335750000000  0.5109280000000 1.0
C      1  0.5048540000000  0.4323270000000  0.4713600000000 1.0
C      1  0.4760340000000  0.5706620000000  0.4952730000000 1.0
C      1  0.4876770000000  0.5673840000000  0.5267180000000 1.0
C      1  0.5271180000000  0.5647910000000  0.5156160000000 1.0
C      1  0.5017030000000  0.5665100000000  0.4745850000000 1.0
C      1  0.5076570000000  0.4642040000000  0.4807640000000 1.0
C      1  0.4813230000000  0.4635940000000  0.4973970000000 1.0
C      1  0.4925960000000  0.4725570000000  0.5248070000000 1.0
C      1  0.5189090000000  0.4656310000000  0.5102980000000 1.0
C      1  0.5049600000000  0.5329790000000  0.4803490000000 1.0
C      1  0.4830490000000  0.5234130000000  0.4998550000000 1.0
C      1  0.4944220000000  0.5349180000000  0.5256260000000 1.0
C      1  0.5211610000000  0.5322300000000  0.5079270000000 1.0
C      1  0.5551770000000  0.4649790000000  0.4759420000000 1.0
C      1  0.4770380000000  0.4629940000000  0.4399570000000 1.0
C      1  0.4414080000000  0.4639330000000  0.5181160000000 1.0
C      1  0.5216140000000  0.4598170000000  0.5574660000000 1.0
C      1  0.5552510000000  0.5471300000000  0.4718670000000 1.0
C      1  0.4779010000000  0.5427720000000  0.4385490000000 1.0
C      1  0.4427260000000  0.5425580000000  0.5181420000000 1.0
C      1  0.5222070000000  0.5431020000000  0.5585640000000 1.0
C      1  0.4138340000000  0.5244660000000  0.5140490000000 1.0
C      1  0.5138180000000  0.5204110000000  0.5829270000000 1.0
C      1  0.5806400000000  0.5268020000000  0.4818200000000 1.0
C      1  0.4807560000000  0.5233540000000  0.4106760000000 1.0
C      1  0.4202290000000  0.4909840000000  0.5138890000000 1.0
C      1  0.5164750000000  0.4866010000000  0.5782990000000 1.0
C      1  0.5741230000000  0.4933290000000  0.4814580000000 1.0
C      1  0.4819670000000  0.4904790000000  0.4195240000000 1.0
C      1  0.4505160000000  0.4569640000000  0.4608820000000 1.0
C      1  0.4659630000000  0.4607850000000  0.5419410000000 1.0
C      1  0.5476760000000  0.4547610000000  0.5357490000000 1.0
C      1  0.5346200000000  0.4587890000000  0.4492910000000 1.0
C      1  0.4561140000000  0.5387850000000  0.4645840000000 1.0
C      1  0.4617700000000  0.5444150000000  0.5465850000000 1.0
C      1  0.5486660000000  0.5413410000000  0.5367570000000 1.0
C      1  0.5331560000000  0.5430580000000  0.4462310000000 1.0
C      1  0.5061480000000  0.5838160000000  0.5032600000000 1.0
C      1  0.5036780000000  0.4153410000000  0.4986600000000 1.0
END
