TITL C-2782231-7322-987 -0.00233663223802161 125000 -495.780539859422 0 0 84 (C2) n - 1
REM
REM in /home/nfs/bkarasulu/CARBON/AIRSS/Generating-Clusters/REBO/Higher-Symm/SD-CG/HFTN-CG
REM
REM
REM
REM
REM
REM ./C.cell (12c818d87b63d06a65506943cc24bca4)
REM
REM compiler GCC version 9.2.1 20190827 (Red Hat 9.2.1-1)
REM options -cpp -mtune=generic -march=x86-64 -g -O0 -fpre-include=/usr/include/finclude/math-vector-fortran.h
REM seed -700069555 -396061233 805844326 -1097263971 1012639033 -784732554 -1816602711 147772069 -1312020581 -1145668034 1784225702 -366549698 1388979148 811050380 -1654756823 -1856398366 -1802409358 -725903570 -2027977236 637824902 583512575 767015416 -806737847 2140463516 -1808138226 -849786072 231672780 667225304 -2008541927 -1249668990 1806618860 -68616102 -237110155
REM
CELL 1.54180   50.00000   50.00000   50.00000   90.00000   90.00000   90.00000
LATT -1
SFAC C  
C      1  0.4499090000000  0.4350570000000  0.5248670000000 1.0
C      1  0.5024470000000  0.4325250000000  0.4436980000000 1.0
C      1  0.5446350000000  0.4389280000000  0.5285090000000 1.0
C      1  0.4522870000000  0.5637160000000  0.5264340000000 1.0
C      1  0.5017040000000  0.5626430000000  0.4462350000000 1.0
C      1  0.5484970000000  0.5683880000000  0.5303570000000 1.0
C      1  0.4494640000000  0.4316120000000  0.4731740000000 1.0
C      1  0.5009550000000  0.4362850000000  0.5545400000000 1.0
C      1  0.5457120000000  0.4373560000000  0.4716500000000 1.0
C      1  0.4529980000000  0.5610720000000  0.4755910000000 1.0
C      1  0.5035040000000  0.5649440000000  0.5558120000000 1.0
C      1  0.5475400000000  0.5674730000000  0.4697340000000 1.0
C      1  0.4803140000000  0.4740120000000  0.5599950000000 1.0
C      1  0.4558310000000  0.4729630000000  0.4518860000000 1.0
C      1  0.5607100000000  0.4746930000000  0.4857940000000 1.0
C      1  0.4823290000000  0.5260760000000  0.5608150000000 1.0
C      1  0.4576570000000  0.5247790000000  0.4545120000000 1.0
C      1  0.5634470000000  0.5267300000000  0.4861230000000 1.0
C      1  0.4803020000000  0.4732680000000  0.4381130000000 1.0
C      1  0.4561610000000  0.4739260000000  0.5457050000000 1.0
C      1  0.5605630000000  0.4752210000000  0.5139350000000 1.0
C      1  0.4819570000000  0.5253050000000  0.4403170000000 1.0
C      1  0.4578800000000  0.5259900000000  0.5470390000000 1.0
C      1  0.5637510000000  0.5270360000000  0.5142030000000 1.0
C      1  0.4723810000000  0.4523320000000  0.4818410000000 1.0
C      1  0.5239510000000  0.4577350000000  0.4843050000000 1.0
C      1  0.4958530000000  0.4551550000000  0.5283550000000 1.0
C      1  0.4762140000000  0.5413940000000  0.4866800000000 1.0
C      1  0.5290240000000  0.5470420000000  0.4862550000000 1.0
C      1  0.5030610000000  0.5439860000000  0.5314080000000 1.0
C      1  0.4712660000000  0.4560150000000  0.5130500000000 1.0
C      1  0.5234260000000  0.4586060000000  0.5139430000000 1.0
C      1  0.4973950000000  0.4529570000000  0.4679930000000 1.0
C      1  0.4775150000000  0.5448460000000  0.5177650000000 1.0
C      1  0.5295340000000  0.5476680000000  0.5148420000000 1.0
C      1  0.5016210000000  0.5422640000000  0.4714090000000 1.0
C      1  0.4272340000000  0.4836410000000  0.4647120000000 1.0
C      1  0.5656600000000  0.4858520000000  0.4545960000000 1.0
C      1  0.5057220000000  0.4847670000000  0.5789900000000 1.0
C      1  0.4282970000000  0.5139030000000  0.4664570000000 1.0
C      1  0.5662580000000  0.5161740000000  0.4549020000000 1.0
C      1  0.5067100000000  0.5150460000000  0.5803270000000 1.0
C      1  0.4270740000000  0.4849560000000  0.5343420000000 1.0
C      1  0.5648940000000  0.4860970000000  0.5453350000000 1.0
C      1  0.5059380000000  0.4838230000000  0.4200720000000 1.0
C      1  0.4287270000000  0.5152360000000  0.5345290000000 1.0
C      1  0.5669370000000  0.5163590000000  0.5453820000000 1.0
C      1  0.5065020000000  0.5141460000000  0.4204350000000 1.0
C      1  0.5208330000000  0.4576270000000  0.4330210000000 1.0
C      1  0.5455010000000  0.4604960000000  0.5511340000000 1.0
C      1  0.4313970000000  0.4588490000000  0.5138320000000 1.0
C      1  0.5209620000000  0.5400840000000  0.4349130000000 1.0
C      1  0.5487420000000  0.5430800000000  0.5520630000000 1.0
C      1  0.4322720000000  0.5412290000000  0.5160260000000 1.0
C      1  0.5199750000000  0.4587730000000  0.5666710000000 1.0
C      1  0.5458930000000  0.4599140000000  0.4493100000000 1.0
C      1  0.4305430000000  0.4569210000000  0.4838120000000 1.0
C      1  0.5223140000000  0.5411530000000  0.5663300000000 1.0
C      1  0.5475960000000  0.5423710000000  0.4484740000000 1.0
C      1  0.4329680000000  0.5395050000000  0.4861510000000 1.0
C      1  0.5003510000000  0.4133160000000  0.4701230000000 1.0
C      1  0.5249780000000  0.4186540000000  0.5149030000000 1.0
C      1  0.4739480000000  0.4159730000000  0.5147980000000 1.0
C      1  0.4996570000000  0.5821990000000  0.4709180000000 1.0
C      1  0.5260590000000  0.5873150000000  0.5151310000000 1.0
C      1  0.4741440000000  0.5843990000000  0.5153600000000 1.0
C      1  0.4996200000000  0.4156020000000  0.5300750000000 1.0
C      1  0.5253580000000  0.4178000000000  0.4857620000000 1.0
C      1  0.4738680000000  0.4126850000000  0.4849970000000 1.0
C      1  0.5002080000000  0.5840280000000  0.5299580000000 1.0
C      1  0.5257020000000  0.5866830000000  0.4847580000000 1.0
C      1  0.4746080000000  0.5813460000000  0.4858140000000 1.0
C      1  0.5042490000000  0.4832120000000  0.5392750000000 1.0
C      1  0.4620000000000  0.4814440000000  0.4836250000000 1.0
C      1  0.5319260000000  0.4873090000000  0.4753520000000 1.0
C      1  0.5061300000000  0.5135380000000  0.5407880000000 1.0
C      1  0.4636690000000  0.5117940000000  0.4843630000000 1.0
C      1  0.5327910000000  0.5177480000000  0.4761710000000 1.0
C      1  0.5042460000000  0.4822510000000  0.4596880000000 1.0
C      1  0.4616100000000  0.4864630000000  0.5150800000000 1.0
C      1  0.5317040000000  0.4882060000000  0.5236500000000 1.0
C      1  0.5053880000000  0.5126900000000  0.4600280000000 1.0
C      1  0.4638600000000  0.5167890000000  0.5159530000000 1.0
C      1  0.5331780000000  0.5185560000000  0.5247250000000 1.0
END
