TITL C-2782226-7400-1294 -0.00503383396106787 125000 -1119.97017825072 0 0 191 (C1) n - 1
REM
REM in /home/nfs/bkarasulu/CARBON/AIRSS/Generating-Clusters/REBO/Higher-Symm/SD-CG/HFTN-CG
REM
REM
REM
REM
REM
REM ./C.cell (12c818d87b63d06a65506943cc24bca4)
REM
REM compiler GCC version 9.2.1 20190827 (Red Hat 9.2.1-1)
REM options -cpp -mtune=generic -march=x86-64 -g -O0 -fpre-include=/usr/include/finclude/math-vector-fortran.h
REM seed -598129931 350374149 -1076581825 789205404 -173700691 656514051 -1313351301 1932724279 1334943158 -1636450739 -468640800 -1276129073 -924965959 2019402466 -695558081 -928473792 -1359249372 -1131745831 244123473 -1311748342 2043343152 -342678552 1059639567 -79915939 1841120801 1224587342 617936876 -884353398 -325901558 1714188872 -1255944999 279487111 583928248
REM
CELL 1.54180   50.00000   50.00000   50.00000   90.00000   90.00000   90.00000
LATT -1
SFAC C  
C      1  0.4541070000000  0.5956950000000  0.4701040000000 1.0
C      1  0.5566350000000  0.5235560000000  0.4233460000000 1.0
C      1  0.4317760000000  0.5806290000000  0.4883930000000 1.0
C      1  0.4917630000000  0.4250740000000  0.5858430000000 1.0
C      1  0.4333620000000  0.5513560000000  0.5301440000000 1.0
C      1  0.4728600000000  0.5390950000000  0.5572730000000 1.0
C      1  0.5786460000000  0.4893090000000  0.4868180000000 1.0
C      1  0.5433870000000  0.5703330000000  0.4749610000000 1.0
C      1  0.5166210000000  0.5614250000000  0.5870920000000 1.0
C      1  0.4530020000000  0.5578900000000  0.5752000000000 1.0
C      1  0.5951990000000  0.5009020000000  0.5154660000000 1.0
C      1  0.4071530000000  0.4553430000000  0.4436650000000 1.0
C      1  0.4531200000000  0.4160610000000  0.4837260000000 1.0
C      1  0.4056420000000  0.4300920000000  0.4967500000000 1.0
C      1  0.4754640000000  0.4987840000000  0.4122070000000 1.0
C      1  0.5352540000000  0.5778200000000  0.5728220000000 1.0
C      1  0.5843530000000  0.5310480000000  0.5043780000000 1.0
C      1  0.5767870000000  0.5407570000000  0.4532930000000 1.0
C      1  0.4146580000000  0.5583770000000  0.4706960000000 1.0
C      1  0.4609120000000  0.5532430000000  0.4217810000000 1.0
C      1  0.5410430000000  0.4307700000000  0.4285190000000 1.0
C      1  0.4252090000000  0.5013730000000  0.4978950000000 1.0
C      1  0.3985080000000  0.4421540000000  0.4682320000000 1.0
C      1  0.4410720000000  0.4037350000000  0.5381220000000 1.0
C      1  0.5844600000000  0.5014950000000  0.5838630000000 1.0
C      1  0.5440600000000  0.5529040000000  0.4183390000000 1.0
C      1  0.5043670000000  0.4981590000000  0.4507540000000 1.0
C      1  0.5693390000000  0.4100140000000  0.5418940000000 1.0
C      1  0.5830150000000  0.4261650000000  0.5229920000000 1.0
C      1  0.5574780000000  0.5442950000000  0.4878940000000 1.0
C      1  0.4867470000000  0.4267730000000  0.4458290000000 1.0
C      1  0.4851790000000  0.5760910000000  0.4143810000000 1.0
C      1  0.4775070000000  0.4684550000000  0.3994820000000 1.0
C      1  0.4245240000000  0.4542190000000  0.5247930000000 1.0
C      1  0.5624270000000  0.4128440000000  0.4568010000000 1.0
C      1  0.5270120000000  0.5780450000000  0.4459600000000 1.0
C      1  0.5484380000000  0.5244300000000  0.4629880000000 1.0
C      1  0.4663990000000  0.4406160000000  0.4995070000000 1.0
C      1  0.5106700000000  0.4303010000000  0.4666760000000 1.0
C      1  0.5269900000000  0.4420080000000  0.5506510000000 1.0
C      1  0.5358890000000  0.4104100000000  0.4778770000000 1.0
C      1  0.4682450000000  0.4486070000000  0.5320100000000 1.0
C      1  0.4824260000000  0.5064270000000  0.4754370000000 1.0
C      1  0.4503600000000  0.4444500000000  0.5612080000000 1.0
C      1  0.5993090000000  0.5450370000000  0.5490870000000 1.0
C      1  0.4601470000000  0.5164510000000  0.4996380000000 1.0
C      1  0.3911070000000  0.4580480000000  0.5039400000000 1.0
C      1  0.5226880000000  0.5453310000000  0.5074190000000 1.0
C      1  0.5097530000000  0.5764470000000  0.4815870000000 1.0
C      1  0.4321500000000  0.4801940000000  0.5968690000000 1.0
C      1  0.4689130000000  0.3947280000000  0.5504400000000 1.0
C      1  0.4744890000000  0.5690350000000  0.5113720000000 1.0
C      1  0.5565630000000  0.4955820000000  0.5091370000000 1.0
C      1  0.5241740000000  0.5128350000000  0.3892250000000 1.0
C      1  0.5618240000000  0.4407350000000  0.4752690000000 1.0
C      1  0.5119960000000  0.3877610000000  0.5198550000000 1.0
C      1  0.4518770000000  0.3924970000000  0.5017660000000 1.0
C      1  0.4902980000000  0.5362970000000  0.4175720000000 1.0
C      1  0.5315560000000  0.4045590000000  0.4445110000000 1.0
C      1  0.4688630000000  0.5861770000000  0.4424890000000 1.0
C      1  0.5717890000000  0.4556250000000  0.5216520000000 1.0
C      1  0.5658000000000  0.4705270000000  0.5443380000000 1.0
C      1  0.5539490000000  0.5188660000000  0.5434360000000 1.0
C      1  0.5698190000000  0.4723790000000  0.4331920000000 1.0
C      1  0.3987950000000  0.4686750000000  0.5322850000000 1.0
C      1  0.4780650000000  0.5424180000000  0.4948460000000 1.0
C      1  0.5913320000000  0.5285400000000  0.5845540000000 1.0
C      1  0.5694480000000  0.5906700000000  0.4424540000000 1.0
C      1  0.4787820000000  0.4715060000000  0.5677910000000 1.0
C      1  0.5137960000000  0.5685160000000  0.4175890000000 1.0
C      1  0.4609970000000  0.4787710000000  0.5429790000000 1.0
C      1  0.5086540000000  0.4681470000000  0.4541560000000 1.0
C      1  0.5307290000000  0.5894340000000  0.5452290000000 1.0
C      1  0.4625030000000  0.4988330000000  0.4386430000000 1.0
C      1  0.4670560000000  0.5244460000000  0.3950300000000 1.0
C      1  0.5285150000000  0.6097730000000  0.4418060000000 1.0
C      1  0.4835490000000  0.4432470000000  0.4188790000000 1.0
C      1  0.5815080000000  0.5537820000000  0.5837760000000 1.0
C      1  0.4757200000000  0.5442460000000  0.4646480000000 1.0
C      1  0.4220660000000  0.5460220000000  0.5680410000000 1.0
C      1  0.5359920000000  0.4725250000000  0.5163690000000 1.0
C      1  0.3936370000000  0.5057870000000  0.4599220000000 1.0
C      1  0.4244980000000  0.4828760000000  0.4701540000000 1.0
C      1  0.5030470000000  0.4713250000000  0.6063830000000 1.0
C      1  0.4972650000000  0.4365740000000  0.5365740000000 1.0
C      1  0.4908200000000  0.5160610000000  0.5748800000000 1.0
C      1  0.5194510000000  0.3945350000000  0.5602420000000 1.0
C      1  0.5272860000000  0.5343530000000  0.5898330000000 1.0
C      1  0.4918750000000  0.3996190000000  0.5688940000000 1.0
C      1  0.4709240000000  0.4788280000000  0.4607000000000 1.0
C      1  0.4307200000000  0.5020210000000  0.4454970000000 1.0
C      1  0.4972590000000  0.5386060000000  0.5231740000000 1.0
C      1  0.4402890000000  0.4822470000000  0.4024020000000 1.0
C      1  0.5410170000000  0.5959840000000  0.4962410000000 1.0
C      1  0.5031240000000  0.4013430000000  0.4402570000000 1.0
C      1  0.5377600000000  0.4180570000000  0.5654210000000 1.0
C      1  0.5230540000000  0.5126020000000  0.4828770000000 1.0
C      1  0.5965300000000  0.5682050000000  0.4965270000000 1.0
C      1  0.4393470000000  0.4709650000000  0.5047870000000 1.0
C      1  0.4512200000000  0.5243850000000  0.6037720000000 1.0
C      1  0.6179540000000  0.5169950000000  0.4748660000000 1.0
C      1  0.4345420000000  0.5746440000000  0.5542830000000 1.0
C      1  0.4560390000000  0.5299200000000  0.5311330000000 1.0
C      1  0.3930280000000  0.4791420000000  0.4824230000000 1.0
C      1  0.5175430000000  0.6242960000000  0.4625230000000 1.0
C      1  0.4900130000000  0.4450140000000  0.5653150000000 1.0
C      1  0.5317180000000  0.4902000000000  0.4124130000000 1.0
C      1  0.6091630000000  0.4600260000000  0.4831690000000 1.0
C      1  0.5667540000000  0.4726280000000  0.4650250000000 1.0
C      1  0.5525030000000  0.4680610000000  0.5917450000000 1.0
C      1  0.5673720000000  0.4240790000000  0.5690330000000 1.0
C      1  0.4771860000000  0.5862810000000  0.5614000000000 1.0
C      1  0.5855410000000  0.5818140000000  0.5139730000000 1.0
C      1  0.4436070000000  0.5775480000000  0.5156700000000 1.0
C      1  0.4850220000000  0.5641130000000  0.5859800000000 1.0
C      1  0.5732010000000  0.4388300000000  0.4372900000000 1.0
C      1  0.5641830000000  0.5653030000000  0.4385680000000 1.0
C      1  0.4337940000000  0.4834500000000  0.5503850000000 1.0
C      1  0.5809710000000  0.5319610000000  0.5354740000000 1.0
C      1  0.5434350000000  0.4627420000000  0.4187790000000 1.0
C      1  0.5333890000000  0.4927460000000  0.5507380000000 1.0
C      1  0.5460460000000  0.5249460000000  0.5129540000000 1.0
C      1  0.4992880000000  0.4653630000000  0.4868580000000 1.0
C      1  0.5407130000000  0.4659060000000  0.5622100000000 1.0
C      1  0.4958940000000  0.4154410000000  0.5145720000000 1.0
C      1  0.5903540000000  0.5263270000000  0.4282760000000 1.0
C      1  0.4392170000000  0.5714850000000  0.4508070000000 1.0
C      1  0.4523760000000  0.5279480000000  0.4515590000000 1.0
C      1  0.4792720000000  0.6063520000000  0.5246250000000 1.0
C      1  0.5603310000000  0.4950140000000  0.5987480000000 1.0
C      1  0.4994640000000  0.5303340000000  0.4471160000000 1.0
C      1  0.4317900000000  0.4423440000000  0.4354840000000 1.0
C      1  0.4758910000000  0.5337920000000  0.5966970000000 1.0
C      1  0.5075730000000  0.4378560000000  0.4979600000000 1.0
C      1  0.4034610000000  0.5146350000000  0.5196360000000 1.0
C      1  0.4936490000000  0.4879990000000  0.5861600000000 1.0
C      1  0.4975530000000  0.5035380000000  0.5041010000000 1.0
C      1  0.5028820000000  0.4886200000000  0.3967990000000 1.0
C      1  0.4050430000000  0.4984260000000  0.5458460000000 1.0
C      1  0.5579610000000  0.5917620000000  0.5244880000000 1.0
C      1  0.5135090000000  0.4508770000000  0.4286510000000 1.0
C      1  0.5103840000000  0.4885620000000  0.5288220000000 1.0
C      1  0.4035000000000  0.4835950000000  0.4366500000000 1.0
C      1  0.4328450000000  0.4326070000000  0.5411030000000 1.0
C      1  0.5321950000000  0.5711950000000  0.5168210000000 1.0
C      1  0.4943840000000  0.5695930000000  0.4526620000000 1.0
C      1  0.6027430000000  0.4787040000000  0.5318480000000 1.0
C      1  0.6034940000000  0.4516620000000  0.5124920000000 1.0
C      1  0.4776500000000  0.3894750000000  0.5199340000000 1.0
C      1  0.5145760000000  0.6098980000000  0.4856600000000 1.0
C      1  0.5325400000000  0.4415890000000  0.5186150000000 1.0
C      1  0.5787170000000  0.4974600000000  0.4211300000000 1.0
C      1  0.4130680000000  0.5281490000000  0.4775420000000 1.0
C      1  0.4511970000000  0.4536100000000  0.4153930000000 1.0
C      1  0.4404810000000  0.4563630000000  0.4736320000000 1.0
C      1  0.4327380000000  0.5452800000000  0.4319770000000 1.0
C      1  0.5142440000000  0.5432870000000  0.4749390000000 1.0
C      1  0.5969870000000  0.5419390000000  0.4762890000000 1.0
C      1  0.4866950000000  0.5642880000000  0.5401540000000 1.0
C      1  0.5182730000000  0.5393450000000  0.4013580000000 1.0
C      1  0.5000720000000  0.4431020000000  0.6080560000000 1.0
C      1  0.4469110000000  0.4618320000000  0.5832860000000 1.0
C      1  0.5938200000000  0.4441890000000  0.4641880000000 1.0
C      1  0.4713140000000  0.4999790000000  0.5257710000000 1.0
C      1  0.6103870000000  0.4911830000000  0.4798920000000 1.0
C      1  0.4205220000000  0.5258550000000  0.4115740000000 1.0
C      1  0.4699030000000  0.4736040000000  0.4943120000000 1.0
C      1  0.5430530000000  0.5171020000000  0.6066990000000 1.0
C      1  0.4711390000000  0.5574600000000  0.3895630000000 1.0
C      1  0.4525140000000  0.5982830000000  0.5414010000000 1.0
C      1  0.5283400000000  0.5229200000000  0.5630540000000 1.0
C      1  0.5750740000000  0.4506660000000  0.5774860000000 1.0
C      1  0.5028550000000  0.5170970000000  0.5430950000000 1.0
C      1  0.4077400000000  0.5419760000000  0.5244170000000 1.0
C      1  0.3865530000000  0.5095800000000  0.4930390000000 1.0
C      1  0.4155300000000  0.5186180000000  0.5711360000000 1.0
C      1  0.4299780000000  0.5079290000000  0.5934450000000 1.0
C      1  0.5622960000000  0.5722470000000  0.5792540000000 1.0
C      1  0.4719150000000  0.4460490000000  0.4656390000000 1.0
C      1  0.4390870000000  0.5092560000000  0.3994030000000 1.0
C      1  0.5341280000000  0.4537780000000  0.4714930000000 1.0
C      1  0.5265660000000  0.4824710000000  0.4866970000000 1.0
C      1  0.5423170000000  0.3928980000000  0.5348720000000 1.0
C      1  0.5912740000000  0.4777090000000  0.5638900000000 1.0
C      1  0.4732790000000  0.5981880000000  0.4950430000000 1.0
C      1  0.5321290000000  0.5086620000000  0.4392200000000 1.0
C      1  0.5035200000000  0.6045080000000  0.5370200000000 1.0
C      1  0.5347890000000  0.4101230000000  0.5071220000000 1.0
C      1  0.4389290000000  0.4249110000000  0.4595440000000 1.0
C      1  0.3888720000000  0.5680320000000  0.4635760000000 1.0
C      1  0.4235060000000  0.4098700000000  0.5095920000000 1.0
END
