TITL C-2782233-7966-558 -0.000292511433492176 125000 -452.852511797544 0 0 78 (D6) n - 1
REM
REM in /home/nfs/bkarasulu/CARBON/AIRSS/Generating-Clusters/REBO/Higher-Symm/SD-CG/HFTN-CG
REM
REM
REM
REM
REM
REM ./C.cell (12c818d87b63d06a65506943cc24bca4)
REM
REM compiler GCC version 9.2.1 20190827 (Red Hat 9.2.1-1)
REM options -cpp -mtune=generic -march=x86-64 -g -O0 -fpre-include=/usr/include/finclude/math-vector-fortran.h
REM seed -1989610030 204979219 1993717017 1673309061 963612893 -1121009997 1491301699 1412485321 -1408845880 -256640890 -1483037468 1061044207 -189977881 461218442 -1587791226 1222596236 -1875277605 -1089206071 -597572826 855170490 275947748 -2021440693 1832719660 -1649869810 -343027990 -1505826766 774947016 2005914604 552062330 -1738178485 970991088 -829187038 1285307194
REM
CELL 1.54180   50.00000   50.00000   50.00000   90.00000   90.00000   90.00000
LATT -1
SFAC C  
C      1  0.4969260000000  0.5821890000000  0.4658570000000 1.0
C      1  0.4272780000000  0.5384310000000  0.4658710000000 1.0
C      1  0.4303500000000  0.4562340000000  0.4658880000000 1.0
C      1  0.5030700000000  0.4177970000000  0.4658930000000 1.0
C      1  0.5727180000000  0.4615550000000  0.4658790000000 1.0
C      1  0.5696460000000  0.5437510000000  0.4658620000000 1.0
C      1  0.5029980000000  0.5822060000000  0.5311110000000 1.0
C      1  0.5726860000000  0.5385120000000  0.5311160000000 1.0
C      1  0.5696900000000  0.4563130000000  0.5311340000000 1.0
C      1  0.4970050000000  0.4178080000000  0.5311460000000 1.0
C      1  0.4273170000000  0.4615020000000  0.5311410000000 1.0
C      1  0.4303140000000  0.5437010000000  0.5311230000000 1.0
C      1  0.5456330000000  0.4653900000000  0.4839940000000 1.0
C      1  0.5527870000000  0.5222130000000  0.4839820000000 1.0
C      1  0.5071530000000  0.5568200000000  0.4839770000000 1.0
C      1  0.4543650000000  0.5346040000000  0.4839840000000 1.0
C      1  0.4472120000000  0.4777800000000  0.4839970000000 1.0
C      1  0.4928450000000  0.4431730000000  0.4840020000000 1.0
C      1  0.4543990000000  0.4653540000000  0.5130240000000 1.0
C      1  0.4471930000000  0.5221710000000  0.5130120000000 1.0
C      1  0.4927950000000  0.5568200000000  0.5130020000000 1.0
C      1  0.5456030000000  0.5346520000000  0.5130040000000 1.0
C      1  0.5528090000000  0.4778350000000  0.5130160000000 1.0
C      1  0.5072070000000  0.4431860000000  0.5130260000000 1.0
C      1  0.5294690000000  0.5154610000000  0.5620600000000 1.0
C      1  0.5013580000000  0.5332550000000  0.5620570000000 1.0
C      1  0.4718930000000  0.5178080000000  0.5620620000000 1.0
C      1  0.4705380000000  0.4845660000000  0.5620690000000 1.0
C      1  0.4986490000000  0.4667720000000  0.5620720000000 1.0
C      1  0.5281140000000  0.4822200000000  0.5620670000000 1.0
C      1  0.4705170000000  0.5154070000000  0.4349370000000 1.0
C      1  0.4986110000000  0.5332270000000  0.4349320000000 1.0
C      1  0.5280910000000  0.5178060000000  0.4349340000000 1.0
C      1  0.5294760000000  0.4845660000000  0.4349410000000 1.0
C      1  0.5013820000000  0.4667460000000  0.4349460000000 1.0
C      1  0.4719020000000  0.4821670000000  0.4349440000000 1.0
C      1  0.5545680000000  0.4980490000000  0.5490440000000 1.0
C      1  0.5289850000000  0.5462850000000  0.5490350000000 1.0
C      1  0.4744190000000  0.5482470000000  0.5490380000000 1.0
C      1  0.4454370000000  0.5019730000000  0.5490490000000 1.0
C      1  0.4710210000000  0.4537370000000  0.5490580000000 1.0
C      1  0.5255860000000  0.4517750000000  0.5490560000000 1.0
C      1  0.4454330000000  0.4979770000000  0.4479600000000 1.0
C      1  0.4709730000000  0.5462370000000  0.4479490000000 1.0
C      1  0.5255360000000  0.5482490000000  0.4479450000000 1.0
C      1  0.5545610000000  0.5020010000000  0.4479540000000 1.0
C      1  0.5290220000000  0.4537420000000  0.4479650000000 1.0
C      1  0.4744580000000  0.4517290000000  0.4479690000000 1.0
C      1  0.4720140000000  0.5664490000000  0.4674860000000 1.0
C      1  0.4284540000000  0.5089860000000  0.4675010000000 1.0
C      1  0.4564380000000  0.4425310000000  0.4675140000000 1.0
C      1  0.5279820000000  0.4335380000000  0.4675120000000 1.0
C      1  0.5715420000000  0.4910010000000  0.4674970000000 1.0
C      1  0.5435580000000  0.5574560000000  0.4674840000000 1.0
C      1  0.5279250000000  0.5664880000000  0.5294890000000 1.0
C      1  0.5715370000000  0.5090650000000  0.5294990000000 1.0
C      1  0.5436150000000  0.4425840000000  0.5295150000000 1.0
C      1  0.4720790000000  0.4335260000000  0.5295210000000 1.0
C      1  0.4284660000000  0.4909480000000  0.5295110000000 1.0
C      1  0.4563890000000  0.5574290000000  0.5294950000000 1.0
C      1  0.5258220000000  0.4891150000000  0.5227700000000 1.0
C      1  0.5223420000000  0.5169210000000  0.5227640000000 1.0
C      1  0.4965220000000  0.5278110000000  0.5227630000000 1.0
C      1  0.4741810000000  0.5108950000000  0.5227680000000 1.0
C      1  0.4776600000000  0.4830890000000  0.5227740000000 1.0
C      1  0.5034810000000  0.4721990000000  0.5227750000000 1.0
C      1  0.4741890000000  0.4890810000000  0.4742380000000 1.0
C      1  0.4776420000000  0.5168900000000  0.4742320000000 1.0
C      1  0.5034520000000  0.5278040000000  0.4742280000000 1.0
C      1  0.5258090000000  0.5109080000000  0.4742310000000 1.0
C      1  0.5223550000000  0.4830990000000  0.4742370000000 1.0
C      1  0.4965450000000  0.4721860000000  0.4742410000000 1.0
C      1  0.4646750000000  0.4387510000000  0.4985170000000 1.0
C      1  0.5353810000000  0.4387830000000  0.4985130000000 1.0
C      1  0.4646190000000  0.5612170000000  0.4984900000000 1.0
C      1  0.4292940000000  0.4999670000000  0.4985060000000 1.0
C      1  0.5707060000000  0.5000330000000  0.4984980000000 1.0
C      1  0.5353250000000  0.5612490000000  0.4984870000000 1.0
END
