TITL C-2782235-7892-621 -0.00180416930686075 125000 -782.560018003041 0 0 138 (C1) n - 1
REM
REM in /home/nfs/bkarasulu/CARBON/AIRSS/Generating-Clusters/REBO/Higher-Symm/SD-CG/HFTN-CG
REM
REM
REM
REM
REM
REM ./C.cell (12c818d87b63d06a65506943cc24bca4)
REM
REM compiler GCC version 9.2.1 20190827 (Red Hat 9.2.1-1)
REM options -cpp -mtune=generic -march=x86-64 -g -O0 -fpre-include=/usr/include/finclude/math-vector-fortran.h
REM seed -851630663 -1836419964 -1006937366 -1060430529 -1156256386 -994189719 -549560425 -2141190798 1846551018 49235366 1999828951 1506191077 -1506305600 -102136125 125886620 -261507898 -43636601 -1769976471 -677439269 263008239 -678981559 542486680 -461112929 -806772835 1770258023 974105800 1412627191 -1016174636 -206531847 962830719 1269283418 -1576642055 -435088964
REM
CELL 1.54180   50.00000   50.00000   50.00000   90.00000   90.00000   90.00000
LATT -1
SFAC C  
C      1  0.4098710000000  0.4468400000000  0.4755550000000 1.0
C      1  0.5857230000000  0.4725720000000  0.5436090000000 1.0
C      1  0.4068530000000  0.5548280000000  0.5299810000000 1.0
C      1  0.5963020000000  0.5317600000000  0.4505250000000 1.0
C      1  0.5797780000000  0.5595370000000  0.4640140000000 1.0
C      1  0.4341370000000  0.4606290000000  0.4524590000000 1.0
C      1  0.5626630000000  0.4496810000000  0.5319790000000 1.0
C      1  0.4249000000000  0.5446560000000  0.5570900000000 1.0
C      1  0.5234070000000  0.4661880000000  0.5191770000000 1.0
C      1  0.4680510000000  0.5113950000000  0.5163400000000 1.0
C      1  0.5306200000000  0.5358640000000  0.4707020000000 1.0
C      1  0.4792940000000  0.4873790000000  0.4663930000000 1.0
C      1  0.5069960000000  0.4733640000000  0.4206270000000 1.0
C      1  0.4912210000000  0.4138030000000  0.5345410000000 1.0
C      1  0.5079140000000  0.5334830000000  0.5826990000000 1.0
C      1  0.5000620000000  0.5820150000000  0.4677960000000 1.0
C      1  0.3989410000000  0.4876800000000  0.5137860000000 1.0
C      1  0.5888420000000  0.5142780000000  0.5073860000000 1.0
C      1  0.4045900000000  0.5130250000000  0.4917390000000 1.0
C      1  0.5938730000000  0.4909250000000  0.4851640000000 1.0
C      1  0.4295700000000  0.4719110000000  0.4822030000000 1.0
C      1  0.5619620000000  0.4807830000000  0.5207310000000 1.0
C      1  0.4272300000000  0.5294590000000  0.5202200000000 1.0
C      1  0.5680680000000  0.5296960000000  0.4666230000000 1.0
C      1  0.4692270000000  0.5236520000000  0.6170830000000 1.0
C      1  0.5411380000000  0.6117720000000  0.4654440000000 1.0
C      1  0.4631580000000  0.4599720000000  0.3972650000000 1.0
C      1  0.5417330000000  0.3904370000000  0.5393800000000 1.0
C      1  0.5029920000000  0.3995770000000  0.4782610000000 1.0
C      1  0.4987340000000  0.4761590000000  0.6021930000000 1.0
C      1  0.5042170000000  0.5988770000000  0.5261510000000 1.0
C      1  0.4954200000000  0.5288820000000  0.4091850000000 1.0
C      1  0.5433700000000  0.4655670000000  0.5747870000000 1.0
C      1  0.4499730000000  0.5783840000000  0.5442210000000 1.0
C      1  0.5594580000000  0.5360150000000  0.4132160000000 1.0
C      1  0.4559580000000  0.4215670000000  0.4692280000000 1.0
C      1  0.5761140000000  0.5726080000000  0.4940940000000 1.0
C      1  0.4350130000000  0.4866840000000  0.4338200000000 1.0
C      1  0.5678990000000  0.4313170000000  0.5071270000000 1.0
C      1  0.4379790000000  0.5142140000000  0.5555300000000 1.0
C      1  0.6100180000000  0.5364380000000  0.5035750000000 1.0
C      1  0.3855700000000  0.5094490000000  0.4677670000000 1.0
C      1  0.6146340000000  0.4704070000000  0.4936790000000 1.0
C      1  0.3726060000000  0.4918470000000  0.5287970000000 1.0
C      1  0.4905600000000  0.4464200000000  0.4886990000000 1.0
C      1  0.5015660000000  0.4859170000000  0.5546620000000 1.0
C      1  0.4805690000000  0.5646980000000  0.5228160000000 1.0
C      1  0.5273970000000  0.5212160000000  0.4318670000000 1.0
C      1  0.5427000000000  0.4705430000000  0.4417540000000 1.0
C      1  0.4574020000000  0.4481810000000  0.5320520000000 1.0
C      1  0.5394030000000  0.5203040000000  0.5440830000000 1.0
C      1  0.4606850000000  0.5481750000000  0.4777710000000 1.0
C      1  0.4245330000000  0.5008990000000  0.5271790000000 1.0
C      1  0.5605770000000  0.5243070000000  0.4968950000000 1.0
C      1  0.4327720000000  0.5003780000000  0.4880850000000 1.0
C      1  0.5640550000000  0.4848350000000  0.4929810000000 1.0
C      1  0.4469610000000  0.4867750000000  0.5696490000000 1.0
C      1  0.5636020000000  0.5720020000000  0.5184510000000 1.0
C      1  0.4431610000000  0.5125070000000  0.4316560000000 1.0
C      1  0.5606460000000  0.4273110000000  0.4807770000000 1.0
C      1  0.5278670000000  0.4918110000000  0.5379440000000 1.0
C      1  0.4628560000000  0.5419370000000  0.5079550000000 1.0
C      1  0.5457000000000  0.5009400000000  0.4483780000000 1.0
C      1  0.4643290000000  0.4579450000000  0.5020570000000 1.0
C      1  0.5019210000000  0.5426400000000  0.4739940000000 1.0
C      1  0.5061400000000  0.4699930000000  0.4604480000000 1.0
C      1  0.4962120000000  0.4534140000000  0.5323330000000 1.0
C      1  0.4904320000000  0.5207160000000  0.5385580000000 1.0
C      1  0.5332110000000  0.5831100000000  0.5290380000000 1.0
C      1  0.4697780000000  0.5228560000000  0.4204600000000 1.0
C      1  0.5334950000000  0.4123410000000  0.4697730000000 1.0
C      1  0.4673660000000  0.4698570000000  0.5906250000000 1.0
C      1  0.5326200000000  0.4818900000000  0.4020290000000 1.0
C      1  0.4670180000000  0.4040720000000  0.5169010000000 1.0
C      1  0.5292230000000  0.5161380000000  0.5907990000000 1.0
C      1  0.4729010000000  0.5941160000000  0.4825510000000 1.0
C      1  0.5358910000000  0.5524250000000  0.5390500000000 1.0
C      1  0.4634950000000  0.5444620000000  0.4437910000000 1.0
C      1  0.5412160000000  0.4368350000000  0.4474520000000 1.0
C      1  0.4577330000000  0.4486910000000  0.5662410000000 1.0
C      1  0.4756160000000  0.5045710000000  0.5648050000000 1.0
C      1  0.4987010000000  0.5644080000000  0.4968510000000 1.0
C      1  0.5064140000000  0.4984780000000  0.4418760000000 1.0
C      1  0.5080240000000  0.4304680000000  0.5100540000000 1.0
C      1  0.5550560000000  0.4818840000000  0.5544180000000 1.0
C      1  0.4397140000000  0.5611740000000  0.5239660000000 1.0
C      1  0.5693640000000  0.5187150000000  0.4339140000000 1.0
C      1  0.4414800000000  0.4398430000000  0.4858230000000 1.0
C      1  0.4442210000000  0.4212170000000  0.5220630000000 1.0
C      1  0.5529600000000  0.5175200000000  0.5734750000000 1.0
C      1  0.4493810000000  0.5779940000000  0.4776900000000 1.0
C      1  0.5603790000000  0.4795210000000  0.4153190000000 1.0
C      1  0.4791980000000  0.5963310000000  0.5102450000000 1.0
C      1  0.5173410000000  0.5080500000000  0.4038700000000 1.0
C      1  0.4809880000000  0.3950640000000  0.4930060000000 1.0
C      1  0.5192790000000  0.4928900000000  0.6038430000000 1.0
C      1  0.5326150000000  0.5224900000000  0.5127320000000 1.0
C      1  0.4529290000000  0.5170220000000  0.4706670000000 1.0
C      1  0.5479420000000  0.4649600000000  0.4749260000000 1.0
C      1  0.4455110000000  0.4791560000000  0.5305950000000 1.0
C      1  0.5774440000000  0.5257370000000  0.5541060000000 1.0
C      1  0.4227900000000  0.5591210000000  0.4730970000000 1.0
C      1  0.5820190000000  0.4761440000000  0.4394330000000 1.0
C      1  0.4184120000000  0.4422360000000  0.5290450000000 1.0
C      1  0.5949950000000  0.4979040000000  0.4555120000000 1.0
C      1  0.4038880000000  0.4562990000000  0.5078160000000 1.0
C      1  0.5886240000000  0.5054080000000  0.5371890000000 1.0
C      1  0.4085490000000  0.5454870000000  0.4970290000000 1.0
C      1  0.4856450000000  0.5172830000000  0.4809150000000 1.0
C      1  0.5205840000000  0.4620310000000  0.4889810000000 1.0
C      1  0.4780950000000  0.4822720000000  0.5318810000000 1.0
C      1  0.5058980000000  0.5199310000000  0.5082260000000 1.0
C      1  0.5302990000000  0.5878420000000  0.4636020000000 1.0
C      1  0.4770620000000  0.4641640000000  0.4190990000000 1.0
C      1  0.5244900000000  0.4141400000000  0.5348970000000 1.0
C      1  0.4780020000000  0.5265080000000  0.5885600000000 1.0
C      1  0.5367780000000  0.5523730000000  0.4283190000000 1.0
C      1  0.4810600000000  0.4350280000000  0.4615770000000 1.0
C      1  0.5150980000000  0.4592300000000  0.5670350000000 1.0
C      1  0.4749810000000  0.5651660000000  0.5559660000000 1.0
C      1  0.5689830000000  0.5489090000000  0.5391150000000 1.0
C      1  0.4320090000000  0.5371570000000  0.4524260000000 1.0
C      1  0.5720430000000  0.4486750000000  0.4568180000000 1.0
C      1  0.4284020000000  0.4618410000000  0.5551180000000 1.0
C      1  0.4906590000000  0.5588040000000  0.4474000000000 1.0
C      1  0.5110690000000  0.4469030000000  0.4381030000000 1.0
C      1  0.4853100000000  0.4345630000000  0.5569770000000 1.0
C      1  0.5078780000000  0.5427500000000  0.5538050000000 1.0
C      1  0.5464370000000  0.5618600000000  0.4569070000000 1.0
C      1  0.4676570000000  0.4611590000000  0.4480430000000 1.0
C      1  0.5334280000000  0.4435590000000  0.5429090000000 1.0
C      1  0.4574200000000  0.5400850000000  0.5667370000000 1.0
C      1  0.5065430000000  0.5765580000000  0.5504700000000 1.0
C      1  0.5060540000000  0.5532390000000  0.4219200000000 1.0
C      1  0.5060280000000  0.4180610000000  0.4504230000000 1.0
C      1  0.4923680000000  0.4471220000000  0.5859880000000 1.0
C      1  0.5402300000000  0.5040280000000  0.4783270000000 1.0
C      1  0.4635880000000  0.4875510000000  0.4952360000000 1.0
END
