TITL C-2782237-5345-1448 -0.00141058343656968 125000 -525.971464382232 0 0 91 (C1) n - 1
REM
REM in /home/nfs/bkarasulu/CARBON/AIRSS/Generating-Clusters/REBO/Higher-Symm/SD-CG/HFTN-CG
REM
REM
REM
REM
REM
REM ./C.cell (12c818d87b63d06a65506943cc24bca4)
REM
REM compiler GCC version 9.2.1 20190827 (Red Hat 9.2.1-1)
REM options -cpp -mtune=generic -march=x86-64 -g -O0 -fpre-include=/usr/include/finclude/math-vector-fortran.h
REM seed -799365734 -931657681 731522261 -1231472594 642279560 -1327897472 1821768311 -1406574637 1660695585 -790068507 67239353 1675783563 -284528840 -81195064 1218837104 -1577031193 56180217 148647018 -713806562 11301376 1655055845 393411270 1139209971 284555283 -1692539733 -668384866 -669205726 1814093205 -1475337553 2081218386 1067744105 -1056656148 -400509941
REM
CELL 1.54180   50.00000   50.00000   50.00000   90.00000   90.00000   90.00000
LATT -1
SFAC C  
C      1  0.4599370000000  0.5200230000000  0.5715080000000 1.0
C      1  0.5379560000000  0.4780220000000  0.4277490000000 1.0
C      1  0.5187130000000  0.4818710000000  0.5187000000000 1.0
C      1  0.4783600000000  0.5191200000000  0.4803880000000 1.0
C      1  0.5170050000000  0.5235010000000  0.5805960000000 1.0
C      1  0.4813320000000  0.4763440000000  0.4203160000000 1.0
C      1  0.4013560000000  0.5473190000000  0.5215180000000 1.0
C      1  0.5992820000000  0.4580630000000  0.4840210000000 1.0
C      1  0.4461930000000  0.5635660000000  0.4899500000000 1.0
C      1  0.5537980000000  0.4382480000000  0.5152050000000 1.0
C      1  0.4697780000000  0.5334460000000  0.5498060000000 1.0
C      1  0.5305620000000  0.4644510000000  0.4505390000000 1.0
C      1  0.4417880000000  0.4883160000000  0.4860850000000 1.0
C      1  0.5541480000000  0.5117760000000  0.5134720000000 1.0
C      1  0.5499760000000  0.5089590000000  0.4586260000000 1.0
C      1  0.4532050000000  0.4932930000000  0.5381160000000 1.0
C      1  0.4789730000000  0.5056260000000  0.4050180000000 1.0
C      1  0.5205260000000  0.4948010000000  0.5915300000000 1.0
C      1  0.5562040000000  0.4361540000000  0.4813490000000 1.0
C      1  0.4473830000000  0.5627830000000  0.5229310000000 1.0
C      1  0.4495360000000  0.5087280000000  0.4655470000000 1.0
C      1  0.5460190000000  0.4935390000000  0.5361000000000 1.0
C      1  0.5674380000000  0.4799900000000  0.4545710000000 1.0
C      1  0.4340460000000  0.5177130000000  0.5413120000000 1.0
C      1  0.5284140000000  0.5399890000000  0.4378980000000 1.0
C      1  0.4720260000000  0.4600940000000  0.5612130000000 1.0
C      1  0.5153890000000  0.4051600000000  0.5369480000000 1.0
C      1  0.4873750000000  0.5928220000000  0.4692660000000 1.0
C      1  0.4846470000000  0.4965350000000  0.5507490000000 1.0
C      1  0.5173930000000  0.5039240000000  0.4499140000000 1.0
C      1  0.4371470000000  0.4479830000000  0.4575580000000 1.0
C      1  0.5570610000000  0.5530420000000  0.5417120000000 1.0
C      1  0.4669570000000  0.4982230000000  0.4420790000000 1.0
C      1  0.5315680000000  0.5097160000000  0.5562960000000 1.0
C      1  0.4632400000000  0.4891570000000  0.5765360000000 1.0
C      1  0.5358150000000  0.5106630000000  0.4216320000000 1.0
C      1  0.4944360000000  0.5249180000000  0.4532020000000 1.0
C      1  0.5066240000000  0.4749310000000  0.5481470000000 1.0
C      1  0.4358520000000  0.4608160000000  0.4828220000000 1.0
C      1  0.5641680000000  0.5401940000000  0.5173800000000 1.0
C      1  0.4737150000000  0.5690010000000  0.5321590000000 1.0
C      1  0.5302440000000  0.4298950000000  0.4705320000000 1.0
C      1  0.5134810000000  0.5820560000000  0.4792260000000 1.0
C      1  0.4927160000000  0.4194910000000  0.5201920000000 1.0
C      1  0.4475280000000  0.4459260000000  0.5044130000000 1.0
C      1  0.5562230000000  0.5549100000000  0.4932300000000 1.0
C      1  0.5994120000000  0.4586350000000  0.5115240000000 1.0
C      1  0.3991770000000  0.5478860000000  0.4940080000000 1.0
C      1  0.5363140000000  0.4704440000000  0.4777050000000 1.0
C      1  0.4736560000000  0.5223450000000  0.5198780000000 1.0
C      1  0.5599460000000  0.5336670000000  0.4291480000000 1.0
C      1  0.4396030000000  0.4676640000000  0.5656120000000 1.0
C      1  0.4568710000000  0.4393040000000  0.4408140000000 1.0
C      1  0.5367230000000  0.5609280000000  0.5581900000000 1.0
C      1  0.5067440000000  0.4433600000000  0.4505510000000 1.0
C      1  0.4872450000000  0.5569950000000  0.5569860000000 1.0
C      1  0.4539390000000  0.5488170000000  0.4415190000000 1.0
C      1  0.5456680000000  0.4554460000000  0.5636460000000 1.0
C      1  0.4443100000000  0.4605990000000  0.5329660000000 1.0
C      1  0.5594950000000  0.5414060000000  0.4623950000000 1.0
C      1  0.4977910000000  0.5545480000000  0.4667550000000 1.0
C      1  0.5046710000000  0.4427810000000  0.5421770000000 1.0
C      1  0.4943000000000  0.4812950000000  0.4515420000000 1.0
C      1  0.5068790000000  0.5208830000000  0.5420070000000 1.0
C      1  0.4726850000000  0.5462450000000  0.4969340000000 1.0
C      1  0.5272740000000  0.4543350000000  0.5020090000000 1.0
C      1  0.4737640000000  0.5284820000000  0.4285740000000 1.0
C      1  0.5244040000000  0.4727970000000  0.5734970000000 1.0
C      1  0.5125480000000  0.5509130000000  0.5701020000000 1.0
C      1  0.4814330000000  0.4476730000000  0.4325220000000 1.0
C      1  0.4331580000000  0.5334870000000  0.4567400000000 1.0
C      1  0.5635150000000  0.4712490000000  0.5469500000000 1.0
C      1  0.5138290000000  0.5413330000000  0.5234630000000 1.0
C      1  0.4877330000000  0.4582850000000  0.4745050000000 1.0
C      1  0.4666630000000  0.5679360000000  0.4639190000000 1.0
C      1  0.5363560000000  0.4310390000000  0.5432130000000 1.0
C      1  0.4776230000000  0.4554350000000  0.5289770000000 1.0
C      1  0.5268210000000  0.5388600000000  0.4716490000000 1.0
C      1  0.4627890000000  0.4926830000000  0.5075040000000 1.0
C      1  0.5495400000000  0.4952460000000  0.4867270000000 1.0
C      1  0.4851990000000  0.4716540000000  0.5037020000000 1.0
C      1  0.5271880000000  0.5183170000000  0.4936610000000 1.0
C      1  0.5281140000000  0.5643340000000  0.5023190000000 1.0
C      1  0.4745380000000  0.4342960000000  0.4953650000000 1.0
C      1  0.5079510000000  0.4299750000000  0.4936790000000 1.0
C      1  0.4950610000000  0.5643680000000  0.5096870000000 1.0
C      1  0.4272840000000  0.5442400000000  0.5333340000000 1.0
C      1  0.5744660000000  0.4562830000000  0.4697330000000 1.0
C      1  0.5762940000000  0.4557640000000  0.5270330000000 1.0
C      1  0.4221040000000  0.5489450000000  0.4778770000000 1.0
C      1  0.5000120000000  0.5066770000000  0.5039790000000 1.0
END
