TITL C-2782239-8622-1320 0.000821343785511304 125000 -1098.19376825062 0 0 187 (C1) n - 1
REM
REM in /home/nfs/bkarasulu/CARBON/AIRSS/Generating-Clusters/REBO/Higher-Symm/SD-CG/HFTN-CG
REM
REM
REM
REM
REM
REM ./C.cell (12c818d87b63d06a65506943cc24bca4)
REM
REM compiler GCC version 9.2.1 20190827 (Red Hat 9.2.1-1)
REM options -cpp -mtune=generic -march=x86-64 -g -O0 -fpre-include=/usr/include/finclude/math-vector-fortran.h
REM seed 80714613 -1451029947 -1628789692 -1019466926 -1259658646 -803668376 28449420 -61313093 887605759 -713688214 103451763 -122230208 -620777425 -260251486 -218161596 -1384585937 513874110 1549035423 -1216104926 -1638396342 -2058216966 -513734871 1437409403 -2039870779 -1013997013 -239902610 977135785 1787382402 -2110437091 897310943 1016445456 1994315817 -320930540
REM
CELL 1.54180   50.00000   50.00000   50.00000   90.00000   90.00000   90.00000
LATT -1
SFAC C  
C      1  0.5161770000000  0.5445930000000  0.5550280000000 1.0
C      1  0.5558480000000  0.5493960000000  0.4934330000000 1.0
C      1  0.5172270000000  0.5515940000000  0.4281570000000 1.0
C      1  0.4463120000000  0.5445210000000  0.4556200000000 1.0
C      1  0.4424820000000  0.5302580000000  0.5359970000000 1.0
C      1  0.5176600000000  0.4548440000000  0.4403970000000 1.0
C      1  0.5621430000000  0.4640400000000  0.5021140000000 1.0
C      1  0.5168040000000  0.4587620000000  0.5621330000000 1.0
C      1  0.4483940000000  0.4413370000000  0.5286490000000 1.0
C      1  0.4529840000000  0.4525720000000  0.4605740000000 1.0
C      1  0.5237520000000  0.5258850000000  0.5068920000000 1.0
C      1  0.5164470000000  0.5330450000000  0.4751370000000 1.0
C      1  0.4870140000000  0.5276650000000  0.4692550000000 1.0
C      1  0.4764260000000  0.5290860000000  0.4967750000000 1.0
C      1  0.4950400000000  0.5309760000000  0.5152420000000 1.0
C      1  0.5219760000000  0.4867470000000  0.4892380000000 1.0
C      1  0.5198050000000  0.4834480000000  0.5200200000000 1.0
C      1  0.4917420000000  0.4690610000000  0.5222580000000 1.0
C      1  0.4781080000000  0.4728500000000  0.4993190000000 1.0
C      1  0.4942650000000  0.4834260000000  0.4781440000000 1.0
C      1  0.4902110000000  0.6045520000000  0.4869830000000 1.0
C      1  0.4735320000000  0.5982680000000  0.5136340000000 1.0
C      1  0.4973370000000  0.6013210000000  0.5360540000000 1.0
C      1  0.5288460000000  0.5984340000000  0.5241470000000 1.0
C      1  0.5206900000000  0.6001890000000  0.4929320000000 1.0
C      1  0.4959200000000  0.3982950000000  0.5150810000000 1.0
C      1  0.4779710000000  0.4006820000000  0.4862960000000 1.0
C      1  0.4992530000000  0.4087050000000  0.4606950000000 1.0
C      1  0.5303190000000  0.4099160000000  0.4735020000000 1.0
C      1  0.5282180000000  0.4040610000000  0.5055660000000 1.0
C      1  0.4188630000000  0.5063340000000  0.4247270000000 1.0
C      1  0.4025430000000  0.4972530000000  0.5659630000000 1.0
C      1  0.5110600000000  0.5080350000000  0.6084180000000 1.0
C      1  0.6188790000000  0.5050520000000  0.5292380000000 1.0
C      1  0.5487770000000  0.4922260000000  0.3978850000000 1.0
C      1  0.4342210000000  0.5062070000000  0.6012700000000 1.0
C      1  0.3891720000000  0.4947840000000  0.4481140000000 1.0
C      1  0.5130780000000  0.4967010000000  0.3810470000000 1.0
C      1  0.6147750000000  0.5090550000000  0.4904290000000 1.0
C      1  0.5608890000000  0.5243680000000  0.6018910000000 1.0
C      1  0.5634300000000  0.4878380000000  0.5691420000000 1.0
C      1  0.5865340000000  0.4845460000000  0.4624490000000 1.0
C      1  0.4979340000000  0.4877550000000  0.4090900000000 1.0
C      1  0.3996680000000  0.4810660000000  0.4767380000000 1.0
C      1  0.4503930000000  0.4779070000000  0.5915690000000 1.0
C      1  0.5571640000000  0.4980350000000  0.4298800000000 1.0
C      1  0.5896100000000  0.5133470000000  0.5419630000000 1.0
C      1  0.4858940000000  0.5194240000000  0.5905920000000 1.0
C      1  0.3958210000000  0.5150620000000  0.5377400000000 1.0
C      1  0.4473610000000  0.5245380000000  0.4212340000000 1.0
C      1  0.4800770000000  0.5699920000000  0.5854430000000 1.0
C      1  0.5675020000000  0.5685040000000  0.5426600000000 1.0
C      1  0.5640990000000  0.5441840000000  0.4217520000000 1.0
C      1  0.4459750000000  0.5789210000000  0.4228720000000 1.0
C      1  0.4149230000000  0.5679560000000  0.5189180000000 1.0
C      1  0.4826790000000  0.4323800000000  0.4125030000000 1.0
C      1  0.5835430000000  0.4362430000000  0.4593720000000 1.0
C      1  0.5522140000000  0.4402820000000  0.5637260000000 1.0
C      1  0.4569810000000  0.4300910000000  0.5757010000000 1.0
C      1  0.4244210000000  0.4296050000000  0.4821610000000 1.0
C      1  0.5783400000000  0.4833380000000  0.4076920000000 1.0
C      1  0.4327940000000  0.5103390000000  0.3939610000000 1.0
C      1  0.3710040000000  0.5029070000000  0.5544210000000 1.0
C      1  0.4806490000000  0.5063810000000  0.6207880000000 1.0
C      1  0.6144150000000  0.4989310000000  0.5604850000000 1.0
C      1  0.5743830000000  0.5030030000000  0.5901820000000 1.0
C      1  0.4555300000000  0.4938790000000  0.6205740000000 1.0
C      1  0.3679780000000  0.4887350000000  0.4735710000000 1.0
C      1  0.4827960000000  0.4809300000000  0.3794670000000 1.0
C      1  0.6064830000000  0.5055410000000  0.4647470000000 1.0
C      1  0.4459870000000  0.5658940000000  0.5815600000000 1.0
C      1  0.5511570000000  0.5705540000000  0.5698770000000 1.0
C      1  0.6036020000000  0.5930920000000  0.5056680000000 1.0
C      1  0.5708520000000  0.5476790000000  0.3589240000000 1.0
C      1  0.4039940000000  0.5553900000000  0.4890590000000 1.0
C      1  0.4532180000000  0.4292800000000  0.4231640000000 1.0
C      1  0.5385030000000  0.4150110000000  0.3964080000000 1.0
C      1  0.5807910000000  0.4308210000000  0.5139860000000 1.0
C      1  0.5103710000000  0.4299860000000  0.5957000000000 1.0
C      1  0.4068190000000  0.4313290000000  0.5117020000000 1.0
C      1  0.4735720000000  0.4080850000000  0.5652630000000 1.0
C      1  0.5325780000000  0.4218100000000  0.5532220000000 1.0
C      1  0.5629870000000  0.4183930000000  0.4691940000000 1.0
C      1  0.5009260000000  0.4104960000000  0.4289010000000 1.0
C      1  0.4486060000000  0.4110280000000  0.4725390000000 1.0
C      1  0.4593840000000  0.6015280000000  0.4344880000000 1.0
C      1  0.5836070000000  0.5564800000000  0.4054930000000 1.0
C      1  0.5596810000000  0.5955380000000  0.5282700000000 1.0
C      1  0.5008670000000  0.5896810000000  0.5670980000000 1.0
C      1  0.4436050000000  0.5844090000000  0.5234110000000 1.0
C      1  0.5112950000000  0.4501720000000  0.4117190000000 1.0
C      1  0.4211190000000  0.4502790000000  0.4551100000000 1.0
C      1  0.4351090000000  0.4391010000000  0.5570650000000 1.0
C      1  0.5378870000000  0.4571530000000  0.5855820000000 1.0
C      1  0.6068800000000  0.4392880000000  0.4760320000000 1.0
C      1  0.5109820000000  0.5556500000000  0.5854400000000 1.0
C      1  0.4226140000000  0.5509940000000  0.5470020000000 1.0
C      1  0.4303650000000  0.5617800000000  0.4418360000000 1.0
C      1  0.5369150000000  0.5412590000000  0.4104780000000 1.0
C      1  0.5791890000000  0.5506170000000  0.5161880000000 1.0
C      1  0.6080670000000  0.5327300000000  0.5122590000000 1.0
C      1  0.5354320000000  0.5202630000000  0.3866730000000 1.0
C      1  0.4004010000000  0.5252400000000  0.4458260000000 1.0
C      1  0.4163600000000  0.5178500000000  0.5844790000000 1.0
C      1  0.5281300000000  0.5333180000000  0.6045370000000 1.0
C      1  0.6135260000000  0.4799720000000  0.5085340000000 1.0
C      1  0.5190390000000  0.4833050000000  0.5933910000000 1.0
C      1  0.4166010000000  0.4676760000000  0.5590480000000 1.0
C      1  0.4123520000000  0.4749850000000  0.4334540000000 1.0
C      1  0.5283750000000  0.4680190000000  0.3913140000000 1.0
C      1  0.4765240000000  0.3843600000000  0.5781390000000 1.0
C      1  0.5159600000000  0.4129040000000  0.5746320000000 1.0
C      1  0.5596890000000  0.4159770000000  0.4997510000000 1.0
C      1  0.5230810000000  0.4026570000000  0.4151220000000 1.0
C      1  0.4504610000000  0.4108720000000  0.4447500000000 1.0
C      1  0.4738800000000  0.6037380000000  0.4571260000000 1.0
C      1  0.5867240000000  0.5585530000000  0.3783990000000 1.0
C      1  0.5807920000000  0.6063140000000  0.5144350000000 1.0
C      1  0.5306790000000  0.5879470000000  0.5725050000000 1.0
C      1  0.4508350000000  0.5804890000000  0.5542520000000 1.0
C      1  0.5395570000000  0.4633780000000  0.4828050000000 1.0
C      1  0.4913090000000  0.4626400000000  0.4553760000000 1.0
C      1  0.4564050000000  0.4545170000000  0.4919660000000 1.0
C      1  0.4795950000000  0.4451950000000  0.5373440000000 1.0
C      1  0.5277240000000  0.4566480000000  0.5344060000000 1.0
C      1  0.5399500000000  0.5472310000000  0.5229810000000 1.0
C      1  0.4866760000000  0.5442350000000  0.5407770000000 1.0
C      1  0.4502950000000  0.5390770000000  0.5064580000000 1.0
C      1  0.4759740000000  0.5520250000000  0.4554080000000 1.0
C      1  0.5263180000000  0.5561300000000  0.4551420000000 1.0
C      1  0.4071120000000  0.4410290000000  0.5396630000000 1.0
C      1  0.5000520000000  0.4553900000000  0.5981280000000 1.0
C      1  0.6020940000000  0.4483680000000  0.5031290000000 1.0
C      1  0.5407860000000  0.4394420000000  0.3851600000000 1.0
C      1  0.4350780000000  0.4510200000000  0.4248900000000 1.0
C      1  0.4016290000000  0.5443950000000  0.4646490000000 1.0
C      1  0.5489110000000  0.5318810000000  0.3614050000000 1.0
C      1  0.6065970000000  0.5662650000000  0.5068250000000 1.0
C      1  0.5522440000000  0.5505290000000  0.5876570000000 1.0
C      1  0.4202690000000  0.5452510000000  0.5766420000000 1.0
C      1  0.4700990000000  0.4558490000000  0.5873180000000 1.0
C      1  0.5710090000000  0.4638510000000  0.5552070000000 1.0
C      1  0.5741700000000  0.4621330000000  0.4495650000000 1.0
C      1  0.4741450000000  0.4641240000000  0.4078400000000 1.0
C      1  0.4055870000000  0.4571110000000  0.4910210000000 1.0
C      1  0.4607800000000  0.5518390000000  0.4178750000000 1.0
C      1  0.5681110000000  0.5248780000000  0.4433450000000 1.0
C      1  0.5778850000000  0.5379130000000  0.5538990000000 1.0
C      1  0.4657560000000  0.5400590000000  0.5828860000000 1.0
C      1  0.4012540000000  0.5362940000000  0.5167880000000 1.0
C      1  0.5050870000000  0.5130660000000  0.5639860000000 1.0
C      1  0.5694160000000  0.5001960000000  0.5216360000000 1.0
C      1  0.5301170000000  0.4994770000000  0.4439660000000 1.0
C      1  0.4458220000000  0.5124610000000  0.4534720000000 1.0
C      1  0.4271630000000  0.5040300000000  0.5354110000000 1.0
C      1  0.5054290000000  0.4967690000000  0.4352140000000 1.0
C      1  0.5836040000000  0.4844390000000  0.4949780000000 1.0
C      1  0.5328790000000  0.4949640000000  0.5642960000000 1.0
C      1  0.4428250000000  0.4894480000000  0.5603800000000 1.0
C      1  0.4262420000000  0.5022470000000  0.4750210000000 1.0
C      1  0.5206470000000  0.4407360000000  0.4713920000000 1.0
C      1  0.4814770000000  0.4354640000000  0.4677510000000 1.0
C      1  0.4672480000000  0.4268930000000  0.5041080000000 1.0
C      1  0.4855900000000  0.4138400000000  0.5390840000000 1.0
C      1  0.5187140000000  0.4296570000000  0.5233030000000 1.0
C      1  0.5174070000000  0.5678270000000  0.5284360000000 1.0
C      1  0.4801410000000  0.5740530000000  0.5456710000000 1.0
C      1  0.4651690000000  0.5662480000000  0.5063480000000 1.0
C      1  0.4825760000000  0.5754630000000  0.4716240000000 1.0
C      1  0.5294460000000  0.5692570000000  0.4853820000000 1.0
C      1  0.5461120000000  0.4635830000000  0.4513660000000 1.0
C      1  0.4664630000000  0.4723670000000  0.4373840000000 1.0
C      1  0.4321600000000  0.4618390000000  0.5084780000000 1.0
C      1  0.4867580000000  0.4649200000000  0.5617050000000 1.0
C      1  0.5573530000000  0.4594690000000  0.5290760000000 1.0
C      1  0.5475500000000  0.5348630000000  0.5505160000000 1.0
C      1  0.4666380000000  0.5264890000000  0.5545310000000 1.0
C      1  0.4250720000000  0.5233900000000  0.5003440000000 1.0
C      1  0.4894150000000  0.5529790000000  0.4264600000000 1.0
C      1  0.5588920000000  0.5278940000000  0.4713560000000 1.0
C      1  0.5342820000000  0.5080450000000  0.4727270000000 1.0
C      1  0.4290790000000  0.4910200000000  0.5072790000000 1.0
C      1  0.4765610000000  0.4949850000000  0.5583850000000 1.0
C      1  0.5384980000000  0.5071090000000  0.5318730000000 1.0
C      1  0.4778640000000  0.5002640000000  0.4539600000000 1.0
C      1  0.4998200000000  0.4332040000000  0.4966650000000 1.0
C      1  0.4987010000000  0.5680490000000  0.5007750000000 1.0
END
