TITL C-2782228-2999-984 1.46793250206659 125000 -1029.6044591311 0 0 175 (C1) n - 1
REM
REM in /home/nfs/bkarasulu/CARBON/AIRSS/Generating-Clusters/REBO/Higher-Symm/SD-CG/HFTN-CG
REM
REM
REM
REM
REM
REM ./C.cell (12c818d87b63d06a65506943cc24bca4)
REM
REM compiler GCC version 9.2.1 20190827 (Red Hat 9.2.1-1)
REM options -cpp -mtune=generic -march=x86-64 -g -O0 -fpre-include=/usr/include/finclude/math-vector-fortran.h
REM seed -239694704 1351298170 -784306926 2033062196 1917827213 567532119 -1595206902 -1600870336 -1083856710 1919349678 -243697686 -747624307 -1009765197 887473686 1703174510 -195274784 555416536 1904378270 -718903199 595172212 456917572 954992376 1387805637 975497913 654668836 -1122266752 -18124954 2014838571 -1392977065 1951562166 -1671726622 -928313727 849504168
REM
CELL 1.54180   50.00000   50.00000   50.00000   90.00000   90.00000   90.00000
LATT -1
SFAC C  
C      1  0.4576140000000  0.5865910000000  0.4555370000000 1.0
C      1  0.5468980000000  0.5866060000000  0.5475080000000 1.0
C      1  0.4516510000000  0.4169210000000  0.4562010000000 1.0
C      1  0.5446180000000  0.4178970000000  0.5453100000000 1.0
C      1  0.4890350000000  0.5655610000000  0.4430500000000 1.0
C      1  0.5070960000000  0.5643160000000  0.5685060000000 1.0
C      1  0.4920970000000  0.4416150000000  0.4363970000000 1.0
C      1  0.5129710000000  0.4356800000000  0.5618840000000 1.0
C      1  0.4330880000000  0.5125620000000  0.5325610000000 1.0
C      1  0.5610000000000  0.5160510000000  0.4603650000000 1.0
C      1  0.4494530000000  0.4881490000000  0.5424240000000 1.0
C      1  0.5456320000000  0.4881150000000  0.4651830000000 1.0
C      1  0.5133640000000  0.5439580000000  0.4436720000000 1.0
C      1  0.4877500000000  0.5396590000000  0.5582550000000 1.0
C      1  0.5178650000000  0.4592190000000  0.4388200000000 1.0
C      1  0.4838910000000  0.4506500000000  0.5645390000000 1.0
C      1  0.5286050000000  0.5851470000000  0.4982020000000 1.0
C      1  0.4770730000000  0.5882170000000  0.4955830000000 1.0
C      1  0.5284630000000  0.4088020000000  0.4940650000000 1.0
C      1  0.4761780000000  0.4125730000000  0.4926660000000 1.0
C      1  0.5772490000000  0.5668760000000  0.5052450000000 1.0
C      1  0.4201180000000  0.5720560000000  0.4945680000000 1.0
C      1  0.5772140000000  0.4386170000000  0.5025240000000 1.0
C      1  0.4259080000000  0.4363580000000  0.4962030000000 1.0
C      1  0.4358080000000  0.5491220000000  0.5681800000000 1.0
C      1  0.5613010000000  0.5527910000000  0.4275460000000 1.0
C      1  0.4342570000000  0.4480210000000  0.5714140000000 1.0
C      1  0.5660440000000  0.4577570000000  0.4312910000000 1.0
C      1  0.5414900000000  0.5090420000000  0.5193870000000 1.0
C      1  0.4694340000000  0.5137150000000  0.4897330000000 1.0
C      1  0.5248390000000  0.4810810000000  0.5093090000000 1.0
C      1  0.4735280000000  0.4864090000000  0.4908380000000 1.0
C      1  0.4190820000000  0.5527600000000  0.4408950000000 1.0
C      1  0.5799680000000  0.5484070000000  0.5615960000000 1.0
C      1  0.4175610000000  0.4550310000000  0.4414200000000 1.0
C      1  0.5836840000000  0.4519790000000  0.5592760000000 1.0
C      1  0.4937030000000  0.4036970000000  0.5175350000000 1.0
C      1  0.5078360000000  0.3993320000000  0.4686800000000 1.0
C      1  0.4981710000000  0.5993790000000  0.5201420000000 1.0
C      1  0.5095410000000  0.6014170000000  0.4764280000000 1.0
C      1  0.5868440000000  0.5511960000000  0.5340020000000 1.0
C      1  0.4143350000000  0.5531840000000  0.4691960000000 1.0
C      1  0.5887080000000  0.4520290000000  0.5313840000000 1.0
C      1  0.4145610000000  0.4534290000000  0.4702030000000 1.0
C      1  0.5617520000000  0.4874660000000  0.5928090000000 1.0
C      1  0.4410740000000  0.4810890000000  0.4072190000000 1.0
C      1  0.5560390000000  0.5210660000000  0.5949910000000 1.0
C      1  0.4397050000000  0.5149550000000  0.4111860000000 1.0
C      1  0.6056170000000  0.5174110000000  0.4986680000000 1.0
C      1  0.3950530000000  0.5162450000000  0.4990820000000 1.0
C      1  0.6130290000000  0.4901920000000  0.4948520000000 1.0
C      1  0.3890740000000  0.4886260000000  0.5021960000000 1.0
C      1  0.5085490000000  0.5599120000000  0.6011490000000 1.0
C      1  0.4766600000000  0.5573920000000  0.3966700000000 1.0
C      1  0.5278710000000  0.4440380000000  0.6064590000000 1.0
C      1  0.4835060000000  0.4397870000000  0.3974690000000 1.0
C      1  0.5503070000000  0.4487100000000  0.5210370000000 1.0
C      1  0.4574690000000  0.4474340000000  0.4870910000000 1.0
C      1  0.5515330000000  0.5475870000000  0.5160960000000 1.0
C      1  0.4504070000000  0.5602050000000  0.4846090000000 1.0
C      1  0.4426750000000  0.4105780000000  0.4857960000000 1.0
C      1  0.5530220000000  0.4166010000000  0.5123290000000 1.0
C      1  0.4448370000000  0.5935980000000  0.4853520000000 1.0
C      1  0.5541450000000  0.5874500000000  0.5158020000000 1.0
C      1  0.4899760000000  0.5624430000000  0.4827880000000 1.0
C      1  0.5082910000000  0.5671680000000  0.5173330000000 1.0
C      1  0.4944310000000  0.4356350000000  0.4778480000000 1.0
C      1  0.5155750000000  0.4293990000000  0.5179240000000 1.0
C      1  0.4117800000000  0.4718130000000  0.5710650000000 1.0
C      1  0.5875860000000  0.4779400000000  0.4237660000000 1.0
C      1  0.4130170000000  0.5277460000000  0.5735580000000 1.0
C      1  0.5794850000000  0.5405930000000  0.4055570000000 1.0
C      1  0.5645170000000  0.4325440000000  0.5687660000000 1.0
C      1  0.4361280000000  0.4346360000000  0.4314490000000 1.0
C      1  0.5622180000000  0.5693840000000  0.5725840000000 1.0
C      1  0.4382460000000  0.5725090000000  0.4310600000000 1.0
C      1  0.5184930000000  0.5177330000000  0.5762360000000 1.0
C      1  0.4792770000000  0.5140440000000  0.4276490000000 1.0
C      1  0.5209970000000  0.4862640000000  0.5738310000000 1.0
C      1  0.4776340000000  0.4845120000000  0.4223440000000 1.0
C      1  0.4283820000000  0.5444830000000  0.5398570000000 1.0
C      1  0.5682760000000  0.5474380000000  0.4545610000000 1.0
C      1  0.4358460000000  0.4569140000000  0.5428520000000 1.0
C      1  0.5619580000000  0.4603160000000  0.4592330000000 1.0
C      1  0.4869870000000  0.5283460000000  0.3981320000000 1.0
C      1  0.5050550000000  0.5296100000000  0.6045920000000 1.0
C      1  0.4915780000000  0.4699470000000  0.3959640000000 1.0
C      1  0.5138260000000  0.4715690000000  0.6034400000000 1.0
C      1  0.4842670000000  0.4138540000000  0.4537170000000 1.0
C      1  0.5120320000000  0.4084130000000  0.5449540000000 1.0
C      1  0.4907490000000  0.5938970000000  0.4581310000000 1.0
C      1  0.5144160000000  0.5834520000000  0.5457900000000 1.0
C      1  0.5568340000000  0.5184680000000  0.4080470000000 1.0
C      1  0.4376790000000  0.5127670000000  0.5841960000000 1.0
C      1  0.5612270000000  0.4910910000000  0.4104240000000 1.0
C      1  0.4364170000000  0.4849980000000  0.5852430000000 1.0
C      1  0.5409290000000  0.5787230000000  0.4678750000000 1.0
C      1  0.4585260000000  0.5962120000000  0.5223670000000 1.0
C      1  0.5298030000000  0.3790600000000  0.4789740000000 1.0
C      1  0.4541770000000  0.3997440000000  0.5151110000000 1.0
C      1  0.5002880000000  0.4760620000000  0.5509410000000 1.0
C      1  0.5135240000000  0.4864470000000  0.4589660000000 1.0
C      1  0.5003970000000  0.5103170000000  0.5494570000000 1.0
C      1  0.5001060000000  0.5163970000000  0.4517700000000 1.0
C      1  0.5415950000000  0.3549840000000  0.4772430000000 1.0
C      1  0.4564740000000  0.4113190000000  0.5395270000000 1.0
C      1  0.5580430000000  0.5876040000000  0.4507790000000 1.0
C      1  0.4631790000000  0.5802860000000  0.5416460000000 1.0
C      1  0.4669650000000  0.5681610000000  0.4198490000000 1.0
C      1  0.5365570000000  0.5655020000000  0.5863640000000 1.0
C      1  0.4637810000000  0.4334000000000  0.4181760000000 1.0
C      1  0.5370060000000  0.4336740000000  0.5828160000000 1.0
C      1  0.5554300000000  0.4778300000000  0.4945680000000 1.0
C      1  0.4566120000000  0.4757640000000  0.5146780000000 1.0
C      1  0.5545550000000  0.5176060000000  0.4905490000000 1.0
C      1  0.4425250000000  0.5233850000000  0.5043110000000 1.0
C      1  0.5375110000000  0.4527680000000  0.5477850000000 1.0
C      1  0.4648830000000  0.4486420000000  0.4549820000000 1.0
C      1  0.5411390000000  0.5538940000000  0.5428290000000 1.0
C      1  0.4613120000000  0.5518850000000  0.4558620000000 1.0
C      1  0.4292560000000  0.5144080000000  0.4577540000000 1.0
C      1  0.5586370000000  0.5147660000000  0.5430710000000 1.0
C      1  0.4357850000000  0.4854390000000  0.4597640000000 1.0
C      1  0.5741650000000  0.4873350000000  0.5432100000000 1.0
C      1  0.5860270000000  0.5580210000000  0.4770210000000 1.0
C      1  0.4101630000000  0.5585310000000  0.5202880000000 1.0
C      1  0.5834040000000  0.4545740000000  0.4772890000000 1.0
C      1  0.4170400000000  0.4512960000000  0.5219050000000 1.0
C      1  0.5162470000000  0.5183980000000  0.3993200000000 1.0
C      1  0.4818070000000  0.5129560000000  0.5912230000000 1.0
C      1  0.5183950000000  0.4842500000000  0.3976480000000 1.0
C      1  0.4860460000000  0.4804720000000  0.5922600000000 1.0
C      1  0.5316990000000  0.5195260000000  0.6160800000000 1.0
C      1  0.4625010000000  0.5106070000000  0.3910010000000 1.0
C      1  0.5371660000000  0.4903340000000  0.6119500000000 1.0
C      1  0.4646250000000  0.4813280000000  0.3847960000000 1.0
C      1  0.5075840000000  0.4602110000000  0.5223340000000 1.0
C      1  0.4918180000000  0.4696650000000  0.4773920000000 1.0
C      1  0.5105810000000  0.5236290000000  0.5213790000000 1.0
C      1  0.4873780000000  0.5308910000000  0.4773110000000 1.0
C      1  0.3973850000000  0.4844870000000  0.5497790000000 1.0
C      1  0.6012650000000  0.4890780000000  0.4471910000000 1.0
C      1  0.4025430000000  0.5149800000000  0.5477130000000 1.0
C      1  0.5924750000000  0.5157120000000  0.4532580000000 1.0
C      1  0.4813970000000  0.5559370000000  0.5327740000000 1.0
C      1  0.5198160000000  0.5557060000000  0.4726730000000 1.0
C      1  0.4697490000000  0.4349060000000  0.5416630000000 1.0
C      1  0.5224990000000  0.4457970000000  0.4685860000000 1.0
C      1  0.4765080000000  0.4501690000000  0.5151940000000 1.0
C      1  0.5387010000000  0.4494750000000  0.4897020000000 1.0
C      1  0.4633760000000  0.5473520000000  0.5098510000000 1.0
C      1  0.5283720000000  0.5384390000000  0.4961070000000 1.0
C      1  0.4358100000000  0.4738080000000  0.4878460000000 1.0
C      1  0.5779550000000  0.4767500000000  0.5141550000000 1.0
C      1  0.4194410000000  0.5254600000000  0.4838370000000 1.0
C      1  0.5794410000000  0.5275410000000  0.5115260000000 1.0
C      1  0.5325650000000  0.5395830000000  0.4202830000000 1.0
C      1  0.4626620000000  0.5343960000000  0.5769980000000 1.0
C      1  0.5392660000000  0.4651880000000  0.4154160000000 1.0
C      1  0.4607510000000  0.4611060000000  0.5857520000000 1.0
C      1  0.4180260000000  0.4875070000000  0.4304910000000 1.0
C      1  0.5875760000000  0.4823700000000  0.5732400000000 1.0
C      1  0.4142420000000  0.5218260000000  0.4293720000000 1.0
C      1  0.5793490000000  0.5156370000000  0.5708090000000 1.0
C      1  0.5436250000000  0.5323130000000  0.5655240000000 1.0
C      1  0.4522060000000  0.5282870000000  0.4401230000000 1.0
C      1  0.5495620000000  0.4760240000000  0.5631810000000 1.0
C      1  0.4537780000000  0.4712670000000  0.4376210000000 1.0
C      1  0.3965120000000  0.4714130000000  0.5238030000000 1.0
C      1  0.6045250000000  0.4737110000000  0.4727150000000 1.0
C      1  0.3944720000000  0.5322840000000  0.5226480000000 1.0
C      1  0.6032810000000  0.5332510000000  0.4740140000000 1.0
C      1  0.4697300000000  0.4940130000000  0.5651770000000 1.0
C      1  0.5256580000000  0.5008640000000  0.4257480000000 1.0
C      1  0.5087540000000  0.5037880000000  0.4972740000000 1.0
END
