TITL C-2782229-3092-173 0.00264925406281736 125000 -1002.75256083389 0 0 172 (C1) n - 1
REM
REM in /home/nfs/bkarasulu/CARBON/AIRSS/Generating-Clusters/REBO/Higher-Symm/SD-CG/HFTN-CG
REM
REM
REM
REM
REM
REM ./C.cell (12c818d87b63d06a65506943cc24bca4)
REM
REM compiler GCC version 9.2.1 20190827 (Red Hat 9.2.1-1)
REM options -cpp -mtune=generic -march=x86-64 -g -O0 -fpre-include=/usr/include/finclude/math-vector-fortran.h
REM seed -506273975 1959277971 -1830285095 -1574387881 1651579817 -1304408940 766277066 -729228461 -431342612 -898300854 63206782 -1033792928 1691620130 1098762345 -1966522559 -1577521768 817664977 915262510 -598421141 837209409 -1227579571 737674821 -1436887843 -336458380 -58913682 -2068798544 -1446422103 433656587 -594190407 -1745500639 -257198071 1498287890 1311830615
REM
CELL 1.54180   50.00000   50.00000   50.00000   90.00000   90.00000   90.00000
LATT -1
SFAC C  
C      1  0.4540540000000  0.4155990000000  0.4656760000000 1.0
C      1  0.4691500000000  0.4175910000000  0.5448750000000 1.0
C      1  0.5459990000000  0.4156130000000  0.5363870000000 1.0
C      1  0.5230530000000  0.4186250000000  0.4464620000000 1.0
C      1  0.4524640000000  0.5866490000000  0.5367500000000 1.0
C      1  0.4687040000000  0.5686930000000  0.4553590000000 1.0
C      1  0.5419360000000  0.5811780000000  0.4714270000000 1.0
C      1  0.5319860000000  0.5700330000000  0.5409210000000 1.0
C      1  0.5763930000000  0.5490290000000  0.5613080000000 1.0
C      1  0.5651100000000  0.5508100000000  0.4256440000000 1.0
C      1  0.4199080000000  0.5449680000000  0.4451430000000 1.0
C      1  0.4387560000000  0.5501940000000  0.5727250000000 1.0
C      1  0.5729720000000  0.4539580000000  0.4359970000000 1.0
C      1  0.5619930000000  0.4555980000000  0.5710840000000 1.0
C      1  0.4274110000000  0.4551050000000  0.5597790000000 1.0
C      1  0.4408900000000  0.4492150000000  0.4240360000000 1.0
C      1  0.5169310000000  0.5253530000000  0.5057210000000 1.0
C      1  0.4989440000000  0.5142390000000  0.4826250000000 1.0
C      1  0.4693220000000  0.5266160000000  0.4925690000000 1.0
C      1  0.4868260000000  0.5246340000000  0.5192150000000 1.0
C      1  0.5278250000000  0.4713910000000  0.4920370000000 1.0
C      1  0.5044740000000  0.4724380000000  0.5141360000000 1.0
C      1  0.4772580000000  0.4731390000000  0.4968720000000 1.0
C      1  0.4994780000000  0.4831140000000  0.4758750000000 1.0
C      1  0.4012090000000  0.5208590000000  0.4827840000000 1.0
C      1  0.4861750000000  0.5226970000000  0.5989620000000 1.0
C      1  0.5996190000000  0.5189300000000  0.5142840000000 1.0
C      1  0.5138800000000  0.5241600000000  0.3995650000000 1.0
C      1  0.4040020000000  0.4766080000000  0.5181980000000 1.0
C      1  0.4799280000000  0.4719970000000  0.3952070000000 1.0
C      1  0.5980740000000  0.4732310000000  0.4821470000000 1.0
C      1  0.5188260000000  0.4770980000000  0.5958500000000 1.0
C      1  0.4191300000000  0.5466690000000  0.4962600000000 1.0
C      1  0.4938980000000  0.5462380000000  0.5756380000000 1.0
C      1  0.5786660000000  0.5450000000000  0.5070200000000 1.0
C      1  0.5092560000000  0.5532350000000  0.4168980000000 1.0
C      1  0.4240710000000  0.4535960000000  0.5052040000000 1.0
C      1  0.4956790000000  0.4482410000000  0.4140170000000 1.0
C      1  0.5769860000000  0.4514860000000  0.4953760000000 1.0
C      1  0.5037810000000  0.4546640000000  0.5773280000000 1.0
C      1  0.5854570000000  0.5239620000000  0.5415070000000 1.0
C      1  0.5441920000000  0.5287130000000  0.4143140000000 1.0
C      1  0.4103200000000  0.5190630000000  0.4547930000000 1.0
C      1  0.4587910000000  0.5262870000000  0.5851120000000 1.0
C      1  0.5872130000000  0.4766570000000  0.4550360000000 1.0
C      1  0.5464680000000  0.4788530000000  0.5873560000000 1.0
C      1  0.4113910000000  0.4784990000000  0.5465030000000 1.0
C      1  0.4540890000000  0.4744880000000  0.4094010000000 1.0
C      1  0.5741700000000  0.5632870000000  0.4563110000000 1.0
C      1  0.4525560000000  0.5734800000000  0.4193110000000 1.0
C      1  0.4219060000000  0.5642870000000  0.5466170000000 1.0
C      1  0.5502310000000  0.5659400000000  0.5760470000000 1.0
C      1  0.5769250000000  0.4385360000000  0.5453390000000 1.0
C      1  0.4538280000000  0.4391700000000  0.5747680000000 1.0
C      1  0.4310560000000  0.4348290000000  0.4535660000000 1.0
C      1  0.5487580000000  0.4409210000000  0.4153720000000 1.0
C      1  0.5302220000000  0.5757520000000  0.5111210000000 1.0
C      1  0.5109300000000  0.5676780000000  0.4668890000000 1.0
C      1  0.4756820000000  0.5768230000000  0.4826930000000 1.0
C      1  0.4842410000000  0.5773200000000  0.5336810000000 1.0
C      1  0.5265640000000  0.4285030000000  0.4795230000000 1.0
C      1  0.5155280000000  0.4269740000000  0.5362840000000 1.0
C      1  0.4671460000000  0.4272580000000  0.5129180000000 1.0
C      1  0.4859090000000  0.4277120000000  0.4667370000000 1.0
C      1  0.5080400000000  0.4511090000000  0.4640400000000 1.0
C      1  0.4678640000000  0.4460510000000  0.4874060000000 1.0
C      1  0.4915180000000  0.4454030000000  0.5268350000000 1.0
C      1  0.5307080000000  0.4427970000000  0.5102980000000 1.0
C      1  0.4983170000000  0.5501040000000  0.5329100000000 1.0
C      1  0.4654150000000  0.5556660000000  0.5063740000000 1.0
C      1  0.4943460000000  0.5392650000000  0.4637300000000 1.0
C      1  0.5261310000000  0.5513330000000  0.4921500000000 1.0
C      1  0.4225080000000  0.5040150000000  0.5558040000000 1.0
C      1  0.5534050000000  0.5055030000000  0.5768050000000 1.0
C      1  0.5662250000000  0.5002480000000  0.4565940000000 1.0
C      1  0.4562810000000  0.4962450000000  0.4313570000000 1.0
C      1  0.4339280000000  0.4977120000000  0.4524080000000 1.0
C      1  0.5472990000000  0.5025570000000  0.4342180000000 1.0
C      1  0.5624190000000  0.5044470000000  0.5478960000000 1.0
C      1  0.4526770000000  0.5042180000000  0.5646750000000 1.0
C      1  0.4317850000000  0.4289600000000  0.4870540000000 1.0
C      1  0.4842460000000  0.4324470000000  0.5699630000000 1.0
C      1  0.5678150000000  0.4293430000000  0.5156480000000 1.0
C      1  0.5227390000000  0.4334520000000  0.4225630000000 1.0
C      1  0.4300860000000  0.5710530000000  0.5163690000000 1.0
C      1  0.4858510000000  0.5745330000000  0.4264030000000 1.0
C      1  0.5675990000000  0.5670820000000  0.4870200000000 1.0
C      1  0.5165460000000  0.5679040000000  0.5714150000000 1.0
C      1  0.5615960000000  0.4117410000000  0.4699720000000 1.0
C      1  0.4766440000000  0.4056500000000  0.4347280000000 1.0
C      1  0.4329790000000  0.4101190000000  0.5300900000000 1.0
C      1  0.5312400000000  0.4132490000000  0.5733440000000 1.0
C      1  0.5712800000000  0.5891850000000  0.5321910000000 1.0
C      1  0.4742330000000  0.5905370000000  0.5698650000000 1.0
C      1  0.4357000000000  0.5865060000000  0.4691010000000 1.0
C      1  0.5276780000000  0.5924980000000  0.4362370000000 1.0
C      1  0.5529250000000  0.5921510000000  0.5556590000000 1.0
C      1  0.5479450000000  0.6046040000000  0.4538720000000 1.0
C      1  0.4480970000000  0.5936660000000  0.4427320000000 1.0
C      1  0.4511020000000  0.6055460000000  0.5594170000000 1.0
C      1  0.5464220000000  0.4012630000000  0.4498270000000 1.0
C      1  0.5534150000000  0.4001980000000  0.5600380000000 1.0
C      1  0.4477200000000  0.3984000000000  0.5524580000000 1.0
C      1  0.4505630000000  0.3917130000000  0.4416050000000 1.0
C      1  0.5909140000000  0.4662680000000  0.5564300000000 1.0
C      1  0.5607610000000  0.4699340000000  0.4083090000000 1.0
C      1  0.4183370000000  0.4636520000000  0.4450330000000 1.0
C      1  0.4434600000000  0.4682500000000  0.5869850000000 1.0
C      1  0.5852340000000  0.5340770000000  0.4472660000000 1.0
C      1  0.5586180000000  0.5361020000000  0.5869150000000 1.0
C      1  0.4123830000000  0.5344550000000  0.5580300000000 1.0
C      1  0.4398360000000  0.5479860000000  0.4233300000000 1.0
C      1  0.5385950000000  0.4586020000000  0.4557870000000 1.0
C      1  0.4633930000000  0.4582220000000  0.4556530000000 1.0
C      1  0.4619590000000  0.4563400000000  0.5396610000000 1.0
C      1  0.5384450000000  0.4595070000000  0.5390420000000 1.0
C      1  0.5265110000000  0.5389990000000  0.5457750000000 1.0
C      1  0.4585310000000  0.5474170000000  0.5358130000000 1.0
C      1  0.4613270000000  0.5389630000000  0.4555960000000 1.0
C      1  0.5406940000000  0.5423990000000  0.4625710000000 1.0
C      1  0.4840040000000  0.4827420000000  0.4455370000000 1.0
C      1  0.4629300000000  0.4831670000000  0.5231580000000 1.0
C      1  0.5185820000000  0.4865170000000  0.5379490000000 1.0
C      1  0.5542380000000  0.4788330000000  0.4773500000000 1.0
C      1  0.4745320000000  0.5060330000000  0.5396750000000 1.0
C      1  0.4450310000000  0.5195220000000  0.4743000000000 1.0
C      1  0.5231300000000  0.5241230000000  0.4404780000000 1.0
C      1  0.5370480000000  0.5132760000000  0.5277380000000 1.0
C      1  0.5682810000000  0.4824840000000  0.5068620000000 1.0
C      1  0.5064400000000  0.4777980000000  0.4237290000000 1.0
C      1  0.4391250000000  0.4840690000000  0.5011840000000 1.0
C      1  0.4978180000000  0.4832040000000  0.5625860000000 1.0
C      1  0.5614250000000  0.5156820000000  0.5037940000000 1.0
C      1  0.4988760000000  0.5153840000000  0.5619880000000 1.0
C      1  0.4330680000000  0.5168590000000  0.5060270000000 1.0
C      1  0.4925110000000  0.5301680000000  0.4325950000000 1.0
C      1  0.4625390000000  0.5249060000000  0.4252610000000 1.0
C      1  0.4370200000000  0.5260960000000  0.5351020000000 1.0
C      1  0.5284270000000  0.5265420000000  0.5746430000000 1.0
C      1  0.5657220000000  0.5261220000000  0.4736970000000 1.0
C      1  0.4675060000000  0.4752090000000  0.5641210000000 1.0
C      1  0.4372690000000  0.4727010000000  0.4719250000000 1.0
C      1  0.5352670000000  0.4753880000000  0.4302380000000 1.0
C      1  0.5653500000000  0.4758150000000  0.5367530000000 1.0
C      1  0.5033020000000  0.4060150000000  0.5601430000000 1.0
C      1  0.5470760000000  0.4085660000000  0.4980760000000 1.0
C      1  0.4931390000000  0.3975590000000  0.4598070000000 1.0
C      1  0.4476160000000  0.4026470000000  0.5025210000000 1.0
C      1  0.4986970000000  0.5944210000000  0.4509120000000 1.0
C      1  0.5579250000000  0.5944880000000  0.5047730000000 1.0
C      1  0.5041010000000  0.5949510000000  0.5546320000000 1.0
C      1  0.4497000000000  0.5919830000000  0.4979090000000 1.0
C      1  0.4982700000000  0.3842550000000  0.4838210000000 1.0
C      1  0.4785680000000  0.3893530000000  0.5074600000000 1.0
C      1  0.4980540000000  0.3916810000000  0.5314860000000 1.0
C      1  0.5183670000000  0.3925890000000  0.5068800000000 1.0
C      1  0.5118000000000  0.6028230000000  0.5222300000000 1.0
C      1  0.4790360000000  0.6029390000000  0.5118250000000 1.0
C      1  0.4993300000000  0.6014740000000  0.4843280000000 1.0
C      1  0.5301040000000  0.6114510000000  0.4948890000000 1.0
C      1  0.5345490000000  0.5617600000000  0.4345170000000 1.0
C      1  0.4220890000000  0.5621130000000  0.4682680000000 1.0
C      1  0.4687080000000  0.5598230000000  0.5659010000000 1.0
C      1  0.5822160000000  0.5625390000000  0.5331860000000 1.0
C      1  0.5319670000000  0.4439090000000  0.5685650000000 1.0
C      1  0.4344450000000  0.4404480000000  0.5318190000000 1.0
C      1  0.4718750000000  0.4365930000000  0.4305030000000 1.0
C      1  0.5663780000000  0.4421950000000  0.4669050000000 1.0
C      1  0.3972360000000  0.4984060000000  0.5005620000000 1.0
C      1  0.5028830000000  0.4999980000000  0.6029580000000 1.0
C      1  0.6048200000000  0.4962000000000  0.4982400000000 1.0
C      1  0.5007380000000  0.4985330000000  0.3983650000000 1.0
END
