TITL C-2782226-7400-526 0.0034651151802673 125000 -173.112658163335 0 0 35 (C1) n - 1
REM
REM in /home/nfs/bkarasulu/CARBON/AIRSS/Generating-Clusters/REBO/Higher-Symm/SD-CG/HFTN-CG
REM
REM
REM
REM
REM
REM ./C.cell (12c818d87b63d06a65506943cc24bca4)
REM
REM compiler GCC version 9.2.1 20190827 (Red Hat 9.2.1-1)
REM options -cpp -mtune=generic -march=x86-64 -g -O0 -fpre-include=/usr/include/finclude/math-vector-fortran.h
REM seed -367431295 -1705042466 -177460620 -1841845191 -99834923 1601569713 -54456290 175686419 -650117758 1608652536 876086340 547378740 -1307734453 167585131 211683669 -1325769488 382970073 720538284 -115505540 -141204179 -1946974611 1514749504 -2065798533 -1305180633 69295302 243612156 1599930635 725605106 608984410 -461577770 -1484722150 -370207476 1508354691
REM
CELL 1.54180   50.00000   50.00000   50.00000   90.00000   90.00000   90.00000
LATT -1
SFAC C  
C      1  0.5708860000000  0.4482760000000  0.4837280000000 1.0
C      1  0.5743020000000  0.5131320000000  0.5479130000000 1.0
C      1  0.5733140000000  0.5385050000000  0.4618310000000 1.0
C      1  0.4417960000000  0.4490270000000  0.4833360000000 1.0
C      1  0.4355640000000  0.5127790000000  0.5491190000000 1.0
C      1  0.4385820000000  0.5379380000000  0.4620880000000 1.0
C      1  0.4542780000000  0.4909010000000  0.5311980000000 1.0
C      1  0.4556570000000  0.5320110000000  0.4907790000000 1.0
C      1  0.4582540000000  0.4776470000000  0.4754920000000 1.0
C      1  0.5560430000000  0.4910920000000  0.5297250000000 1.0
C      1  0.5546490000000  0.5318360000000  0.4893880000000 1.0
C      1  0.5556130000000  0.4770100000000  0.4742110000000 1.0
C      1  0.4790340000000  0.4684620000000  0.5310660000000 1.0
C      1  0.4797630000000  0.5401090000000  0.5121300000000 1.0
C      1  0.4815340000000  0.4917430000000  0.4556800000000 1.0
C      1  0.5314820000000  0.4685520000000  0.5295220000000 1.0
C      1  0.5305310000000  0.5409560000000  0.5107500000000 1.0
C      1  0.5327340000000  0.4908190000000  0.4539880000000 1.0
C      1  0.4550170000000  0.4685810000000  0.5076320000000 1.0
C      1  0.4531850000000  0.5227880000000  0.5219490000000 1.0
C      1  0.4554070000000  0.5089190000000  0.4669830000000 1.0
C      1  0.5557890000000  0.4683740000000  0.5064720000000 1.0
C      1  0.5567730000000  0.5230300000000  0.5206430000000 1.0
C      1  0.5583910000000  0.5083740000000  0.4659490000000 1.0
C      1  0.5050500000000  0.4618240000000  0.4679570000000 1.0
C      1  0.5058300000000  0.5007710000000  0.5642280000000 1.0
C      1  0.5055960000000  0.5457660000000  0.4799070000000 1.0
C      1  0.5032240000000  0.4759920000000  0.4905750000000 1.0
C      1  0.5070610000000  0.5084550000000  0.5386740000000 1.0
C      1  0.5089730000000  0.5187810000000  0.4833580000000 1.0
C      1  0.5074220000000  0.5008470000000  0.4595500000000 1.0
C      1  0.5051190000000  0.4676810000000  0.5212340000000 1.0
C      1  0.5053010000000  0.5354090000000  0.5211850000000 1.0
C      1  0.5222950000000  0.5015650000000  0.5089050000000 1.0
C      1  0.4881320000000  0.5012100000000  0.5080490000000 1.0
END
