TITL C-2782233-7966-1026 0.000786910799581526 125000 -734.697474849324 0 0 127 (C1) n - 1
REM
REM in /home/nfs/bkarasulu/CARBON/AIRSS/Generating-Clusters/REBO/Higher-Symm/SD-CG/HFTN-CG
REM
REM
REM
REM
REM
REM ./C.cell (12c818d87b63d06a65506943cc24bca4)
REM
REM compiler GCC version 9.2.1 20190827 (Red Hat 9.2.1-1)
REM options -cpp -mtune=generic -march=x86-64 -g -O0 -fpre-include=/usr/include/finclude/math-vector-fortran.h
REM seed 1415354317 503299316 -2004990673 -1435243884 1589106784 -405896949 -1850702950 665345549 -186442683 -269336774 2068836625 -132046415 -1738943746 575161037 -1427996065 1046168212 695238808 1662239098 684059666 1573621611 180986413 678594324 -2113392341 620373541 -514894603 -1824886273 1777561423 787913589 -922502927 -1344485698 917046684 93381987 -618783638
REM
CELL 1.54180   50.00000   50.00000   50.00000   90.00000   90.00000   90.00000
LATT -1
SFAC C  
C      1  0.5884810000000  0.4467170000000  0.4710970000000 1.0
C      1  0.5017500000000  0.4471480000000  0.4079480000000 1.0
C      1  0.4114750000000  0.4443050000000  0.4741860000000 1.0
C      1  0.4446810000000  0.4465030000000  0.5748190000000 1.0
C      1  0.5546270000000  0.4456970000000  0.5736110000000 1.0
C      1  0.5888870000000  0.5524120000000  0.5268890000000 1.0
C      1  0.4978840000000  0.5524300000000  0.5945040000000 1.0
C      1  0.4118230000000  0.5527120000000  0.5300100000000 1.0
C      1  0.4457850000000  0.5519060000000  0.4243690000000 1.0
C      1  0.5551480000000  0.5519260000000  0.4242890000000 1.0
C      1  0.5270110000000  0.5739960000000  0.4926110000000 1.0
C      1  0.5012400000000  0.5729290000000  0.4728530000000 1.0
C      1  0.4749870000000  0.5689830000000  0.4916900000000 1.0
C      1  0.4847160000000  0.5689340000000  0.5218270000000 1.0
C      1  0.5165390000000  0.5708490000000  0.5224080000000 1.0
C      1  0.5255810000000  0.4272900000000  0.5066300000000 1.0
C      1  0.4999480000000  0.4317160000000  0.5263640000000 1.0
C      1  0.4742460000000  0.4311800000000  0.5084070000000 1.0
C      1  0.4827390000000  0.4295620000000  0.4774090000000 1.0
C      1  0.5141570000000  0.4260880000000  0.4763960000000 1.0
C      1  0.4394130000000  0.5109520000000  0.5100200000000 1.0
C      1  0.4890660000000  0.5108510000000  0.5607140000000 1.0
C      1  0.5536610000000  0.5118620000000  0.5273270000000 1.0
C      1  0.5441060000000  0.5111300000000  0.4571200000000 1.0
C      1  0.4734570000000  0.5109910000000  0.4457900000000 1.0
C      1  0.4368930000000  0.4908880000000  0.4889880000000 1.0
C      1  0.4906340000000  0.4881750000000  0.4409740000000 1.0
C      1  0.5547120000000  0.4882180000000  0.4718580000000 1.0
C      1  0.5432260000000  0.4914180000000  0.5456650000000 1.0
C      1  0.4714990000000  0.4887810000000  0.5544290000000 1.0
C      1  0.5100120000000  0.4829280000000  0.4666600000000 1.0
C      1  0.4638490000000  0.4837240000000  0.4741600000000 1.0
C      1  0.4662000000000  0.4835620000000  0.5213170000000 1.0
C      1  0.5127370000000  0.4846060000000  0.5414430000000 1.0
C      1  0.5409840000000  0.4847250000000  0.5009110000000 1.0
C      1  0.5129200000000  0.5161520000000  0.5381470000000 1.0
C      1  0.4690520000000  0.5148550000000  0.5242540000000 1.0
C      1  0.4664150000000  0.5150500000000  0.4775830000000 1.0
C      1  0.5125210000000  0.5144390000000  0.4616940000000 1.0
C      1  0.5363760000000  0.5162500000000  0.5002200000000 1.0
C      1  0.4087260000000  0.4727540000000  0.4875840000000 1.0
C      1  0.4564970000000  0.4757190000000  0.5823480000000 1.0
C      1  0.5650570000000  0.4735010000000  0.5634950000000 1.0
C      1  0.5831540000000  0.4756330000000  0.4579290000000 1.0
C      1  0.4872240000000  0.4759040000000  0.4092500000000 1.0
C      1  0.4083350000000  0.5237360000000  0.5158590000000 1.0
C      1  0.4587070000000  0.5231930000000  0.4174710000000 1.0
C      1  0.5661680000000  0.5233520000000  0.4341070000000 1.0
C      1  0.5826990000000  0.5237560000000  0.5405870000000 1.0
C      1  0.4841670000000  0.5230640000000  0.5924820000000 1.0
C      1  0.4421230000000  0.5716950000000  0.4890870000000 1.0
C      1  0.4700670000000  0.5721090000000  0.5518640000000 1.0
C      1  0.5417050000000  0.5731130000000  0.5437900000000 1.0
C      1  0.5555320000000  0.5729390000000  0.4741300000000 1.0
C      1  0.4931550000000  0.5725500000000  0.4406270000000 1.0
C      1  0.4420660000000  0.4266300000000  0.5153840000000 1.0
C      1  0.4701830000000  0.4268290000000  0.4468630000000 1.0
C      1  0.5404660000000  0.4269580000000  0.4551580000000 1.0
C      1  0.5543800000000  0.4262710000000  0.5229180000000 1.0
C      1  0.4931390000000  0.4278470000000  0.5586120000000 1.0
C      1  0.5560950000000  0.4551710000000  0.4786820000000 1.0
C      1  0.4979320000000  0.4548450000000  0.4411840000000 1.0
C      1  0.4424270000000  0.4516310000000  0.4844440000000 1.0
C      1  0.4659830000000  0.4554970000000  0.5495280000000 1.0
C      1  0.5357380000000  0.4521460000000  0.5468730000000 1.0
C      1  0.5561900000000  0.5448300000000  0.5197440000000 1.0
C      1  0.4967350000000  0.5441250000000  0.5613150000000 1.0
C      1  0.4425540000000  0.5439030000000  0.5176430000000 1.0
C      1  0.4669040000000  0.5440900000000  0.4502430000000 1.0
C      1  0.5379170000000  0.5440520000000  0.4529230000000 1.0
C      1  0.4628840000000  0.5759360000000  0.4375350000000 1.0
C      1  0.4303070000000  0.5760820000000  0.5170470000000 1.0
C      1  0.4921330000000  0.5761880000000  0.5729530000000 1.0
C      1  0.5673600000000  0.5765870000000  0.5273580000000 1.0
C      1  0.5484730000000  0.5760020000000  0.4445100000000 1.0
C      1  0.4628630000000  0.4232450000000  0.5612390000000 1.0
C      1  0.4280520000000  0.4201090000000  0.4882950000000 1.0
C      1  0.4941620000000  0.4230860000000  0.4281060000000 1.0
C      1  0.5665520000000  0.4230980000000  0.4708110000000 1.0
C      1  0.5487930000000  0.4214300000000  0.5530570000000 1.0
C      1  0.5456310000000  0.5514340000000  0.5625890000000 1.0
C      1  0.5737100000000  0.5504510000000  0.4769930000000 1.0
C      1  0.5017730000000  0.5504220000000  0.4240560000000 1.0
C      1  0.4278440000000  0.5499200000000  0.4763970000000 1.0
C      1  0.4534240000000  0.5498960000000  0.5609360000000 1.0
C      1  0.5439220000000  0.4494290000000  0.4372200000000 1.0
C      1  0.5725330000000  0.4486930000000  0.5200470000000 1.0
C      1  0.5004910000000  0.4493890000000  0.5766400000000 1.0
C      1  0.4280830000000  0.4488390000000  0.5279620000000 1.0
C      1  0.4535940000000  0.4482330000000  0.4365670000000 1.0
C      1  0.4099650000000  0.4964410000000  0.5327510000000 1.0
C      1  0.5010990000000  0.4963460000000  0.5959310000000 1.0
C      1  0.5904420000000  0.4963630000000  0.5257830000000 1.0
C      1  0.5545630000000  0.4966070000000  0.4214210000000 1.0
C      1  0.4431650000000  0.4963170000000  0.4242070000000 1.0
C      1  0.4125300000000  0.4997660000000  0.4681320000000 1.0
C      1  0.5037490000000  0.5027490000000  0.4061310000000 1.0
C      1  0.5919220000000  0.5026570000000  0.4726920000000 1.0
C      1  0.5509980000000  0.5006510000000  0.5767650000000 1.0
C      1  0.4407330000000  0.5026080000000  0.5758030000000 1.0
C      1  0.4558820000000  0.5260810000000  0.5769750000000 1.0
C      1  0.5600090000000  0.5279590000000  0.5636800000000 1.0
C      1  0.5806290000000  0.5263260000000  0.4628260000000 1.0
C      1  0.4905870000000  0.5263240000000  0.4131150000000 1.0
C      1  0.4139980000000  0.5272860000000  0.4838420000000 1.0
C      1  0.4581330000000  0.4728810000000  0.4225840000000 1.0
C      1  0.5602020000000  0.4730380000000  0.4352900000000 1.0
C      1  0.5790040000000  0.4724420000000  0.5349090000000 1.0
C      1  0.4882890000000  0.4730810000000  0.5873460000000 1.0
C      1  0.4139310000000  0.4722830000000  0.5190350000000 1.0
C      1  0.4628870000000  0.5379230000000  0.4922380000000 1.0
C      1  0.4801530000000  0.5384330000000  0.5333820000000 1.0
C      1  0.5250660000000  0.5395740000000  0.5304220000000 1.0
C      1  0.5299340000000  0.5436390000000  0.4825830000000 1.0
C      1  0.4934030000000  0.5421650000000  0.4664490000000 1.0
C      1  0.4597150000000  0.4613750000000  0.5069470000000 1.0
C      1  0.4769300000000  0.4607480000000  0.4664910000000 1.0
C      1  0.5255070000000  0.4558270000000  0.4782030000000 1.0
C      1  0.5303800000000  0.4577040000000  0.5178600000000 1.0
C      1  0.4968090000000  0.4622380000000  0.5389580000000 1.0
C      1  0.4204640000000  0.4983060000000  0.4388810000000 1.0
C      1  0.4183780000000  0.4996220000000  0.5592850000000 1.0
C      1  0.5315130000000  0.4997930000000  0.4059550000000 1.0
C      1  0.5994650000000  0.4994970000000  0.4994510000000 1.0
C      1  0.5280890000000  0.4987680000000  0.5965390000000 1.0
C      1  0.5080910000000  0.4756410000000  0.4996850000000 1.0
C      1  0.5040760000000  0.5242870000000  0.4932480000000 1.0
END
