TITL C-2782230-7391-89 0.0043815831311396 125000 -494.412895641092 0 0 87 (C2) n - 1
REM
REM in /home/nfs/bkarasulu/CARBON/AIRSS/Generating-Clusters/REBO/Higher-Symm/SD-CG/HFTN-CG
REM
REM
REM
REM
REM
REM ./C.cell (12c818d87b63d06a65506943cc24bca4)
REM
REM compiler GCC version 9.2.1 20190827 (Red Hat 9.2.1-1)
REM options -cpp -mtune=generic -march=x86-64 -g -O0 -fpre-include=/usr/include/finclude/math-vector-fortran.h
REM seed -594582797 -1678300597 424580708 -314399413 -1357225212 -1831660423 -18659995 507886829 732479703 -2524290 785984623 1674346592 -1369705928 1511915938 1483208566 112490113 1308408887 -313821228 -109312319 486200024 -819311496 1921754305 -957767606 -1915393550 2063429390 496268833 -227125767 886074066 -2068686701 -1586954028 -206832843 1030222697 708999064
REM
CELL 1.54180   50.00000   50.00000   50.00000   90.00000   90.00000   90.00000
LATT -1
SFAC C  
C      1  0.5655260000000  0.4742910000000  0.5316030000000 1.0
C      1  0.5655240000000  0.5258490000000  0.4685950000000 1.0
C      1  0.4324060000000  0.4751900000000  0.5368340000000 1.0
C      1  0.4324040000000  0.5249450000000  0.4633680000000 1.0
C      1  0.4827320000000  0.5404000000000  0.5410100000000 1.0
C      1  0.4827320000000  0.4597370000000  0.4591900000000 1.0
C      1  0.5160420000000  0.5395040000000  0.5374730000000 1.0
C      1  0.5160420000000  0.4606340000000  0.4627270000000 1.0
C      1  0.5428410000000  0.5215250000000  0.4434890000000 1.0
C      1  0.5428440000000  0.4786140000000  0.5567100000000 1.0
C      1  0.4556000000000  0.5213670000000  0.4385530000000 1.0
C      1  0.4556030000000  0.4787690000000  0.5616480000000 1.0
C      1  0.4373810000000  0.5542980000000  0.5157940000000 1.0
C      1  0.4373830000000  0.4458370000000  0.4844080000000 1.0
C      1  0.5617890000000  0.5558510000000  0.5174110000000 1.0
C      1  0.5617900000000  0.4442880000000  0.4827870000000 1.0
C      1  0.4330700000000  0.4483960000000  0.5183270000000 1.0
C      1  0.4330680000000  0.5517390000000  0.4818750000000 1.0
C      1  0.5675990000000  0.4470070000000  0.5164110000000 1.0
C      1  0.5675970000000  0.5531330000000  0.4837870000000 1.0
C      1  0.4797220000000  0.4263010000000  0.4560290000000 1.0
C      1  0.4797210000000  0.5738360000000  0.5441720000000 1.0
C      1  0.5092830000000  0.4303860000000  0.4630200000000 1.0
C      1  0.5092820000000  0.5697520000000  0.5371790000000 1.0
C      1  0.5187210000000  0.4523120000000  0.5128850000000 1.0
C      1  0.5187190000000  0.5478260000000  0.4873140000000 1.0
C      1  0.4899420000000  0.4512940000000  0.5111150000000 1.0
C      1  0.4899400000000  0.5488430000000  0.4890850000000 1.0
C      1  0.5801460000000  0.4987590000000  0.4801510000000 1.0
C      1  0.5801470000000  0.5013810000000  0.5200460000000 1.0
C      1  0.4223810000000  0.4976780000000  0.4789320000000 1.0
C      1  0.4223820000000  0.5024570000000  0.5212700000000 1.0
C      1  0.5388470000000  0.4705460000000  0.5021260000000 1.0
C      1  0.5388460000000  0.5295930000000  0.4980730000000 1.0
C      1  0.4668560000000  0.4669740000000  0.5011490000000 1.0
C      1  0.4668550000000  0.5331620000000  0.4990520000000 1.0
C      1  0.5472130000000  0.5722400000000  0.4717940000000 1.0
C      1  0.5472160000000  0.4278990000000  0.5284040000000 1.0
C      1  0.4537570000000  0.5721040000000  0.4713660000000 1.0
C      1  0.4537600000000  0.4280320000000  0.5288350000000 1.0
C      1  0.5260490000000  0.5562830000000  0.4579230000000 1.0
C      1  0.5260520000000  0.4438560000000  0.5422760000000 1.0
C      1  0.4782040000000  0.5590290000000  0.4629750000000 1.0
C      1  0.4782070000000  0.4411080000000  0.5372250000000 1.0
C      1  0.5249760000000  0.4983610000000  0.4283020000000 1.0
C      1  0.5249780000000  0.5017770000000  0.5718970000000 1.0
C      1  0.4733040000000  0.4962030000000  0.4282970000000 1.0
C      1  0.4733060000000  0.5039340000000  0.5719040000000 1.0
C      1  0.4558810000000  0.4221100000000  0.4989490000000 1.0
C      1  0.4558790000000  0.5780260000000  0.5012520000000 1.0
C      1  0.5413620000000  0.4224520000000  0.4989920000000 1.0
C      1  0.5413600000000  0.5776870000000  0.5012070000000 1.0
C      1  0.4458820000000  0.4892860000000  0.4472920000000 1.0
C      1  0.4458830000000  0.5108490000000  0.5529100000000 1.0
C      1  0.5525250000000  0.4881930000000  0.4454830000000 1.0
C      1  0.5525270000000  0.5119460000000  0.5547150000000 1.0
C      1  0.5682990000000  0.5233280000000  0.5100130000000 1.0
C      1  0.5682990000000  0.4768120000000  0.4901840000000 1.0
C      1  0.4357470000000  0.5217150000000  0.5079360000000 1.0
C      1  0.4357470000000  0.4784200000000  0.4922660000000 1.0
C      1  0.4588790000000  0.5135240000000  0.4774620000000 1.0
C      1  0.4588800000000  0.4866130000000  0.5227390000000 1.0
C      1  0.5409070000000  0.5051140000000  0.4797560000000 1.0
C      1  0.5409080000000  0.4950240000000  0.5204430000000 1.0
C      1  0.5149900000000  0.4171460000000  0.4892910000000 1.0
C      1  0.5149880000000  0.5829920000000  0.5109080000000 1.0
C      1  0.4807570000000  0.4151120000000  0.4860290000000 1.0
C      1  0.4807540000000  0.5850250000000  0.5141720000000 1.0
C      1  0.4833550000000  0.5396540000000  0.4417900000000 1.0
C      1  0.4833590000000  0.4604830000000  0.5584100000000 1.0
C      1  0.5123740000000  0.5367810000000  0.4394680000000 1.0
C      1  0.5123770000000  0.4633570000000  0.5607320000000 1.0
C      1  0.4773540000000  0.5090730000000  0.5283950000000 1.0
C      1  0.4773530000000  0.4910640000000  0.4718060000000 1.0
C      1  0.5164040000000  0.5093320000000  0.5240400000000 1.0
C      1  0.5164030000000  0.4908060000000  0.4761590000000 1.0
C      1  0.4866570000000  0.5038220000000  0.6000310000000 1.0
C      1  0.4866530000000  0.4963150000000  0.4001700000000 1.0
C      1  0.5121860000000  0.5023670000000  0.5999280000000 1.0
C      1  0.5121830000000  0.4977710000000  0.4002710000000 1.0
C      1  0.4514420000000  0.5366200000000  0.5412650000000 1.0
C      1  0.4514420000000  0.4635160000000  0.4589360000000 1.0
C      1  0.5464410000000  0.5364660000000  0.5405240000000 1.0
C      1  0.5464410000000  0.4636730000000  0.4596740000000 1.0
C      1  0.5000130000000  0.5067750000000  0.5537720000000 1.0
C      1  0.5000110000000  0.4933630000000  0.4464280000000 1.0
C      1  0.4944640000000  0.5000690000000  0.5001000000000 1.0
END
