TITL C-2782233-7966-118 -0.00714390638566077 125000 -1012.46590967447 0 0 173 (C1) n - 1
REM
REM in /home/nfs/bkarasulu/CARBON/AIRSS/Generating-Clusters/REBO/Higher-Symm/SD-CG/HFTN-CG
REM
REM
REM
REM
REM
REM ./C.cell (12c818d87b63d06a65506943cc24bca4)
REM
REM compiler GCC version 9.2.1 20190827 (Red Hat 9.2.1-1)
REM options -cpp -mtune=generic -march=x86-64 -g -O0 -fpre-include=/usr/include/finclude/math-vector-fortran.h
REM seed -749217875 -661447756 1937280340 975012388 -1007696409 1408596974 1094213161 559078339 -1071830111 723802459 -787650761 261216071 648849712 -1588512308 -1645912163 -182937197 -438634529 462212131 -1517715225 -55651559 1623273302 -1733968411 741611255 -27628441 -1362805631 -740460213 1561637379 -160103033 -2089911422 2053310718 530566578 1548938682 -1547893436
REM
CELL 1.54180   50.00000   50.00000   50.00000   90.00000   90.00000   90.00000
LATT -1
SFAC C  
C      1  0.5732670000000  0.5903010000000  0.4898520000000 1.0
C      1  0.4320300000000  0.4111920000000  0.4981100000000 1.0
C      1  0.4775620000000  0.5015050000000  0.5418850000000 1.0
C      1  0.5223530000000  0.4969800000000  0.4601530000000 1.0
C      1  0.5743980000000  0.4694260000000  0.4286200000000 1.0
C      1  0.4214310000000  0.5356510000000  0.5616450000000 1.0
C      1  0.5474820000000  0.5148100000000  0.4665380000000 1.0
C      1  0.4449490000000  0.4973430000000  0.5376060000000 1.0
C      1  0.4369050000000  0.4500990000000  0.4360160000000 1.0
C      1  0.5693450000000  0.5447450000000  0.5687160000000 1.0
C      1  0.6042700000000  0.5174540000000  0.5437980000000 1.0
C      1  0.4052980000000  0.4696440000000  0.4673970000000 1.0
C      1  0.4304320000000  0.5232520000000  0.4421180000000 1.0
C      1  0.5656210000000  0.4618330000000  0.5425970000000 1.0
C      1  0.4965940000000  0.5870680000000  0.4627390000000 1.0
C      1  0.4991020000000  0.4080120000000  0.5405940000000 1.0
C      1  0.4557850000000  0.4304930000000  0.4265590000000 1.0
C      1  0.5553670000000  0.5736930000000  0.5572880000000 1.0
C      1  0.5135710000000  0.5135890000000  0.5776510000000 1.0
C      1  0.4849890000000  0.4963530000000  0.4271320000000 1.0
C      1  0.5725480000000  0.4412900000000  0.4317050000000 1.0
C      1  0.4287050000000  0.5619410000000  0.5637110000000 1.0
C      1  0.4068490000000  0.4862870000000  0.5069360000000 1.0
C      1  0.5910610000000  0.5148800000000  0.4848390000000 1.0
C      1  0.4661790000000  0.5911280000000  0.5221550000000 1.0
C      1  0.5455970000000  0.3977440000000  0.4732150000000 1.0
C      1  0.5030300000000  0.5445070000000  0.4557290000000 1.0
C      1  0.4960650000000  0.4638930000000  0.5587380000000 1.0
C      1  0.4752640000000  0.5561020000000  0.5388340000000 1.0
C      1  0.5314840000000  0.4330130000000  0.4690730000000 1.0
C      1  0.5919340000000  0.4180770000000  0.4902940000000 1.0
C      1  0.4178030000000  0.5844170000000  0.5043290000000 1.0
C      1  0.5729510000000  0.3753600000000  0.5095920000000 1.0
C      1  0.4499610000000  0.6136290000000  0.4793840000000 1.0
C      1  0.5180770000000  0.4130740000000  0.5180880000000 1.0
C      1  0.4931480000000  0.5689600000000  0.4878440000000 1.0
C      1  0.4443790000000  0.5140880000000  0.5674260000000 1.0
C      1  0.5515470000000  0.4811550000000  0.4143630000000 1.0
C      1  0.4806590000000  0.5327450000000  0.4764630000000 1.0
C      1  0.5251770000000  0.4653130000000  0.5317610000000 1.0
C      1  0.4803460000000  0.3842050000000  0.5374080000000 1.0
C      1  0.5141340000000  0.6131670000000  0.4605040000000 1.0
C      1  0.5252490000000  0.4830470000000  0.4326460000000 1.0
C      1  0.4752280000000  0.5210170000000  0.5693870000000 1.0
C      1  0.5745170000000  0.4811780000000  0.5655320000000 1.0
C      1  0.4113120000000  0.5036860000000  0.4266250000000 1.0
C      1  0.5476410000000  0.4229540000000  0.5041770000000 1.0
C      1  0.4621010000000  0.5644190000000  0.4921770000000 1.0
C      1  0.5709180000000  0.5143860000000  0.4418280000000 1.0
C      1  0.4208310000000  0.4833740000000  0.5577660000000 1.0
C      1  0.4957890000000  0.4106810000000  0.4432840000000 1.0
C      1  0.5082910000000  0.5933730000000  0.5518500000000 1.0
C      1  0.5913630000000  0.4877610000000  0.4739310000000 1.0
C      1  0.4073160000000  0.5132270000000  0.5205900000000 1.0
C      1  0.5238360000000  0.4517250000000  0.4220290000000 1.0
C      1  0.4791340000000  0.5491340000000  0.5778740000000 1.0
C      1  0.5759930000000  0.4655300000000  0.4918050000000 1.0
C      1  0.4241870000000  0.5355010000000  0.5065950000000 1.0
C      1  0.5611140000000  0.5687640000000  0.4388270000000 1.0
C      1  0.4409990000000  0.4327810000000  0.5531730000000 1.0
C      1  0.4642830000000  0.4087520000000  0.4445760000000 1.0
C      1  0.5408750000000  0.5956000000000  0.5441060000000 1.0
C      1  0.4526130000000  0.5558130000000  0.4387840000000 1.0
C      1  0.5514980000000  0.4332010000000  0.5825310000000 1.0
C      1  0.4987590000000  0.5295170000000  0.3837480000000 1.0
C      1  0.4765830000000  0.4902230000000  0.6203590000000 1.0
C      1  0.5317730000000  0.5573900000000  0.5729510000000 1.0
C      1  0.4788980000000  0.4457390000000  0.4172870000000 1.0
C      1  0.4648950000000  0.4722440000000  0.5816360000000 1.0
C      1  0.5247870000000  0.5371260000000  0.4206140000000 1.0
C      1  0.5515010000000  0.5233460000000  0.5659740000000 1.0
C      1  0.4504570000000  0.4754720000000  0.4364990000000 1.0
C      1  0.4904190000000  0.4916230000000  0.5779430000000 1.0
C      1  0.5129580000000  0.5084900000000  0.4145030000000 1.0
C      1  0.4950890000000  0.4307290000000  0.5858490000000 1.0
C      1  0.5040850000000  0.5641450000000  0.4189900000000 1.0
C      1  0.5068130000000  0.4848880000000  0.3618100000000 1.0
C      1  0.4467860000000  0.5259520000000  0.6340570000000 1.0
C      1  0.4555900000000  0.3882550000000  0.5350160000000 1.0
C      1  0.5389800000000  0.6128860000000  0.4575300000000 1.0
C      1  0.5089570000000  0.4119730000000  0.5706760000000 1.0
C      1  0.4846610000000  0.5758040000000  0.4354000000000 1.0
C      1  0.4533740000000  0.5057760000000  0.6170290000000 1.0
C      1  0.5164740000000  0.5023200000000  0.3812290000000 1.0
C      1  0.4375490000000  0.5001990000000  0.5937420000000 1.0
C      1  0.5466870000000  0.4947370000000  0.3909980000000 1.0
C      1  0.5043420000000  0.5168270000000  0.5166060000000 1.0
C      1  0.4968160000000  0.4744940000000  0.4855440000000 1.0
C      1  0.5586190000000  0.5898090000000  0.4616830000000 1.0
C      1  0.4426670000000  0.4146660000000  0.5284260000000 1.0
C      1  0.4464030000000  0.4473670000000  0.4801140000000 1.0
C      1  0.5750790000000  0.5613480000000  0.5337660000000 1.0
C      1  0.4510890000000  0.5416390000000  0.4703130000000 1.0
C      1  0.5362350000000  0.4365640000000  0.5328170000000 1.0
C      1  0.3967890000000  0.4599350000000  0.5096990000000 1.0
C      1  0.6049200000000  0.5394050000000  0.4801760000000 1.0
C      1  0.5464940000000  0.5936320000000  0.5106170000000 1.0
C      1  0.4547280000000  0.4084090000000  0.4772670000000 1.0
C      1  0.5243180000000  0.5697100000000  0.4541250000000 1.0
C      1  0.4821200000000  0.4351740000000  0.5484280000000 1.0
C      1  0.4729120000000  0.4372910000000  0.4708070000000 1.0
C      1  0.5251630000000  0.5680830000000  0.5194280000000 1.0
C      1  0.4245700000000  0.4492980000000  0.4619860000000 1.0
C      1  0.5939790000000  0.5428350000000  0.5494150000000 1.0
C      1  0.5093690000000  0.4585080000000  0.5898350000000 1.0
C      1  0.4810770000000  0.5360660000000  0.4353860000000 1.0
C      1  0.4878090000000  0.4011150000000  0.4727800000000 1.0
C      1  0.5173750000000  0.6070350000000  0.5220310000000 1.0
C      1  0.4817590000000  0.4707180000000  0.5281480000000 1.0
C      1  0.5176230000000  0.5472700000000  0.4864620000000 1.0
C      1  0.5875660000000  0.4950310000000  0.5406720000000 1.0
C      1  0.4104920000000  0.4973920000000  0.4604900000000 1.0
C      1  0.4143100000000  0.4372700000000  0.5113880000000 1.0
C      1  0.5950000000000  0.5639050000000  0.4864980000000 1.0
C      1  0.5156350000000  0.4078500000000  0.4859300000000 1.0
C      1  0.4948850000000  0.5842050000000  0.5153570000000 1.0
C      1  0.5459930000000  0.4314920000000  0.4182590000000 1.0
C      1  0.4562940000000  0.5678200000000  0.5783230000000 1.0
C      1  0.4966400000000  0.4740930000000  0.6132360000000 1.0
C      1  0.4806610000000  0.5368410000000  0.4018030000000 1.0
C      1  0.5337670000000  0.5758660000000  0.4218910000000 1.0
C      1  0.4642690000000  0.4325770000000  0.5775700000000 1.0
C      1  0.5599890000000  0.4314440000000  0.5533020000000 1.0
C      1  0.4200860000000  0.5518420000000  0.4474890000000 1.0
C      1  0.5468970000000  0.4526730000000  0.4884360000000 1.0
C      1  0.4527250000000  0.5444710000000  0.5173750000000 1.0
C      1  0.4650940000000  0.4435850000000  0.5236690000000 1.0
C      1  0.5457220000000  0.5634780000000  0.4801100000000 1.0
C      1  0.5379830000000  0.5371750000000  0.5121730000000 1.0
C      1  0.4674380000000  0.4807830000000  0.4983520000000 1.0
C      1  0.4506760000000  0.5372520000000  0.4097830000000 1.0
C      1  0.5398480000000  0.4568140000000  0.5906900000000 1.0
C      1  0.4398240000000  0.4950090000000  0.5062360000000 1.0
C      1  0.5595870000000  0.5188960000000  0.4952020000000 1.0
C      1  0.5492440000000  0.4878510000000  0.5320330000000 1.0
C      1  0.4592770000000  0.5136190000000  0.4431050000000 1.0
C      1  0.5722280000000  0.4913930000000  0.5107670000000 1.0
C      1  0.4309840000000  0.5159230000000  0.4807440000000 1.0
C      1  0.5142030000000  0.4316220000000  0.4422670000000 1.0
C      1  0.4943730000000  0.5726190000000  0.5632680000000 1.0
C      1  0.5376770000000  0.5167910000000  0.5386210000000 1.0
C      1  0.4652390000000  0.4875280000000  0.4647470000000 1.0
C      1  0.5731350000000  0.5294740000000  0.4129940000000 1.0
C      1  0.4253550000000  0.4738080000000  0.5901400000000 1.0
C      1  0.5479060000000  0.5387580000000  0.4455720000000 1.0
C      1  0.4463390000000  0.4626630000000  0.5582730000000 1.0
C      1  0.4800520000000  0.5315880000000  0.5061440000000 1.0
C      1  0.5259270000000  0.4701040000000  0.5009400000000 1.0
C      1  0.5050910000000  0.5447600000000  0.5343690000000 1.0
C      1  0.4908370000000  0.4570000000000  0.4623780000000 1.0
C      1  0.5406000000000  0.5054830000000  0.5869380000000 1.0
C      1  0.4560970000000  0.4900040000000  0.4110680000000 1.0
C      1  0.4093510000000  0.5118660000000  0.5483890000000 1.0
C      1  0.5849530000000  0.4883810000000  0.4464720000000 1.0
C      1  0.5914780000000  0.4416680000000  0.5042660000000 1.0
C      1  0.4091550000000  0.5599490000000  0.4955000000000 1.0
C      1  0.4525740000000  0.5801090000000  0.5477740000000 1.0
C      1  0.5534740000000  0.4180190000000  0.4478380000000 1.0
C      1  0.5146040000000  0.5382170000000  0.5632740000000 1.0
C      1  0.4891180000000  0.4655870000000  0.4356630000000 1.0
C      1  0.5547590000000  0.4809050000000  0.5866490000000 1.0
C      1  0.4368780000000  0.5109190000000  0.4052630000000 1.0
C      1  0.5855660000000  0.4389420000000  0.5319040000000 1.0
C      1  0.4035790000000  0.5582560000000  0.4678240000000 1.0
C      1  0.5676900000000  0.3986000000000  0.4954980000000 1.0
C      1  0.4468760000000  0.5925380000000  0.4972480000000 1.0
C      1  0.4445580000000  0.4511880000000  0.5964630000000 1.0
C      1  0.5541950000000  0.5519480000000  0.4089410000000 1.0
C      1  0.4419270000000  0.4485130000000  0.5072280000000 1.0
C      1  0.5687480000000  0.5612160000000  0.5052120000000 1.0
C      1  0.5110120000000  0.4952580000000  0.5397480000000 1.0
C      1  0.4921270000000  0.5068270000000  0.4631510000000 1.0
C      1  0.5165710000000  0.5005000000000  0.4936040000000 1.0
END
