TITL C-2782229-3092-1120 -0.000771311125186019 125000 -464.962483040966 0 0 80 (C1) n - 1
REM
REM in /home/nfs/bkarasulu/CARBON/AIRSS/Generating-Clusters/REBO/Higher-Symm/SD-CG/HFTN-CG
REM
REM
REM
REM
REM
REM ./C.cell (12c818d87b63d06a65506943cc24bca4)
REM
REM compiler GCC version 9.2.1 20190827 (Red Hat 9.2.1-1)
REM options -cpp -mtune=generic -march=x86-64 -g -O0 -fpre-include=/usr/include/finclude/math-vector-fortran.h
REM seed -114849012 600947980 -525529432 2048316400 1865477308 75278608 -1211522282 -1544776612 1528286406 -1791824381 287019412 -594652722 -726803327 2060463271 1706653528 874688981 -183112700 1436939262 -642477518 -2081148660 -1472911080 219139913 1009768504 -399026907 -910141195 -1418157578 113823758 1668017333 -503829812 -1963841353 -1457871099 1265037673 1362871059
REM
CELL 1.54180   50.00000   50.00000   50.00000   90.00000   90.00000   90.00000
LATT -1
SFAC C  
C      1  0.5241620000000  0.4707650000000  0.4041240000000 1.0
C      1  0.4998710000000  0.5051090000000  0.4365870000000 1.0
C      1  0.4752040000000  0.4192430000000  0.5296570000000 1.0
C      1  0.5245020000000  0.5814880000000  0.5382140000000 1.0
C      1  0.5282920000000  0.4414040000000  0.4958710000000 1.0
C      1  0.4681520000000  0.5630990000000  0.5051200000000 1.0
C      1  0.4992960000000  0.5270400000000  0.5021830000000 1.0
C      1  0.4960540000000  0.4744910000000  0.4947010000000 1.0
C      1  0.5379570000000  0.5144900000000  0.4580980000000 1.0
C      1  0.4575360000000  0.4950970000000  0.4608400000000 1.0
C      1  0.4679330000000  0.4259710000000  0.4826330000000 1.0
C      1  0.5281500000000  0.5801140000000  0.4896000000000 1.0
C      1  0.5517480000000  0.5615530000000  0.4925090000000 1.0
C      1  0.4446330000000  0.4436640000000  0.4898960000000 1.0
C      1  0.5153130000000  0.5922850000000  0.5129870000000 1.0
C      1  0.4824130000000  0.4114560000000  0.5028080000000 1.0
C      1  0.5272780000000  0.5317420000000  0.5510980000000 1.0
C      1  0.4737210000000  0.4659970000000  0.5497860000000 1.0
C      1  0.4252090000000  0.5232180000000  0.4879680000000 1.0
C      1  0.5714060000000  0.4832580000000  0.4786300000000 1.0
C      1  0.5740580000000  0.5741520000000  0.5385690000000 1.0
C      1  0.4251750000000  0.4265400000000  0.5332140000000 1.0
C      1  0.5074670000000  0.5084450000000  0.5528900000000 1.0
C      1  0.4924260000000  0.4897080000000  0.5531830000000 1.0
C      1  0.4212860000000  0.4525840000000  0.5445570000000 1.0
C      1  0.5780270000000  0.5447960000000  0.5411510000000 1.0
C      1  0.4742380000000  0.5170560000000  0.4952480000000 1.0
C      1  0.5198980000000  0.4859270000000  0.4794530000000 1.0
C      1  0.5500460000000  0.5288210000000  0.5013480000000 1.0
C      1  0.4469320000000  0.4744650000000  0.5040640000000 1.0
C      1  0.5112760000000  0.4922960000000  0.3926240000000 1.0
C      1  0.5138330000000  0.4839180000000  0.4492670000000 1.0
C      1  0.4862120000000  0.5919350000000  0.5086600000000 1.0
C      1  0.5105140000000  0.4122890000000  0.4958440000000 1.0
C      1  0.4098400000000  0.4988630000000  0.5312560000000 1.0
C      1  0.5907220000000  0.5024080000000  0.5214960000000 1.0
C      1  0.5498780000000  0.5244980000000  0.5730500000000 1.0
C      1  0.4534580000000  0.4638670000000  0.5745940000000 1.0
C      1  0.4100070000000  0.4627140000000  0.4943910000000 1.0
C      1  0.5866420000000  0.5426900000000  0.4896860000000 1.0
C      1  0.5170180000000  0.4284340000000  0.4665710000000 1.0
C      1  0.4809730000000  0.5807060000000  0.4789550000000 1.0
C      1  0.4030340000000  0.5399750000000  0.4860510000000 1.0
C      1  0.5934420000000  0.4669070000000  0.4736190000000 1.0
C      1  0.5252190000000  0.4644370000000  0.4318190000000 1.0
C      1  0.4975720000000  0.5113710000000  0.4088800000000 1.0
C      1  0.4044700000000  0.4695730000000  0.5266770000000 1.0
C      1  0.5951070000000  0.5324290000000  0.5206650000000 1.0
C      1  0.5034120000000  0.4532710000000  0.5127280000000 1.0
C      1  0.4953580000000  0.5498810000000  0.5191720000000 1.0
C      1  0.5772120000000  0.5099720000000  0.4931090000000 1.0
C      1  0.4201260000000  0.4950990000000  0.5005090000000 1.0
C      1  0.4279960000000  0.4583590000000  0.4658310000000 1.0
C      1  0.5659950000000  0.5521240000000  0.4647270000000 1.0
C      1  0.5516600000000  0.4721750000000  0.5258710000000 1.0
C      1  0.4419150000000  0.5287110000000  0.5565070000000 1.0
C      1  0.4848240000000  0.4309060000000  0.4614090000000 1.0
C      1  0.5081550000000  0.5771530000000  0.4687020000000 1.0
C      1  0.5537780000000  0.5261340000000  0.5333620000000 1.0
C      1  0.4447480000000  0.4747250000000  0.5371580000000 1.0
C      1  0.4193580000000  0.4315100000000  0.5053570000000 1.0
C      1  0.5783200000000  0.5692760000000  0.5095560000000 1.0
C      1  0.5240480000000  0.5167080000000  0.4884370000000 1.0
C      1  0.4702140000000  0.4877590000000  0.4890880000000 1.0
C      1  0.4349680000000  0.4811230000000  0.5754000000000 1.0
C      1  0.5656940000000  0.5056010000000  0.5670660000000 1.0
C      1  0.5505960000000  0.5868950000000  0.5477230000000 1.0
C      1  0.4493290000000  0.4128980000000  0.5394650000000 1.0
C      1  0.5132410000000  0.5556180000000  0.5400050000000 1.0
C      1  0.4869620000000  0.4446530000000  0.5339060000000 1.0
C      1  0.4327520000000  0.5032140000000  0.5518550000000 1.0
C      1  0.5678150000000  0.4926820000000  0.5390510000000 1.0
C      1  0.4444780000000  0.5194040000000  0.4620750000000 1.0
C      1  0.5526590000000  0.4914600000000  0.4545480000000 1.0
C      1  0.4425980000000  0.4739470000000  0.4492850000000 1.0
C      1  0.5499110000000  0.5381080000000  0.4481330000000 1.0
C      1  0.5446760000000  0.4688170000000  0.4899420000000 1.0
C      1  0.4533580000000  0.5364140000000  0.4970610000000 1.0
C      1  0.4840650000000  0.5327640000000  0.3991260000000 1.0
C      1  0.5321820000000  0.4393520000000  0.4427460000000 1.0
END
