TITL C-2782234-8014-1421 0.00123174701358608 125000 -294.318128602989 0 0 51 (C1) n - 1
REM
REM in /home/nfs/bkarasulu/CARBON/AIRSS/Generating-Clusters/REBO/Higher-Symm/SD-CG/HFTN-CG
REM
REM
REM
REM
REM
REM ./C.cell (12c818d87b63d06a65506943cc24bca4)
REM
REM compiler GCC version 9.2.1 20190827 (Red Hat 9.2.1-1)
REM options -cpp -mtune=generic -march=x86-64 -g -O0 -fpre-include=/usr/include/finclude/math-vector-fortran.h
REM seed -1981527502 -1072930644 -375847064 2025934393 502494300 -393174903 1383298950 -1785017702 -1068066605 -652273846 535614443 -824245269 1108242716 1168291102 -1020825922 -1312822936 -924321945 -1948559628 -2061821972 2089702118 -18016064 -645991485 -1149040575 -49547437 2041749505 1839926305 1843494241 882982472 956354355 1433482379 -636202262 -933631392 899469096
REM
CELL 1.54180   50.00000   50.00000   50.00000   90.00000   90.00000   90.00000
LATT -1
SFAC C  
C      1  0.5286530000000  0.4645650000000  0.5328130000000 1.0
C      1  0.5279790000000  0.5355390000000  0.4614040000000 1.0
C      1  0.4734300000000  0.4622100000000  0.5315840000000 1.0
C      1  0.4763110000000  0.5344480000000  0.4621520000000 1.0
C      1  0.5699320000000  0.5094480000000  0.5137280000000 1.0
C      1  0.5680650000000  0.4984160000000  0.4889790000000 1.0
C      1  0.4336500000000  0.5092690000000  0.5122520000000 1.0
C      1  0.4346480000000  0.4978380000000  0.4877400000000 1.0
C      1  0.5108820000000  0.4648780000000  0.4310510000000 1.0
C      1  0.5107900000000  0.5271450000000  0.5766840000000 1.0
C      1  0.4792930000000  0.4620180000000  0.4243450000000 1.0
C      1  0.4799660000000  0.5301910000000  0.5836030000000 1.0
C      1  0.5422420000000  0.5437950000000  0.5379120000000 1.0
C      1  0.5425940000000  0.4556690000000  0.4728650000000 1.0
C      1  0.4601890000000  0.5424000000000  0.5387750000000 1.0
C      1  0.4564310000000  0.4534220000000  0.4709860000000 1.0
C      1  0.5617650000000  0.4353370000000  0.4692540000000 1.0
C      1  0.5440760000000  0.5563690000000  0.5114640000000 1.0
C      1  0.4355360000000  0.4350890000000  0.4672590000000 1.0
C      1  0.4595580000000  0.5564120000000  0.5131990000000 1.0
C      1  0.4683970000000  0.5069640000000  0.4494200000000 1.0
C      1  0.4645960000000  0.4879600000000  0.5472490000000 1.0
C      1  0.5359730000000  0.5077270000000  0.4486900000000 1.0
C      1  0.5362310000000  0.4908450000000  0.5483390000000 1.0
C      1  0.4824730000000  0.4478580000000  0.4530840000000 1.0
C      1  0.4831080000000  0.5481120000000  0.5573460000000 1.0
C      1  0.5155990000000  0.4500310000000  0.4578040000000 1.0
C      1  0.5172420000000  0.5484450000000  0.5544830000000 1.0
C      1  0.4481690000000  0.5149880000000  0.5359140000000 1.0
C      1  0.4481520000000  0.4861850000000  0.4671550000000 1.0
C      1  0.5557720000000  0.5164760000000  0.5374530000000 1.0
C      1  0.5548190000000  0.4870250000000  0.4680150000000 1.0
C      1  0.5177570000000  0.4978030000000  0.5729910000000 1.0
C      1  0.5170750000000  0.4951440000000  0.4252050000000 1.0
C      1  0.4836550000000  0.4980930000000  0.5732900000000 1.0
C      1  0.4846180000000  0.4937970000000  0.4242000000000 1.0
C      1  0.5339420000000  0.5393440000000  0.4895290000000 1.0
C      1  0.5370600000000  0.4640310000000  0.5055620000000 1.0
C      1  0.4696640000000  0.5399640000000  0.4897660000000 1.0
C      1  0.4653510000000  0.4588490000000  0.5037410000000 1.0
C      1  0.5165590000000  0.5133700000000  0.5362640000000 1.0
C      1  0.5153280000000  0.4893390000000  0.4644550000000 1.0
C      1  0.4873040000000  0.5115320000000  0.5420740000000 1.0
C      1  0.4878220000000  0.4859410000000  0.4630940000000 1.0
C      1  0.4814060000000  0.5230950000000  0.5111230000000 1.0
C      1  0.4805670000000  0.4790110000000  0.4893170000000 1.0
C      1  0.5209960000000  0.5209800000000  0.5071090000000 1.0
C      1  0.5224690000000  0.4847020000000  0.4913290000000 1.0
C      1  0.5013350000000  0.4556900000000  0.5371280000000 1.0
C      1  0.5018230000000  0.5442070000000  0.4536000000000 1.0
C      1  0.4973290000000  0.4961140000000  0.5066010000000 1.0
END
