TITL C-2782240-8521-61 -0.00193358819796424 125000 -753.14145270805 0 0 126 (C1) n - 1
REM
REM in /home/nfs/bkarasulu/CARBON/AIRSS/Generating-Clusters/REBO/Higher-Symm/SD-CG/HFTN-CG
REM
REM
REM
REM
REM
REM ./C.cell (12c818d87b63d06a65506943cc24bca4)
REM
REM compiler GCC version 9.2.1 20190827 (Red Hat 9.2.1-1)
REM options -cpp -mtune=generic -march=x86-64 -g -O0 -fpre-include=/usr/include/finclude/math-vector-fortran.h
REM seed -2140501438 -219447543 615207131 -1878925623 1363543483 -1227971631 -1967681817 -2046316065 -359767594 606919538 -1351607791 -1455407809 1076391542 2062611453 415838978 -1156846294 207633818 454432665 65948307 -1013742207 -18400658 2087248901 -347174143 29503583 899805642 1920659116 -1225738528 -909936569 -1534707864 -418189183 -2049066464 1996957004 1088879454
REM
CELL 1.54180   50.00000   50.00000   50.00000   90.00000   90.00000   90.00000
LATT -1
SFAC C  
C      1  0.4649100000000  0.4710800000000  0.5269870000000 1.0
C      1  0.4703330000000  0.5223980000000  0.5288300000000 1.0
C      1  0.4670710000000  0.5359670000000  0.4654000000000 1.0
C      1  0.4527510000000  0.4768050000000  0.4644850000000 1.0
C      1  0.5259360000000  0.4864420000000  0.4725660000000 1.0
C      1  0.5459930000000  0.5422860000000  0.4845750000000 1.0
C      1  0.5319390000000  0.5148210000000  0.5215890000000 1.0
C      1  0.5278120000000  0.4654680000000  0.5153570000000 1.0
C      1  0.4803060000000  0.4709510000000  0.4667760000000 1.0
C      1  0.4905710000000  0.4634420000000  0.5468730000000 1.0
C      1  0.4957930000000  0.5415790000000  0.5200120000000 1.0
C      1  0.4916480000000  0.5215670000000  0.4716970000000 1.0
C      1  0.5118790000000  0.4463210000000  0.5318050000000 1.0
C      1  0.4987110000000  0.4932510000000  0.4691930000000 1.0
C      1  0.5127590000000  0.5384050000000  0.4906940000000 1.0
C      1  0.5084750000000  0.5222920000000  0.5450690000000 1.0
C      1  0.4467460000000  0.4467960000000  0.5274610000000 1.0
C      1  0.4554540000000  0.5258150000000  0.5576290000000 1.0
C      1  0.4573180000000  0.5634690000000  0.4561850000000 1.0
C      1  0.4388650000000  0.4699120000000  0.4417020000000 1.0
C      1  0.5320680000000  0.4589490000000  0.4843030000000 1.0
C      1  0.5602010000000  0.5391470000000  0.4546770000000 1.0
C      1  0.5353650000000  0.5454390000000  0.5228820000000 1.0
C      1  0.5726210000000  0.4711200000000  0.5902420000000 1.0
C      1  0.4263290000000  0.5268930000000  0.5565950000000 1.0
C      1  0.4339500000000  0.5727300000000  0.4719570000000 1.0
C      1  0.4181260000000  0.4876920000000  0.4224460000000 1.0
C      1  0.4191640000000  0.4377510000000  0.5100440000000 1.0
C      1  0.5800000000000  0.5197040000000  0.4347480000000 1.0
C      1  0.5631640000000  0.5655280000000  0.5024970000000 1.0
C      1  0.5848960000000  0.4830200000000  0.5680370000000 1.0
C      1  0.5875680000000  0.4311000000000  0.4815240000000 1.0
C      1  0.5191950000000  0.4384510000000  0.4208450000000 1.0
C      1  0.5176250000000  0.4157000000000  0.5795160000000 1.0
C      1  0.5200420000000  0.5694660000000  0.5887150000000 1.0
C      1  0.4969770000000  0.5473690000000  0.4414880000000 1.0
C      1  0.4907200000000  0.4186330000000  0.5828210000000 1.0
C      1  0.4974360000000  0.4286640000000  0.4339480000000 1.0
C      1  0.4853550000000  0.5356710000000  0.4201340000000 1.0
C      1  0.4946840000000  0.5815350000000  0.5919400000000 1.0
C      1  0.4651050000000  0.5355930000000  0.5827490000000 1.0
C      1  0.4532560000000  0.5706910000000  0.4280570000000 1.0
C      1  0.4476890000000  0.4471550000000  0.4239060000000 1.0
C      1  0.4503040000000  0.4189830000000  0.5415450000000 1.0
C      1  0.5454470000000  0.5547960000000  0.4330820000000 1.0
C      1  0.5391280000000  0.5707930000000  0.5339400000000 1.0
C      1  0.5572950000000  0.4490570000000  0.5987730000000 1.0
C      1  0.5435380000000  0.4410260000000  0.4660930000000 1.0
C      1  0.4542070000000  0.4784940000000  0.3835150000000 1.0
C      1  0.4590550000000  0.4083520000000  0.4925720000000 1.0
C      1  0.4746020000000  0.4913020000000  0.6040430000000 1.0
C      1  0.4736590000000  0.6160140000000  0.5269110000000 1.0
C      1  0.5340610000000  0.5008190000000  0.6012600000000 1.0
C      1  0.5287860000000  0.3821740000000  0.5210960000000 1.0
C      1  0.5426010000000  0.5132170000000  0.4007680000000 1.0
C      1  0.5240200000000  0.6004730000000  0.4972590000000 1.0
C      1  0.4645420000000  0.4195210000000  0.5649360000000 1.0
C      1  0.4702220000000  0.5627720000000  0.5844030000000 1.0
C      1  0.4596070000000  0.5502500000000  0.4097500000000 1.0
C      1  0.4666340000000  0.4307750000000  0.4354770000000 1.0
C      1  0.5433390000000  0.4484940000000  0.4385620000000 1.0
C      1  0.5218850000000  0.5658960000000  0.4421250000000 1.0
C      1  0.5306650000000  0.5704030000000  0.5596560000000 1.0
C      1  0.5428970000000  0.4348580000000  0.5802260000000 1.0
C      1  0.5802260000000  0.4893840000000  0.4358870000000 1.0
C      1  0.5917070000000  0.4348590000000  0.5091690000000 1.0
C      1  0.5835380000000  0.5100400000000  0.5599140000000 1.0
C      1  0.5931780000000  0.5579470000000  0.4931050000000 1.0
C      1  0.4120710000000  0.5025520000000  0.5551500000000 1.0
C      1  0.4121900000000  0.4492350000000  0.4831750000000 1.0
C      1  0.4128850000000  0.5167100000000  0.4349070000000 1.0
C      1  0.4347850000000  0.5734310000000  0.5001640000000 1.0
C      1  0.4363240000000  0.4676000000000  0.4023390000000 1.0
C      1  0.4391510000000  0.4112750000000  0.5126660000000 1.0
C      1  0.4673190000000  0.5174680000000  0.6041210000000 1.0
C      1  0.4421260000000  0.5944510000000  0.4209780000000 1.0
C      1  0.5563130000000  0.4427630000000  0.6252850000000 1.0
C      1  0.5619460000000  0.4210930000000  0.4743740000000 1.0
C      1  0.5569650000000  0.5318760000000  0.4158690000000 1.0
C      1  0.5459830000000  0.5905230000000  0.5121420000000 1.0
C      1  0.5274510000000  0.4895580000000  0.3977170000000 1.0
C      1  0.5204510000000  0.4079750000000  0.5256080000000 1.0
C      1  0.5208220000000  0.5103950000000  0.5807100000000 1.0
C      1  0.5016980000000  0.5830960000000  0.4934640000000 1.0
C      1  0.4842650000000  0.4767570000000  0.5836750000000 1.0
C      1  0.4830870000000  0.4228810000000  0.4879670000000 1.0
C      1  0.4751310000000  0.4975920000000  0.3845900000000 1.0
C      1  0.4799990000000  0.5910690000000  0.5363380000000 1.0
C      1  0.4111710000000  0.5584630000000  0.4614460000000 1.0
C      1  0.4017610000000  0.4817390000000  0.4505430000000 1.0
C      1  0.4088850000000  0.4582760000000  0.5326140000000 1.0
C      1  0.4170170000000  0.5487220000000  0.5410920000000 1.0
C      1  0.5764920000000  0.5488830000000  0.5281840000000 1.0
C      1  0.5910460000000  0.4651930000000  0.5472180000000 1.0
C      1  0.5942890000000  0.4535940000000  0.4654670000000 1.0
C      1  0.6016850000000  0.5310700000000  0.4547110000000 1.0
C      1  0.5296650000000  0.4256680000000  0.5504590000000 1.0
C      1  0.5204320000000  0.5405700000000  0.5706420000000 1.0
C      1  0.5043060000000  0.5628180000000  0.4705620000000 1.0
C      1  0.5327060000000  0.4668800000000  0.4131720000000 1.0
C      1  0.4844600000000  0.4402980000000  0.4630460000000 1.0
C      1  0.4685320000000  0.5221450000000  0.3962950000000 1.0
C      1  0.4772590000000  0.5865930000000  0.5641080000000 1.0
C      1  0.4787690000000  0.4480000000000  0.5733680000000 1.0
C      1  0.5588350000000  0.4733720000000  0.5105890000000 1.0
C      1  0.5605590000000  0.5051600000000  0.5158500000000 1.0
C      1  0.5678670000000  0.5178370000000  0.4874000000000 1.0
C      1  0.5591390000000  0.4879370000000  0.4798860000000 1.0
C      1  0.4372660000000  0.4929910000000  0.4857410000000 1.0
C      1  0.4408090000000  0.5225330000000  0.4757990000000 1.0
C      1  0.4444610000000  0.5248310000000  0.5086270000000 1.0
C      1  0.4416850000000  0.4918050000000  0.5173220000000 1.0
C      1  0.4139140000000  0.4744900000000  0.4736820000000 1.0
C      1  0.4178060000000  0.4838620000000  0.5350940000000 1.0
C      1  0.4302500000000  0.5511590000000  0.5165180000000 1.0
C      1  0.4174550000000  0.5310350000000  0.4573570000000 1.0
C      1  0.5806480000000  0.4566300000000  0.5229770000000 1.0
C      1  0.5779010000000  0.4755970000000  0.4591260000000 1.0
C      1  0.5936860000000  0.5333080000000  0.4806870000000 1.0
C      1  0.5761050000000  0.5226900000000  0.5360100000000 1.0
C      1  0.5025250000000  0.4908200000000  0.3843580000000 1.0
C      1  0.5010370000000  0.4239570000000  0.5092300000000 1.0
C      1  0.5013080000000  0.4927960000000  0.5605680000000 1.0
C      1  0.4903610000000  0.5723770000000  0.5177130000000 1.0
C      1  0.5114790000000  0.4915680000000  0.5197060000000 1.0
C      1  0.4855710000000  0.4956640000000  0.5239080000000 1.0
END
