TITL C-2782240-8521-1297 0.0014751624349485 125000 -642.166376244923 0 0 113 (C1) n - 1
REM
REM in /home/nfs/bkarasulu/CARBON/AIRSS/Generating-Clusters/REBO/Higher-Symm/SD-CG/HFTN-CG
REM
REM
REM
REM
REM
REM ./C.cell (12c818d87b63d06a65506943cc24bca4)
REM
REM compiler GCC version 9.2.1 20190827 (Red Hat 9.2.1-1)
REM options -cpp -mtune=generic -march=x86-64 -g -O0 -fpre-include=/usr/include/finclude/math-vector-fortran.h
REM seed -1551280381 64172379 -1389145454 -1650352283 1029690726 -192863242 1015608480 1407609775 219048208 -845729601 1688553340 1494613819 -1325910864 1838108546 -1144211580 -85199422 -1548023417 -1760167643 1197176845 761189761 1364643623 1463546230 -231971297 1182305774 1902880879 783448256 -379773054 -2126391850 847946868 1754786075 -369216060 -679105522 -367945127
REM
CELL 1.54180   50.00000   50.00000   50.00000   90.00000   90.00000   90.00000
LATT -1
SFAC C  
C      1  0.5340080000000  0.4309880000000  0.4556430000000 1.0
C      1  0.5345170000000  0.4288970000000  0.5480090000000 1.0
C      1  0.5259400000000  0.5077910000000  0.5166630000000 1.0
C      1  0.5303930000000  0.5100460000000  0.4847650000000 1.0
C      1  0.4651580000000  0.5831550000000  0.4874030000000 1.0
C      1  0.4621920000000  0.5805630000000  0.5212580000000 1.0
C      1  0.4296080000000  0.4924170000000  0.5697160000000 1.0
C      1  0.4320780000000  0.5001810000000  0.4271100000000 1.0
C      1  0.4352660000000  0.4945590000000  0.5135570000000 1.0
C      1  0.4340090000000  0.4961970000000  0.4832250000000 1.0
C      1  0.5441020000000  0.4725920000000  0.4859320000000 1.0
C      1  0.5436870000000  0.4717800000000  0.5140270000000 1.0
C      1  0.4146500000000  0.5125870000000  0.5295930000000 1.0
C      1  0.4129070000000  0.5156040000000  0.4679220000000 1.0
C      1  0.4880150000000  0.4648370000000  0.4169390000000 1.0
C      1  0.4889580000000  0.4642670000000  0.5853340000000 1.0
C      1  0.5347410000000  0.4914280000000  0.5776600000000 1.0
C      1  0.5332760000000  0.4912310000000  0.4219920000000 1.0
C      1  0.5034050000000  0.4515660000000  0.4841810000000 1.0
C      1  0.5031400000000  0.4480330000000  0.5162490000000 1.0
C      1  0.4822510000000  0.5257900000000  0.4815540000000 1.0
C      1  0.4830780000000  0.5228070000000  0.5122370000000 1.0
C      1  0.4746360000000  0.4643050000000  0.4441540000000 1.0
C      1  0.4752380000000  0.4621020000000  0.5584430000000 1.0
C      1  0.4909370000000  0.5721650000000  0.5474000000000 1.0
C      1  0.4949810000000  0.5745440000000  0.4460360000000 1.0
C      1  0.5314370000000  0.5565140000000  0.4825950000000 1.0
C      1  0.5303200000000  0.5563950000000  0.5116330000000 1.0
C      1  0.4646210000000  0.5198240000000  0.4404890000000 1.0
C      1  0.4635970000000  0.5157130000000  0.5599360000000 1.0
C      1  0.5281180000000  0.5711190000000  0.4519360000000 1.0
C      1  0.5246310000000  0.5693420000000  0.5426410000000 1.0
C      1  0.5689170000000  0.5391650000000  0.5120690000000 1.0
C      1  0.5752860000000  0.5423030000000  0.4820050000000 1.0
C      1  0.5408430000000  0.5302050000000  0.4236190000000 1.0
C      1  0.5407620000000  0.5306310000000  0.5745380000000 1.0
C      1  0.4853860000000  0.4017190000000  0.4699190000000 1.0
C      1  0.4841650000000  0.3991710000000  0.5357350000000 1.0
C      1  0.5177590000000  0.5153850000000  0.5944230000000 1.0
C      1  0.5172480000000  0.5151260000000  0.4042860000000 1.0
C      1  0.5346430000000  0.5262080000000  0.5408030000000 1.0
C      1  0.5360420000000  0.5255530000000  0.4577310000000 1.0
C      1  0.5021010000000  0.5420610000000  0.5240710000000 1.0
C      1  0.5026360000000  0.5438730000000  0.4702250000000 1.0
C      1  0.5137820000000  0.5078630000000  0.5557560000000 1.0
C      1  0.5130090000000  0.5095460000000  0.4432040000000 1.0
C      1  0.5041770000000  0.4139160000000  0.5170700000000 1.0
C      1  0.5035070000000  0.4193650000000  0.4885200000000 1.0
C      1  0.5126490000000  0.4778400000000  0.5255280000000 1.0
C      1  0.5135440000000  0.4810720000000  0.4759530000000 1.0
C      1  0.5018400000000  0.5404440000000  0.5583040000000 1.0
C      1  0.5049710000000  0.5425460000000  0.4362210000000 1.0
C      1  0.5568240000000  0.4519100000000  0.4429520000000 1.0
C      1  0.5581620000000  0.4519460000000  0.5561980000000 1.0
C      1  0.5811060000000  0.4850130000000  0.5162100000000 1.0
C      1  0.5821090000000  0.4838080000000  0.4816370000000 1.0
C      1  0.4945500000000  0.4903530000000  0.5951060000000 1.0
C      1  0.4936330000000  0.4904640000000  0.4058500000000 1.0
C      1  0.5106240000000  0.4478470000000  0.4362840000000 1.0
C      1  0.5120730000000  0.4463150000000  0.5676240000000 1.0
C      1  0.4469530000000  0.5489730000000  0.4443930000000 1.0
C      1  0.4438010000000  0.5432490000000  0.5572590000000 1.0
C      1  0.5034440000000  0.4185350000000  0.4486440000000 1.0
C      1  0.5040500000000  0.4163710000000  0.5566900000000 1.0
C      1  0.5652800000000  0.4815570000000  0.5719560000000 1.0
C      1  0.5634690000000  0.4806570000000  0.4258910000000 1.0
C      1  0.5462320000000  0.4321700000000  0.5160850000000 1.0
C      1  0.5449000000000  0.4327950000000  0.4879390000000 1.0
C      1  0.5643170000000  0.5124850000000  0.4827710000000 1.0
C      1  0.5580290000000  0.5090820000000  0.5136010000000 1.0
C      1  0.5782120000000  0.5011540000000  0.5467630000000 1.0
C      1  0.5804480000000  0.4982690000000  0.4500040000000 1.0
C      1  0.4449970000000  0.4491020000000  0.4815880000000 1.0
C      1  0.4457760000000  0.4463400000000  0.5111980000000 1.0
C      1  0.4365930000000  0.4756580000000  0.4393230000000 1.0
C      1  0.4344470000000  0.4691580000000  0.5552820000000 1.0
C      1  0.5560270000000  0.5587990000000  0.5339490000000 1.0
C      1  0.5582180000000  0.5583180000000  0.4612990000000 1.0
C      1  0.4688750000000  0.4868920000000  0.5454200000000 1.0
C      1  0.4705800000000  0.4902060000000  0.4561300000000 1.0
C      1  0.4846000000000  0.4936360000000  0.4850870000000 1.0
C      1  0.4831060000000  0.4909110000000  0.5186690000000 1.0
C      1  0.4520750000000  0.5214940000000  0.4723300000000 1.0
C      1  0.4542360000000  0.5192660000000  0.5272280000000 1.0
C      1  0.4857390000000  0.5218100000000  0.4165530000000 1.0
C      1  0.4861560000000  0.5204970000000  0.5817650000000 1.0
C      1  0.4383310000000  0.4675170000000  0.5271380000000 1.0
C      1  0.4375530000000  0.4706880000000  0.4672600000000 1.0
C      1  0.4334980000000  0.5487890000000  0.4757280000000 1.0
C      1  0.4348400000000  0.5466200000000  0.5248290000000 1.0
C      1  0.5508600000000  0.4824450000000  0.5422570000000 1.0
C      1  0.5509550000000  0.4831480000000  0.4569020000000 1.0
C      1  0.4815430000000  0.4406340000000  0.4627590000000 1.0
C      1  0.4834760000000  0.4384380000000  0.5408720000000 1.0
C      1  0.4248910000000  0.5230740000000  0.4426310000000 1.0
C      1  0.4238560000000  0.5168210000000  0.5562310000000 1.0
C      1  0.5148430000000  0.4751610000000  0.5572240000000 1.0
C      1  0.5137800000000  0.4773250000000  0.4444720000000 1.0
C      1  0.5668380000000  0.5288220000000  0.4456390000000 1.0
C      1  0.5656400000000  0.5305940000000  0.5509770000000 1.0
C      1  0.5303090000000  0.5599920000000  0.4206970000000 1.0
C      1  0.5260910000000  0.5590990000000  0.5739320000000 1.0
C      1  0.4642620000000  0.4213330000000  0.5192460000000 1.0
C      1  0.4637550000000  0.4220560000000  0.4852550000000 1.0
C      1  0.4941400000000  0.5733590000000  0.5131410000000 1.0
C      1  0.4962500000000  0.5751850000000  0.4804040000000 1.0
C      1  0.4045040000000  0.5379600000000  0.4858140000000 1.0
C      1  0.4054250000000  0.5363050000000  0.5141560000000 1.0
C      1  0.5713300000000  0.4534730000000  0.5247760000000 1.0
C      1  0.5693360000000  0.4528240000000  0.4745810000000 1.0
C      1  0.4587120000000  0.5708930000000  0.5518520000000 1.0
C      1  0.4649530000000  0.5738210000000  0.4557000000000 1.0
C      1  0.4422360000000  0.5644810000000  0.5002350000000 1.0
END
