TITL C-2782230-7391-312 0.000296410248772033 125000 -23.7415550193097 0 0 7 (D6h) n - 1
REM
REM in /home/nfs/bkarasulu/CARBON/AIRSS/Generating-Clusters/REBO/Higher-Symm/SD-CG/HFTN-CG
REM
REM
REM
REM
REM
REM ./C.cell (12c818d87b63d06a65506943cc24bca4)
REM
REM compiler GCC version 9.2.1 20190827 (Red Hat 9.2.1-1)
REM options -cpp -mtune=generic -march=x86-64 -g -O0 -fpre-include=/usr/include/finclude/math-vector-fortran.h
REM seed 730766551 -1323766856 1756181465 1074109110 -1053296075 -897773464 -1869488683 -164452957 655593634 82802335 -892007083 1174047132 -995293571 1395966676 2023682681 1696269895 129307761 1510391862 -1487839700 -1956426941 -104065636 1760697582 -368623120 914431807 477751436 84923901 1232721395 -1786415008 -1028231218 -1713382637 -1459946418 1038493737 -909966188
REM
CELL 1.54180   50.00000   50.00000   50.00000   90.00000   90.00000   90.00000
LATT -1
SFAC C  
C      1  0.5335210000000  0.5088010000000  0.4969350000000 1.0
C      1  0.5242610000000  0.4756320000000  0.4969350000000 1.0
C      1  0.4909060000000  0.4670670000000  0.4969350000000 1.0
C      1  0.5094260000000  0.5334040000000  0.4969350000000 1.0
C      1  0.4760710000000  0.5248390000000  0.4969350000000 1.0
C      1  0.4668110000000  0.4916700000000  0.4969350000000 1.0
C      1  0.5001660000000  0.5002360000000  0.4969350000000 1.0
END
