TITL C-2782231-7322-1056 0.0027751965962764 125000 -870.628999615636 0 0 148 (C1) n - 1
REM
REM in /home/nfs/bkarasulu/CARBON/AIRSS/Generating-Clusters/REBO/Higher-Symm/SD-CG/HFTN-CG
REM
REM
REM
REM
REM
REM ./C.cell (12c818d87b63d06a65506943cc24bca4)
REM
REM compiler GCC version 9.2.1 20190827 (Red Hat 9.2.1-1)
REM options -cpp -mtune=generic -march=x86-64 -g -O0 -fpre-include=/usr/include/finclude/math-vector-fortran.h
REM seed 1758978833 207616686 498898530 -1260600166 -1122350737 1698380201 1325921547 1831641255 -591755586 -648726220 -569734588 770959673 -1111575026 1026351503 1768368338 -1036537860 -492580885 1756954862 -1997196289 -1055525314 -1177432378 663759478 1065558718 -915549932 421270969 -377901669 -2062656715 -1080002235 461973733 1018492425 -790155138 1319491165 114331760
REM
CELL 1.54180   50.00000   50.00000   50.00000   90.00000   90.00000   90.00000
LATT -1
SFAC C  
C      1  0.5054190000000  0.5597290000000  0.4117310000000 1.0
C      1  0.4414520000000  0.5425370000000  0.5349680000000 1.0
C      1  0.5921890000000  0.5139540000000  0.4987080000000 1.0
C      1  0.5866820000000  0.5465760000000  0.5269360000000 1.0
C      1  0.5440630000000  0.5728530000000  0.5119750000000 1.0
C      1  0.5373420000000  0.5487800000000  0.4074850000000 1.0
C      1  0.5154010000000  0.4778280000000  0.4121120000000 1.0
C      1  0.5175450000000  0.4004310000000  0.5708600000000 1.0
C      1  0.4405820000000  0.4576370000000  0.5670720000000 1.0
C      1  0.4192980000000  0.4168900000000  0.5316020000000 1.0
C      1  0.5232740000000  0.5871730000000  0.5525860000000 1.0
C      1  0.5172100000000  0.4012130000000  0.5210760000000 1.0
C      1  0.4314960000000  0.4479620000000  0.4880190000000 1.0
C      1  0.5422210000000  0.5188750000000  0.4129560000000 1.0
C      1  0.5269280000000  0.5239010000000  0.4814530000000 1.0
C      1  0.5140880000000  0.4586620000000  0.5165300000000 1.0
C      1  0.4433290000000  0.4979400000000  0.4746450000000 1.0
C      1  0.5484460000000  0.4942610000000  0.5262420000000 1.0
C      1  0.6002540000000  0.4915310000000  0.5165910000000 1.0
C      1  0.5335610000000  0.5424360000000  0.4467280000000 1.0
C      1  0.4569960000000  0.5125080000000  0.5435120000000 1.0
C      1  0.4838020000000  0.5018840000000  0.5550910000000 1.0
C      1  0.5214470000000  0.4314980000000  0.4882410000000 1.0
C      1  0.5868080000000  0.5608910000000  0.4991890000000 1.0
C      1  0.4589980000000  0.5982140000000  0.5109080000000 1.0
C      1  0.4941770000000  0.4375130000000  0.5027990000000 1.0
C      1  0.5504660000000  0.4475650000000  0.5695420000000 1.0
C      1  0.4448210000000  0.5758390000000  0.4914430000000 1.0
C      1  0.4833390000000  0.5529930000000  0.5660480000000 1.0
C      1  0.4622570000000  0.4662500000000  0.4028630000000 1.0
C      1  0.4996520000000  0.4939330000000  0.5064940000000 1.0
C      1  0.3990600000000  0.4480470000000  0.4791930000000 1.0
C      1  0.5394940000000  0.5493550000000  0.5752170000000 1.0
C      1  0.4914110000000  0.4280840000000  0.4321930000000 1.0
C      1  0.4128380000000  0.4844230000000  0.4707230000000 1.0
C      1  0.5764620000000  0.4934610000000  0.5618380000000 1.0
C      1  0.5181440000000  0.5636360000000  0.4389780000000 1.0
C      1  0.5205810000000  0.4328270000000  0.4364790000000 1.0
C      1  0.5098770000000  0.4694050000000  0.4846130000000 1.0
C      1  0.4280970000000  0.4728240000000  0.5449720000000 1.0
C      1  0.5302000000000  0.6042960000000  0.4700730000000 1.0
C      1  0.4939910000000  0.5642100000000  0.4959100000000 1.0
C      1  0.4602590000000  0.4459630000000  0.5993180000000 1.0
C      1  0.4805800000000  0.4112860000000  0.4524330000000 1.0
C      1  0.4536440000000  0.5113890000000  0.5130650000000 1.0
C      1  0.5246360000000  0.4516980000000  0.5804440000000 1.0
C      1  0.4445040000000  0.5275270000000  0.4585630000000 1.0
C      1  0.4489400000000  0.4320700000000  0.5377500000000 1.0
C      1  0.5318340000000  0.4999460000000  0.6002010000000 1.0
C      1  0.4409790000000  0.4244710000000  0.5061940000000 1.0
C      1  0.4923440000000  0.5820460000000  0.5509980000000 1.0
C      1  0.3760930000000  0.4293480000000  0.4811650000000 1.0
C      1  0.5903880000000  0.5145190000000  0.5385710000000 1.0
C      1  0.5436900000000  0.4158740000000  0.5174850000000 1.0
C      1  0.4449180000000  0.5351120000000  0.5913150000000 1.0
C      1  0.4334400000000  0.5240880000000  0.5625090000000 1.0
C      1  0.5801440000000  0.4412420000000  0.4874900000000 1.0
C      1  0.5855210000000  0.5475160000000  0.4731730000000 1.0
C      1  0.5665510000000  0.5841070000000  0.4996640000000 1.0
C      1  0.4764340000000  0.5287900000000  0.5019400000000 1.0
C      1  0.5315260000000  0.4135130000000  0.4615100000000 1.0
C      1  0.4497000000000  0.5772940000000  0.4602430000000 1.0
C      1  0.4823720000000  0.4933260000000  0.5853660000000 1.0
C      1  0.5587020000000  0.5211620000000  0.5398220000000 1.0
C      1  0.4723430000000  0.5415870000000  0.5918720000000 1.0
C      1  0.5410100000000  0.5740080000000  0.4700940000000 1.0
C      1  0.5556000000000  0.5368740000000  0.4698580000000 1.0
C      1  0.5142370000000  0.5648800000000  0.5206390000000 1.0
C      1  0.5315370000000  0.4545230000000  0.4150590000000 1.0
C      1  0.5860760000000  0.5267880000000  0.4460300000000 1.0
C      1  0.5632750000000  0.4984860000000  0.4625960000000 1.0
C      1  0.4186130000000  0.5330350000000  0.4783790000000 1.0
C      1  0.4589130000000  0.4221770000000  0.5747400000000 1.0
C      1  0.5278080000000  0.5484810000000  0.6006990000000 1.0
C      1  0.4802140000000  0.4824470000000  0.4815970000000 1.0
C      1  0.5047440000000  0.4040110000000  0.5466590000000 1.0
C      1  0.4726390000000  0.4850180000000  0.4512440000000 1.0
C      1  0.4861990000000  0.5212170000000  0.4739300000000 1.0
C      1  0.4782710000000  0.5169180000000  0.4084280000000 1.0
C      1  0.5255730000000  0.5475860000000  0.5479250000000 1.0
C      1  0.4041070000000  0.5001430000000  0.5184500000000 1.0
C      1  0.5715430000000  0.5640920000000  0.5453450000000 1.0
C      1  0.5012510000000  0.4018540000000  0.4707430000000 1.0
C      1  0.4543750000000  0.4784690000000  0.5903870000000 1.0
C      1  0.5384260000000  0.5101730000000  0.4457710000000 1.0
C      1  0.5607080000000  0.5715470000000  0.4488590000000 1.0
C      1  0.4404650000000  0.4801410000000  0.4144520000000 1.0
C      1  0.4987470000000  0.4795300000000  0.5365420000000 1.0
C      1  0.5020950000000  0.5329390000000  0.5194840000000 1.0
C      1  0.5229010000000  0.5558500000000  0.4826680000000 1.0
C      1  0.5245250000000  0.5122320000000  0.5098440000000 1.0
C      1  0.4277350000000  0.5521460000000  0.5052270000000 1.0
C      1  0.4121310000000  0.4582950000000  0.4497480000000 1.0
C      1  0.5583710000000  0.4355040000000  0.5411130000000 1.0
C      1  0.5725430000000  0.5102820000000  0.4255370000000 1.0
C      1  0.4043570000000  0.4748390000000  0.4994240000000 1.0
C      1  0.4668390000000  0.5591030000000  0.5089350000000 1.0
C      1  0.4778510000000  0.5677960000000  0.4149300000000 1.0
C      1  0.4090000000000  0.4925930000000  0.5446400000000 1.0
C      1  0.5606360000000  0.4642950000000  0.5007580000000 1.0
C      1  0.5541400000000  0.4213230000000  0.4859760000000 1.0
C      1  0.4271100000000  0.4266050000000  0.5634200000000 1.0
C      1  0.5002430000000  0.4842610000000  0.4353330000000 1.0
C      1  0.5566660000000  0.5274230000000  0.5689630000000 1.0
C      1  0.4655880000000  0.5631770000000  0.5403280000000 1.0
C      1  0.5567950000000  0.5031380000000  0.5857290000000 1.0
C      1  0.4482180000000  0.4656110000000  0.4648880000000 1.0
C      1  0.5561620000000  0.5649660000000  0.4223290000000 1.0
C      1  0.4732570000000  0.5137600000000  0.4348610000000 1.0
C      1  0.4605660000000  0.5749260000000  0.4353940000000 1.0
C      1  0.5551200000000  0.4933890000000  0.4927100000000 1.0
C      1  0.4726310000000  0.5415580000000  0.4537440000000 1.0
C      1  0.5095490000000  0.5049530000000  0.4593830000000 1.0
C      1  0.4741210000000  0.4515910000000  0.5685200000000 1.0
C      1  0.5927660000000  0.4657990000000  0.5074560000000 1.0
C      1  0.4753840000000  0.6002640000000  0.5293660000000 1.0
C      1  0.5075060000000  0.5883060000000  0.4539870000000 1.0
C      1  0.5472170000000  0.5429280000000  0.5217820000000 1.0
C      1  0.5415910000000  0.4496820000000  0.5175630000000 1.0
C      1  0.5222240000000  0.5016100000000  0.3975780000000 1.0
C      1  0.4701790000000  0.4727460000000  0.3775290000000 1.0
C      1  0.4331010000000  0.4659880000000  0.5158780000000 1.0
C      1  0.4524150000000  0.4148630000000  0.4540140000000 1.0
C      1  0.4982320000000  0.3982240000000  0.4986800000000 1.0
C      1  0.5620540000000  0.5258510000000  0.5003460000000 1.0
C      1  0.4760850000000  0.4458040000000  0.4167850000000 1.0
C      1  0.4357180000000  0.5039020000000  0.5899350000000 1.0
C      1  0.5505830000000  0.4588050000000  0.4380100000000 1.0
C      1  0.4554480000000  0.4828680000000  0.5018440000000 1.0
C      1  0.4881480000000  0.5674630000000  0.4649950000000 1.0
C      1  0.4979690000000  0.5291360000000  0.5509030000000 1.0
C      1  0.5583770000000  0.6071530000000  0.4838700000000 1.0
C      1  0.4759260000000  0.4148750000000  0.5457910000000 1.0
C      1  0.4987290000000  0.4641620000000  0.5635760000000 1.0
C      1  0.4731200000000  0.4150910000000  0.5116160000000 1.0
C      1  0.4147530000000  0.5123620000000  0.4513170000000 1.0
C      1  0.5162990000000  0.5234000000000  0.6076480000000 1.0
C      1  0.4884530000000  0.5201290000000  0.6015260000000 1.0
C      1  0.4204450000000  0.4848990000000  0.4320040000000 1.0
C      1  0.5494070000000  0.5795360000000  0.5510080000000 1.0
C      1  0.5282660000000  0.4532460000000  0.4630840000000 1.0
C      1  0.4984930000000  0.5154480000000  0.3898840000000 1.0
C      1  0.5119400000000  0.4795160000000  0.5909480000000 1.0
C      1  0.5663680000000  0.4812540000000  0.4365400000000 1.0
C      1  0.4239620000000  0.5196040000000  0.5074570000000 1.0
C      1  0.5611820000000  0.4696720000000  0.5460220000000 1.0
C      1  0.4377900000000  0.4371710000000  0.4502600000000 1.0
C      1  0.5931500000000  0.5085850000000  0.4708110000000 1.0
END
