TITL C-2782238-9940-1278 2.8104102558459e-05 125000 -241.121134245949 0 0 42 (C1) n - 1
REM
REM in /home/nfs/bkarasulu/CARBON/AIRSS/Generating-Clusters/REBO/Higher-Symm/SD-CG/HFTN-CG
REM
REM
REM
REM
REM
REM ./C.cell (12c818d87b63d06a65506943cc24bca4)
REM
REM compiler GCC version 9.2.1 20190827 (Red Hat 9.2.1-1)
REM options -cpp -mtune=generic -march=x86-64 -g -O0 -fpre-include=/usr/include/finclude/math-vector-fortran.h
REM seed 507662844 1890614973 -422849971 -1880397701 -947255391 -1612902592 1349492892 1655594644 -1163041733 -460625250 456697033 1122055254 -882623852 987114507 -151808085 1225193772 1971606548 939717914 5269101 -610724286 1671680922 -1831577884 -717825581 672012185 1848418403 108961348 -1813962345 -1244485225 308962255 -655466842 1048657880 -1900214524 944164559
REM
CELL 1.54180   50.00000   50.00000   50.00000   90.00000   90.00000   90.00000
LATT -1
SFAC C  
C      1  0.5523900000000  0.4595140000000  0.5694000000000 1.0
C      1  0.5534770000000  0.5805090000000  0.5027320000000 1.0
C      1  0.5531920000000  0.4597540000000  0.4310750000000 1.0
C      1  0.5051160000000  0.5139840000000  0.4364910000000 1.0
C      1  0.5055560000000  0.4389260000000  0.5158430000000 1.0
C      1  0.5048460000000  0.5449880000000  0.5447030000000 1.0
C      1  0.4548550000000  0.5446120000000  0.5080220000000 1.0
C      1  0.4549170000000  0.4838340000000  0.4557320000000 1.0
C      1  0.4570460000000  0.4709700000000  0.5337920000000 1.0
C      1  0.4769230000000  0.5603060000000  0.4988180000000 1.0
C      1  0.4761720000000  0.4656900000000  0.4472830000000 1.0
C      1  0.4770170000000  0.4725300000000  0.5546090000000 1.0
C      1  0.5423220000000  0.5297350000000  0.4956020000000 1.0
C      1  0.5424220000000  0.4816280000000  0.4770690000000 1.0
C      1  0.5430100000000  0.4894860000000  0.5279380000000 1.0
C      1  0.4478170000000  0.4725470000000  0.4840510000000 1.0
C      1  0.4480480000000  0.5006940000000  0.5306800000000 1.0
C      1  0.4464070000000  0.5261460000000  0.4836990000000 1.0
C      1  0.5288590000000  0.5436880000000  0.5302250000000 1.0
C      1  0.5290600000000  0.5032870000000  0.4467460000000 1.0
C      1  0.5286590000000  0.4528390000000  0.5232660000000 1.0
C      1  0.5336640000000  0.5609680000000  0.5029830000000 1.0
C      1  0.5333980000000  0.4707220000000  0.4473430000000 1.0
C      1  0.5331340000000  0.4691900000000  0.5517230000000 1.0
C      1  0.5073990000000  0.4777060000000  0.5634880000000 1.0
C      1  0.5074080000000  0.5680910000000  0.4909960000000 1.0
C      1  0.5072680000000  0.4568540000000  0.4476690000000 1.0
C      1  0.4875280000000  0.5030010000000  0.5606100000000 1.0
C      1  0.4923730000000  0.5454910000000  0.4723800000000 1.0
C      1  0.4881280000000  0.4464950000000  0.4712220000000 1.0
C      1  0.5416250000000  0.5166520000000  0.5237330000000 1.0
C      1  0.5407580000000  0.5124790000000  0.4739910000000 1.0
C      1  0.5417600000000  0.4717830000000  0.5028080000000 1.0
C      1  0.4592020000000  0.4566610000000  0.5083850000000 1.0
C      1  0.4572670000000  0.5303630000000  0.5337360000000 1.0
C      1  0.4578910000000  0.5131170000000  0.4571980000000 1.0
C      1  0.4803240000000  0.5201620000000  0.4894330000000 1.0
C      1  0.4768120000000  0.4866640000000  0.4888680000000 1.0
C      1  0.4775250000000  0.5006730000000  0.5166670000000 1.0
C      1  0.4831740000000  0.4428400000000  0.4990280000000 1.0
C      1  0.4820560000000  0.5290080000000  0.5499880000000 1.0
C      1  0.4831940000000  0.5254140000000  0.4499740000000 1.0
END
