TITL C-2782234-8014-1064 -0.000916041280573392 125000 -866.759686954938 0 0 150 (C1) n - 1
REM
REM in /home/nfs/bkarasulu/CARBON/AIRSS/Generating-Clusters/REBO/Higher-Symm/SD-CG/HFTN-CG
REM
REM
REM
REM
REM
REM ./C.cell (12c818d87b63d06a65506943cc24bca4)
REM
REM compiler GCC version 9.2.1 20190827 (Red Hat 9.2.1-1)
REM options -cpp -mtune=generic -march=x86-64 -g -O0 -fpre-include=/usr/include/finclude/math-vector-fortran.h
REM seed -477205882 -1102415500 -345180307 1598014048 -1536673176 -16175511 1582864820 -1854136505 1671576592 -1574448296 -180130763 -1623471089 1758095660 -2103065194 387933895 618492250 -1795991447 -1186897806 1396862385 -39555159 156246550 -1659017230 -676750694 -2046369515 -849288665 1277358696 401929904 1804134411 1230939366 857132188 812562409 -64525690 141066241
REM
CELL 1.54180   50.00000   50.00000   50.00000   90.00000   90.00000   90.00000
LATT -1
SFAC C  
C      1  0.4818380000000  0.4764620000000  0.4913880000000 1.0
C      1  0.4841370000000  0.5227410000000  0.5125990000000 1.0
C      1  0.5120960000000  0.4773930000000  0.4858420000000 1.0
C      1  0.5175330000000  0.5225480000000  0.5049300000000 1.0
C      1  0.5547350000000  0.5559490000000  0.4843340000000 1.0
C      1  0.5517780000000  0.4501200000000  0.5113900000000 1.0
C      1  0.4503010000000  0.5516790000000  0.4886070000000 1.0
C      1  0.4441730000000  0.4487180000000  0.5100720000000 1.0
C      1  0.5594010000000  0.4122890000000  0.4726040000000 1.0
C      1  0.5625060000000  0.5879280000000  0.5247220000000 1.0
C      1  0.4460680000000  0.4109250000000  0.4770810000000 1.0
C      1  0.4455790000000  0.5818100000000  0.5214970000000 1.0
C      1  0.5952090000000  0.4664840000000  0.5297010000000 1.0
C      1  0.5974030000000  0.5332260000000  0.4677020000000 1.0
C      1  0.3994820000000  0.4649010000000  0.5259400000000 1.0
C      1  0.4060940000000  0.5330810000000  0.4607460000000 1.0
C      1  0.5649770000000  0.4615130000000  0.4360950000000 1.0
C      1  0.5676630000000  0.5385000000000  0.5607630000000 1.0
C      1  0.4322130000000  0.4588500000000  0.4349930000000 1.0
C      1  0.4362970000000  0.5371950000000  0.5550830000000 1.0
C      1  0.4463040000000  0.4706170000000  0.5847950000000 1.0
C      1  0.4456380000000  0.5282030000000  0.4191230000000 1.0
C      1  0.5592670000000  0.4658590000000  0.5818370000000 1.0
C      1  0.5573980000000  0.5336470000000  0.4220430000000 1.0
C      1  0.4858890000000  0.4068880000000  0.5149550000000 1.0
C      1  0.4854500000000  0.5955990000000  0.4855890000000 1.0
C      1  0.5199530000000  0.4061100000000  0.5138750000000 1.0
C      1  0.5191880000000  0.5954530000000  0.4879380000000 1.0
C      1  0.4756330000000  0.5745010000000  0.4644650000000 1.0
C      1  0.4774870000000  0.4240770000000  0.5398920000000 1.0
C      1  0.5175060000000  0.5784570000000  0.4594940000000 1.0
C      1  0.5185970000000  0.4220570000000  0.5429990000000 1.0
C      1  0.5150250000000  0.4982100000000  0.5637990000000 1.0
C      1  0.5105630000000  0.5020260000000  0.4399990000000 1.0
C      1  0.4815380000000  0.5018230000000  0.5685250000000 1.0
C      1  0.4781240000000  0.5003080000000  0.4315160000000 1.0
C      1  0.4773080000000  0.4379910000000  0.4400130000000 1.0
C      1  0.4801680000000  0.5662930000000  0.5617520000000 1.0
C      1  0.5365150000000  0.4420960000000  0.4390860000000 1.0
C      1  0.5412420000000  0.5604280000000  0.5598400000000 1.0
C      1  0.5536410000000  0.4740840000000  0.5509420000000 1.0
C      1  0.5546190000000  0.5262730000000  0.4542250000000 1.0
C      1  0.4379450000000  0.4733680000000  0.5535030000000 1.0
C      1  0.4445310000000  0.5232470000000  0.4521770000000 1.0
C      1  0.5140950000000  0.5130300000000  0.4018400000000 1.0
C      1  0.5172790000000  0.4878370000000  0.6020250000000 1.0
C      1  0.4847070000000  0.5041930000000  0.3926860000000 1.0
C      1  0.4863960000000  0.4981530000000  0.6077520000000 1.0
C      1  0.5423630000000  0.4587890000000  0.4680160000000 1.0
C      1  0.5407760000000  0.5399150000000  0.5322090000000 1.0
C      1  0.4611400000000  0.4570630000000  0.4616740000000 1.0
C      1  0.4718800000000  0.5472870000000  0.5416330000000 1.0
C      1  0.4828660000000  0.5300490000000  0.4335220000000 1.0
C      1  0.4830900000000  0.4703410000000  0.5694450000000 1.0
C      1  0.5127610000000  0.5379770000000  0.4229820000000 1.0
C      1  0.5135990000000  0.4623420000000  0.5809900000000 1.0
C      1  0.5570740000000  0.4843200000000  0.4126910000000 1.0
C      1  0.5604550000000  0.5169380000000  0.5861500000000 1.0
C      1  0.4428540000000  0.4760730000000  0.4114200000000 1.0
C      1  0.4463160000000  0.5232080000000  0.5810130000000 1.0
C      1  0.5201500000000  0.5466950000000  0.5801780000000 1.0
C      1  0.5171470000000  0.4545840000000  0.4186650000000 1.0
C      1  0.4910870000000  0.5527180000000  0.5846250000000 1.0
C      1  0.4892150000000  0.4512010000000  0.4180410000000 1.0
C      1  0.4919630000000  0.4155700000000  0.4552880000000 1.0
C      1  0.4957170000000  0.5888250000000  0.5450910000000 1.0
C      1  0.5240260000000  0.4168710000000  0.4545430000000 1.0
C      1  0.5285590000000  0.5853400000000  0.5456780000000 1.0
C      1  0.5868440000000  0.4870620000000  0.4805920000000 1.0
C      1  0.5917090000000  0.5154660000000  0.5253540000000 1.0
C      1  0.4136840000000  0.4853730000000  0.4793150000000 1.0
C      1  0.4031170000000  0.5146550000000  0.5217120000000 1.0
C      1  0.5280960000000  0.4497130000000  0.4933780000000 1.0
C      1  0.5317860000000  0.5513680000000  0.5050510000000 1.0
C      1  0.4670070000000  0.4475320000000  0.4907940000000 1.0
C      1  0.4713480000000  0.5536130000000  0.5100730000000 1.0
C      1  0.4521640000000  0.5543290000000  0.4396960000000 1.0
C      1  0.4531940000000  0.4445190000000  0.5639630000000 1.0
C      1  0.5459950000000  0.5575240000000  0.4413350000000 1.0
C      1  0.5470150000000  0.4421050000000  0.5619420000000 1.0
C      1  0.4627540000000  0.5950950000000  0.5405110000000 1.0
C      1  0.4671780000000  0.3967850000000  0.4629380000000 1.0
C      1  0.5516050000000  0.6082210000000  0.5452980000000 1.0
C      1  0.5447870000000  0.3918390000000  0.4548280000000 1.0
C      1  0.4094580000000  0.5051170000000  0.4573530000000 1.0
C      1  0.4032470000000  0.4893890000000  0.5415950000000 1.0
C      1  0.5895420000000  0.5075500000000  0.4595730000000 1.0
C      1  0.5890890000000  0.4908020000000  0.5444140000000 1.0
C      1  0.5195760000000  0.5284230000000  0.5512390000000 1.0
C      1  0.5163580000000  0.4732480000000  0.4538230000000 1.0
C      1  0.4894060000000  0.5220900000000  0.5452370000000 1.0
C      1  0.4833500000000  0.4756420000000  0.4511860000000 1.0
C      1  0.4392120000000  0.4776460000000  0.5211410000000 1.0
C      1  0.4401650000000  0.5206870000000  0.4860010000000 1.0
C      1  0.5569810000000  0.4809600000000  0.5185460000000 1.0
C      1  0.5540810000000  0.5227300000000  0.4882490000000 1.0
C      1  0.4577590000000  0.4940040000000  0.4757730000000 1.0
C      1  0.4580490000000  0.5043120000000  0.5254460000000 1.0
C      1  0.5385200000000  0.4973160000000  0.4765950000000 1.0
C      1  0.5336800000000  0.5016170000000  0.5251210000000 1.0
C      1  0.4803050000000  0.4579740000000  0.5381410000000 1.0
C      1  0.4803160000000  0.5407070000000  0.4647940000000 1.0
C      1  0.5121620000000  0.4546600000000  0.5473510000000 1.0
C      1  0.5112360000000  0.5459810000000  0.4565500000000 1.0
C      1  0.5604270000000  0.4919970000000  0.4511400000000 1.0
C      1  0.5593740000000  0.5080010000000  0.5475400000000 1.0
C      1  0.4385840000000  0.4894620000000  0.4486310000000 1.0
C      1  0.4323040000000  0.5064060000000  0.5476250000000 1.0
C      1  0.4773290000000  0.5267120000000  0.5915030000000 1.0
C      1  0.4752170000000  0.4755530000000  0.4085860000000 1.0
C      1  0.5281510000000  0.5172540000000  0.5884340000000 1.0
C      1  0.5248240000000  0.4835560000000  0.4152980000000 1.0
C      1  0.4123470000000  0.4539490000000  0.5038660000000 1.0
C      1  0.4159020000000  0.5511840000000  0.4794210000000 1.0
C      1  0.5844160000000  0.4546360000000  0.5070280000000 1.0
C      1  0.5865350000000  0.5489250000000  0.4871390000000 1.0
C      1  0.5733260000000  0.5626850000000  0.5366270000000 1.0
C      1  0.5714450000000  0.4344160000000  0.4565140000000 1.0
C      1  0.4341030000000  0.5549240000000  0.5310380000000 1.0
C      1  0.4310960000000  0.4321860000000  0.4563450000000 1.0
C      1  0.4292810000000  0.4589930000000  0.4745010000000 1.0
C      1  0.4202900000000  0.5367500000000  0.5093860000000 1.0
C      1  0.5745340000000  0.4601830000000  0.4748960000000 1.0
C      1  0.5708880000000  0.5364510000000  0.5151240000000 1.0
C      1  0.4523950000000  0.5070950000000  0.4017470000000 1.0
C      1  0.4548890000000  0.4945940000000  0.5972630000000 1.0
C      1  0.5481210000000  0.5136380000000  0.4045060000000 1.0
C      1  0.5513650000000  0.4872440000000  0.5987950000000 1.0
C      1  0.4841740000000  0.4235570000000  0.4873060000000 1.0
C      1  0.4875300000000  0.5797970000000  0.5131250000000 1.0
C      1  0.5159320000000  0.4235720000000  0.4861050000000 1.0
C      1  0.5196490000000  0.5772150000000  0.5154720000000 1.0
C      1  0.4459230000000  0.4287770000000  0.5345840000000 1.0
C      1  0.4423180000000  0.5747810000000  0.4651120000000 1.0
C      1  0.5493300000000  0.4264870000000  0.5316710000000 1.0
C      1  0.5493030000000  0.5804080000000  0.4665090000000 1.0
C      1  0.4857120000000  0.4359160000000  0.5706840000000 1.0
C      1  0.4845510000000  0.5643130000000  0.4331740000000 1.0
C      1  0.5187380000000  0.4289660000000  0.5764530000000 1.0
C      1  0.5175890000000  0.5708060000000  0.4265710000000 1.0
C      1  0.4794590000000  0.5152250000000  0.4819840000000 1.0
C      1  0.4812270000000  0.4836630000000  0.5203840000000 1.0
C      1  0.5113310000000  0.5162650000000  0.4711220000000 1.0
C      1  0.5101990000000  0.4840700000000  0.5353380000000 1.0
C      1  0.5518240000000  0.5931440000000  0.4980870000000 1.0
C      1  0.5510780000000  0.4117260000000  0.5007740000000 1.0
C      1  0.4525850000000  0.5907580000000  0.4935150000000 1.0
C      1  0.4524370000000  0.4099250000000  0.5068170000000 1.0
C      1  0.5804240000000  0.4949530000000  0.5058430000000 1.0
C      1  0.4176560000000  0.4935770000000  0.5048780000000 1.0
END
