TITL C-2782226-7400-748 -0.00165188509895037 125000 -737.552715065412 0 0 125 (C1) n - 1
REM
REM in /home/nfs/bkarasulu/CARBON/AIRSS/Generating-Clusters/REBO/Higher-Symm/SD-CG/HFTN-CG
REM
REM
REM
REM
REM
REM ./C.cell (12c818d87b63d06a65506943cc24bca4)
REM
REM compiler GCC version 9.2.1 20190827 (Red Hat 9.2.1-1)
REM options -cpp -mtune=generic -march=x86-64 -g -O0 -fpre-include=/usr/include/finclude/math-vector-fortran.h
REM seed 2027496902 -1391402013 -1452748520 1353527774 -2006097543 728933539 -2101099427 1473809268 -575098222 771766222 598297754 -364151624 445837996 111925776 1447181883 -1903078007 1909980715 425538167 -301771806 875054304 -1727321479 296997353 -1024558482 80800247 -1019312414 1540682118 397718238 -570001728 -1228152784 -9805956 1643958832 84885086 1188273799
REM
CELL 1.54180   50.00000   50.00000   50.00000   90.00000   90.00000   90.00000
LATT -1
SFAC C  
C      1  0.4838170000000  0.4463920000000  0.5228730000000 1.0
C      1  0.5174470000000  0.4417820000000  0.5203610000000 1.0
C      1  0.5241020000000  0.4399330000000  0.4885210000000 1.0
C      1  0.4977940000000  0.4399380000000  0.4697270000000 1.0
C      1  0.4743990000000  0.4497820000000  0.4924700000000 1.0
C      1  0.4434900000000  0.4388160000000  0.4855100000000 1.0
C      1  0.4716920000000  0.4324570000000  0.5517910000000 1.0
C      1  0.5432410000000  0.4312030000000  0.5400430000000 1.0
C      1  0.5525630000000  0.4291940000000  0.4770100000000 1.0
C      1  0.4936720000000  0.4315400000000  0.4369050000000 1.0
C      1  0.4795570000000  0.5565240000000  0.5137230000000 1.0
C      1  0.5028980000000  0.5458950000000  0.5311860000000 1.0
C      1  0.5310960000000  0.5496370000000  0.5148240000000 1.0
C      1  0.5183380000000  0.5467640000000  0.4834000000000 1.0
C      1  0.4867620000000  0.5518450000000  0.4846100000000 1.0
C      1  0.4966410000000  0.4143760000000  0.5458890000000 1.0
C      1  0.5482290000000  0.4102960000000  0.5178710000000 1.0
C      1  0.5329890000000  0.4136910000000  0.4597590000000 1.0
C      1  0.4730680000000  0.4136140000000  0.4530330000000 1.0
C      1  0.4534070000000  0.4174870000000  0.5068540000000 1.0
C      1  0.5243090000000  0.4331750000000  0.4404240000000 1.0
C      1  0.4517470000000  0.4342140000000  0.4558330000000 1.0
C      1  0.4478250000000  0.4292440000000  0.5316150000000 1.0
C      1  0.5179150000000  0.4283660000000  0.5579370000000 1.0
C      1  0.5684530000000  0.4207660000000  0.5005800000000 1.0
C      1  0.5462750000000  0.5008670000000  0.4337260000000 1.0
C      1  0.4499200000000  0.5024350000000  0.4294440000000 1.0
C      1  0.4249760000000  0.5040040000000  0.5209720000000 1.0
C      1  0.5033380000000  0.4985850000000  0.5855740000000 1.0
C      1  0.5850590000000  0.4945290000000  0.5244470000000 1.0
C      1  0.4813430000000  0.4531540000000  0.4189840000000 1.0
C      1  0.4205470000000  0.4586200000000  0.5010000000000 1.0
C      1  0.4778870000000  0.4533330000000  0.5780290000000 1.0
C      1  0.5632430000000  0.4520310000000  0.5516560000000 1.0
C      1  0.5622900000000  0.4546800000000  0.4646220000000 1.0
C      1  0.5887350000000  0.5264520000000  0.5314570000000 1.0
C      1  0.5351610000000  0.5325210000000  0.4354800000000 1.0
C      1  0.4222810000000  0.5065760000000  0.4335390000000 1.0
C      1  0.4265770000000  0.5106690000000  0.5479170000000 1.0
C      1  0.5141100000000  0.5296810000000  0.5801880000000 1.0
C      1  0.4920580000000  0.5011780000000  0.4009630000000 1.0
C      1  0.4010760000000  0.5023040000000  0.4794910000000 1.0
C      1  0.4551880000000  0.4983010000000  0.5934920000000 1.0
C      1  0.5660520000000  0.4998950000000  0.5681280000000 1.0
C      1  0.5892330000000  0.4939930000000  0.4608000000000 1.0
C      1  0.5764940000000  0.4797360000000  0.5496560000000 1.0
C      1  0.5678310000000  0.4808650000000  0.4463720000000 1.0
C      1  0.4699900000000  0.4844720000000  0.4144670000000 1.0
C      1  0.4085090000000  0.4885890000000  0.5035400000000 1.0
C      1  0.4776510000000  0.4829080000000  0.5921950000000 1.0
C      1  0.5687540000000  0.5692770000000  0.4631520000000 1.0
C      1  0.4868740000000  0.5543270000000  0.4154300000000 1.0
C      1  0.4194590000000  0.5747410000000  0.4888440000000 1.0
C      1  0.4565680000000  0.5503440000000  0.5866040000000 1.0
C      1  0.5576840000000  0.5547600000000  0.5758900000000 1.0
C      1  0.5319720000000  0.5553960000000  0.4561040000000 1.0
C      1  0.4657270000000  0.5522160000000  0.4606770000000 1.0
C      1  0.4513030000000  0.5543630000000  0.5242200000000 1.0
C      1  0.5018800000000  0.5513320000000  0.5613420000000 1.0
C      1  0.5616460000000  0.5425610000000  0.5247660000000 1.0
C      1  0.5260800000000  0.5157230000000  0.5190270000000 1.0
C      1  0.5207600000000  0.5133860000000  0.4853930000000 1.0
C      1  0.4888210000000  0.5190530000000  0.4750260000000 1.0
C      1  0.4736740000000  0.5080550000000  0.5033920000000 1.0
C      1  0.4928480000000  0.5140560000000  0.5262900000000 1.0
C      1  0.5494590000000  0.6171720000000  0.4697790000000 1.0
C      1  0.5188280000000  0.5784860000000  0.4423910000000 1.0
C      1  0.4580400000000  0.5826380000000  0.4591160000000 1.0
C      1  0.4405940000000  0.5751030000000  0.5470320000000 1.0
C      1  0.5150120000000  0.5776890000000  0.5701500000000 1.0
C      1  0.4865500000000  0.5030580000000  0.5563060000000 1.0
C      1  0.5564120000000  0.5053280000000  0.5115670000000 1.0
C      1  0.5464750000000  0.5087180000000  0.4655180000000 1.0
C      1  0.4599900000000  0.5122760000000  0.4594160000000 1.0
C      1  0.4450420000000  0.5190150000000  0.5066710000000 1.0
C      1  0.4511410000000  0.4802640000000  0.4624500000000 1.0
C      1  0.4476420000000  0.4731060000000  0.5436620000000 1.0
C      1  0.5226740000000  0.4804300000000  0.5561310000000 1.0
C      1  0.5497190000000  0.4860000000000  0.4887520000000 1.0
C      1  0.5122820000000  0.4843470000000  0.4467160000000 1.0
C      1  0.4424800000000  0.5702210000000  0.5739080000000 1.0
C      1  0.5410320000000  0.5761000000000  0.5786400000000 1.0
C      1  0.5654760000000  0.5956640000000  0.4657700000000 1.0
C      1  0.5073450000000  0.5726360000000  0.4170950000000 1.0
C      1  0.4318160000000  0.5883470000000  0.4684650000000 1.0
C      1  0.5087960000000  0.4529780000000  0.5697720000000 1.0
C      1  0.5855620000000  0.4422560000000  0.5062380000000 1.0
C      1  0.5383400000000  0.4630180000000  0.4435310000000 1.0
C      1  0.4577120000000  0.4612570000000  0.4393680000000 1.0
C      1  0.4341170000000  0.4535860000000  0.5284720000000 1.0
C      1  0.4742700000000  0.4823390000000  0.4845550000000 1.0
C      1  0.4782630000000  0.4779120000000  0.5349680000000 1.0
C      1  0.5113170000000  0.4745270000000  0.5272580000000 1.0
C      1  0.5242600000000  0.4726560000000  0.4963280000000 1.0
C      1  0.5021490000000  0.4719050000000  0.4738410000000 1.0
C      1  0.5186400000000  0.5095830000000  0.4164450000000 1.0
C      1  0.4156130000000  0.5166920000000  0.4596660000000 1.0
C      1  0.4413840000000  0.5141470000000  0.5757140000000 1.0
C      1  0.5368780000000  0.5047570000000  0.5843400000000 1.0
C      1  0.5899420000000  0.5001560000000  0.4908450000000 1.0
C      1  0.4486120000000  0.4662790000000  0.5705590000000 1.0
C      1  0.5463600000000  0.4653460000000  0.5715630000000 1.0
C      1  0.5784170000000  0.4682180000000  0.4894020000000 1.0
C      1  0.5066980000000  0.4698180000000  0.4205140000000 1.0
C      1  0.4259390000000  0.4720260000000  0.4718670000000 1.0
C      1  0.4331360000000  0.5487820000000  0.4988540000000 1.0
C      1  0.4762460000000  0.5321440000000  0.5679750000000 1.0
C      1  0.5582490000000  0.5309530000000  0.5564680000000 1.0
C      1  0.5591940000000  0.5393570000000  0.4695430000000 1.0
C      1  0.4801580000000  0.5388630000000  0.4369490000000 1.0
C      1  0.5238600000000  0.3989410000000  0.5061240000000 1.0
C      1  0.5160060000000  0.3983470000000  0.4768120000000 1.0
C      1  0.4863220000000  0.3996710000000  0.4745690000000 1.0
C      1  0.4761240000000  0.4019620000000  0.5018200000000 1.0
C      1  0.4983760000000  0.4012150000000  0.5210030000000 1.0
C      1  0.5216980000000  0.6210890000000  0.4691880000000 1.0
C      1  0.5066520000000  0.5990280000000  0.4571800000000 1.0
C      1  0.4778120000000  0.6025470000000  0.4611830000000 1.0
C      1  0.4755300000000  0.6290760000000  0.4736070000000 1.0
C      1  0.5014060000000  0.6397060000000  0.4786310000000 1.0
C      1  0.5321580000000  0.5105430000000  0.5503830000000 1.0
C      1  0.5725660000000  0.5291070000000  0.4953080000000 1.0
C      1  0.5002810000000  0.5148230000000  0.4437020000000 1.0
C      1  0.4394240000000  0.5348520000000  0.4705590000000 1.0
C      1  0.4481950000000  0.5360400000000  0.5503140000000 1.0
END
