TITL C-2782225-7408-834 0.00021153503201087 125000 -402.133258468823 0 0 70 (C1) n - 1
REM
REM in /home/nfs/bkarasulu/CARBON/AIRSS/Generating-Clusters/REBO/Higher-Symm/SD-CG/HFTN-CG
REM
REM
REM
REM
REM
REM ./C.cell (12c818d87b63d06a65506943cc24bca4)
REM
REM compiler GCC version 9.2.1 20190827 (Red Hat 9.2.1-1)
REM options -cpp -mtune=generic -march=x86-64 -g -O0 -fpre-include=/usr/include/finclude/math-vector-fortran.h
REM seed 1581950783 1581307794 -901993548 -57543558 -206815860 -2021127361 -1097837395 1338170560 -1389751497 -1613243768 -1524370270 -1417053452 -328180576 1927220253 -969337776 1889710586 95516979 -4490154 -1761963894 -1407987525 -1123817178 -1392123569 60825521 -807250177 1115539507 -1391903137 884757830 -941372333 1138373818 -1929180325 1220969084 785741014 572579598
REM
CELL 1.54180   50.00000   50.00000   50.00000   90.00000   90.00000   90.00000
LATT -1
SFAC C  
C      1  0.5582400000000  0.5294450000000  0.5060930000000 1.0
C      1  0.5571030000000  0.5129060000000  0.4763590000000 1.0
C      1  0.5562020000000  0.4795550000000  0.4829740000000 1.0
C      1  0.5567730000000  0.4755780000000  0.5167600000000 1.0
C      1  0.5580410000000  0.5063890000000  0.5311830000000 1.0
C      1  0.5245980000000  0.4897600000000  0.4776660000000 1.0
C      1  0.5247410000000  0.4740320000000  0.5068740000000 1.0
C      1  0.5259250000000  0.4967170000000  0.5306590000000 1.0
C      1  0.5267150000000  0.5262740000000  0.5164860000000 1.0
C      1  0.5258790000000  0.5222550000000  0.4838340000000 1.0
C      1  0.5232570000000  0.4028590000000  0.5280340000000 1.0
C      1  0.5248670000000  0.5095110000000  0.6026520000000 1.0
C      1  0.5223180000000  0.5986950000000  0.5241580000000 1.0
C      1  0.5255750000000  0.5527880000000  0.4181520000000 1.0
C      1  0.5258120000000  0.4397150000000  0.4246560000000 1.0
C      1  0.4841300000000  0.4749830000000  0.5581460000000 1.0
C      1  0.4850190000000  0.5517650000000  0.5344980000000 1.0
C      1  0.4844310000000  0.5486470000000  0.4628340000000 1.0
C      1  0.4834650000000  0.4797720000000  0.4431440000000 1.0
C      1  0.4680830000000  0.4330210000000  0.4925860000000 1.0
C      1  0.5126790000000  0.4469330000000  0.5096220000000 1.0
C      1  0.5126510000000  0.4915650000000  0.5564880000000 1.0
C      1  0.5152990000000  0.5499010000000  0.5305110000000 1.0
C      1  0.5146970000000  0.5433410000000  0.4658280000000 1.0
C      1  0.5131190000000  0.4796340000000  0.4519060000000 1.0
C      1  0.5901940000000  0.5138670000000  0.5242670000000 1.0
C      1  0.5899190000000  0.5252730000000  0.4954590000000 1.0
C      1  0.5887920000000  0.5014480000000  0.4757040000000 1.0
C      1  0.5883230000000  0.4752910000000  0.4922930000000 1.0
C      1  0.5891510000000  0.4829790000000  0.5223030000000 1.0
C      1  0.5041960000000  0.4235290000000  0.4293720000000 1.0
C      1  0.5006830000000  0.4030870000000  0.5441380000000 1.0
C      1  0.5042370000000  0.5277890000000  0.6029480000000 1.0
C      1  0.5007220000000  0.6054190000000  0.5086290000000 1.0
C      1  0.5048200000000  0.5404910000000  0.4050830000000 1.0
C      1  0.4822670000000  0.5881410000000  0.4960730000000 1.0
C      1  0.4850740000000  0.5235270000000  0.4160090000000 1.0
C      1  0.4831570000000  0.4275370000000  0.4476720000000 1.0
C      1  0.4841990000000  0.4261890000000  0.5446660000000 1.0
C      1  0.4866440000000  0.5317130000000  0.5812770000000 1.0
C      1  0.4834820000000  0.4945660000000  0.4137050000000 1.0
C      1  0.4795350000000  0.4141630000000  0.4735440000000 1.0
C      1  0.4815870000000  0.4439710000000  0.5654930000000 1.0
C      1  0.4801130000000  0.5543440000000  0.5668020000000 1.0
C      1  0.4811860000000  0.5810910000000  0.4678300000000 1.0
C      1  0.5292920000000  0.4643600000000  0.4360070000000 1.0
C      1  0.5286700000000  0.4247170000000  0.5120030000000 1.0
C      1  0.5303230000000  0.4925120000000  0.5818730000000 1.0
C      1  0.5287370000000  0.5734710000000  0.5326660000000 1.0
C      1  0.5298700000000  0.5528190000000  0.4451960000000 1.0
C      1  0.4686130000000  0.4639220000000  0.5333580000000 1.0
C      1  0.4695340000000  0.5248000000000  0.5420310000000 1.0
C      1  0.4670380000000  0.5449660000000  0.4891990000000 1.0
C      1  0.4664240000000  0.5041680000000  0.4539210000000 1.0
C      1  0.4575170000000  0.4544770000000  0.4765670000000 1.0
C      1  0.4746580000000  0.5291620000000  0.4421840000000 1.0
C      1  0.4705960000000  0.4538080000000  0.4511340000000 1.0
C      1  0.4833300000000  0.4416780000000  0.5169820000000 1.0
C      1  0.4841260000000  0.5073540000000  0.5624420000000 1.0
C      1  0.4737850000000  0.5641840000000  0.5095920000000 1.0
C      1  0.4373950000000  0.5271220000000  0.5464070000000 1.0
C      1  0.4175170000000  0.5414130000000  0.4938300000000 1.0
C      1  0.4166880000000  0.5074810000000  0.4553080000000 1.0
C      1  0.4102560000000  0.4668180000000  0.4859270000000 1.0
C      1  0.4366220000000  0.4610080000000  0.5382350000000 1.0
C      1  0.4423520000000  0.5032310000000  0.4720550000000 1.0
C      1  0.4397110000000  0.4760930000000  0.4875160000000 1.0
C      1  0.4468100000000  0.4825430000000  0.5163800000000 1.0
C      1  0.4480790000000  0.5116420000000  0.5201430000000 1.0
C      1  0.4441610000000  0.5257930000000  0.4936720000000 1.0
END
