TITL C-2782238-9940-193 0.00130999278737355 125000 -598.015645463669 0 0 106 (C1) n - 1
REM
REM in /home/nfs/bkarasulu/CARBON/AIRSS/Generating-Clusters/REBO/Higher-Symm/SD-CG/HFTN-CG
REM
REM
REM
REM
REM
REM ./C.cell (12c818d87b63d06a65506943cc24bca4)
REM
REM compiler GCC version 9.2.1 20190827 (Red Hat 9.2.1-1)
REM options -cpp -mtune=generic -march=x86-64 -g -O0 -fpre-include=/usr/include/finclude/math-vector-fortran.h
REM seed 827575491 915586062 1461339066 -171787933 1989753366 -2087884938 950985209 -1440709108 1294811378 2012447729 1921386483 1009935605 -602651388 353349095 -1259349384 -374840950 -386392105 1322284060 1424827339 1272485781 1808634289 -720437648 1318055361 244576681 -1607858925 -1750875137 740128216 1494533934 1005324144 -153062169 -2142152069 -1104487212 428385441
REM
CELL 1.54180   50.00000   50.00000   50.00000   90.00000   90.00000   90.00000
LATT -1
SFAC C  
C      1  0.5026270000000  0.5273860000000  0.5093320000000 1.0
C      1  0.5314360000000  0.4820970000000  0.5124300000000 1.0
C      1  0.4756490000000  0.4840630000000  0.5139680000000 1.0
C      1  0.4759430000000  0.5285840000000  0.4304850000000 1.0
C      1  0.5341980000000  0.5067780000000  0.4280770000000 1.0
C      1  0.4864920000000  0.4664300000000  0.4268750000000 1.0
C      1  0.4276080000000  0.5132030000000  0.5450120000000 1.0
C      1  0.5577320000000  0.5594190000000  0.5429690000000 1.0
C      1  0.5219200000000  0.4242520000000  0.5451760000000 1.0
C      1  0.4475300000000  0.5178490000000  0.4612360000000 1.0
C      1  0.5407110000000  0.5413070000000  0.4623910000000 1.0
C      1  0.5108650000000  0.4459070000000  0.4675650000000 1.0
C      1  0.4585780000000  0.4552250000000  0.3896620000000 1.0
C      1  0.4635000000000  0.5678730000000  0.4060440000000 1.0
C      1  0.5556700000000  0.4776280000000  0.3970550000000 1.0
C      1  0.4953040000000  0.5824520000000  0.4797540000000 1.0
C      1  0.5741190000000  0.4591480000000  0.4739150000000 1.0
C      1  0.4221140000000  0.4584590000000  0.4624610000000 1.0
C      1  0.4775880000000  0.5296920000000  0.5713560000000 1.0
C      1  0.5369190000000  0.5093620000000  0.5682680000000 1.0
C      1  0.4902450000000  0.4676180000000  0.5713040000000 1.0
C      1  0.5045730000000  0.4030990000000  0.5306420000000 1.0
C      1  0.4206880000000  0.5307130000000  0.5207360000000 1.0
C      1  0.5760110000000  0.5467720000000  0.5199920000000 1.0
C      1  0.4700530000000  0.5661020000000  0.5249590000000 1.0
C      1  0.5854730000000  0.4841490000000  0.5318140000000 1.0
C      1  0.4544230000000  0.4422950000000  0.5296680000000 1.0
C      1  0.5405290000000  0.4597080000000  0.4762880000000 1.0
C      1  0.4447200000000  0.4840630000000  0.4640430000000 1.0
C      1  0.5137860000000  0.5553970000000  0.4756790000000 1.0
C      1  0.4738080000000  0.4161790000000  0.5240820000000 1.0
C      1  0.4387740000000  0.5588710000000  0.5194790000000 1.0
C      1  0.5888650000000  0.5171820000000  0.5321460000000 1.0
C      1  0.5430030000000  0.4696750000000  0.5591460000000 1.0
C      1  0.4471730000000  0.4824150000000  0.5612310000000 1.0
C      1  0.5084590000000  0.5544230000000  0.5587500000000 1.0
C      1  0.4848650000000  0.5736240000000  0.4483940000000 1.0
C      1  0.5629470000000  0.4687540000000  0.4430590000000 1.0
C      1  0.4379580000000  0.4607510000000  0.4322880000000 1.0
C      1  0.5359680000000  0.4250870000000  0.4569850000000 1.0
C      1  0.4183310000000  0.5083990000000  0.4464370000000 1.0
C      1  0.5388780000000  0.5734650000000  0.4503190000000 1.0
C      1  0.4620900000000  0.4516220000000  0.5606260000000 1.0
C      1  0.4749000000000  0.5606960000000  0.5569190000000 1.0
C      1  0.5653700000000  0.4951670000000  0.5556300000000 1.0
C      1  0.5900040000000  0.5328330000000  0.4957450000000 1.0
C      1  0.5012950000000  0.4013950000000  0.4992760000000 1.0
C      1  0.4117410000000  0.5476120000000  0.4923910000000 1.0
C      1  0.4680380000000  0.4037830000000  0.4929200000000 1.0
C      1  0.4318130000000  0.5741640000000  0.4901350000000 1.0
C      1  0.6090740000000  0.5070920000000  0.5064740000000 1.0
C      1  0.4478490000000  0.5418260000000  0.5476400000000 1.0
C      1  0.5684890000000  0.5291670000000  0.5547300000000 1.0
C      1  0.4891770000000  0.4351810000000  0.5480410000000 1.0
C      1  0.5246740000000  0.4344540000000  0.5032270000000 1.0
C      1  0.4261000000000  0.5109520000000  0.4973120000000 1.0
C      1  0.5488720000000  0.5539880000000  0.4946010000000 1.0
C      1  0.4503800000000  0.5148060000000  0.5684200000000 1.0
C      1  0.5376250000000  0.5410890000000  0.5633030000000 1.0
C      1  0.5158820000000  0.4521460000000  0.5616720000000 1.0
C      1  0.4334770000000  0.4800630000000  0.4938760000000 1.0
C      1  0.5197580000000  0.5660320000000  0.5068140000000 1.0
C      1  0.5532170000000  0.4494370000000  0.5063880000000 1.0
C      1  0.5213750000000  0.5036430000000  0.5926490000000 1.0
C      1  0.4958860000000  0.4848750000000  0.5950170000000 1.0
C      1  0.4925370000000  0.5171120000000  0.5939730000000 1.0
C      1  0.4735740000000  0.4535870000000  0.5056040000000 1.0
C      1  0.4723210000000  0.5416870000000  0.5033240000000 1.0
C      1  0.5497050000000  0.4997520000000  0.4962580000000 1.0
C      1  0.4168690000000  0.4529450000000  0.4950050000000 1.0
C      1  0.4910230000000  0.5847730000000  0.5111450000000 1.0
C      1  0.5833470000000  0.4640060000000  0.5043670000000 1.0
C      1  0.5588070000000  0.5751850000000  0.4723260000000 1.0
C      1  0.5263600000000  0.4125800000000  0.4827350000000 1.0
C      1  0.4092990000000  0.5215070000000  0.4717770000000 1.0
C      1  0.4449150000000  0.5432370000000  0.4832260000000 1.0
C      1  0.5787210000000  0.5024710000000  0.4947420000000 1.0
C      1  0.4884540000000  0.4304390000000  0.4868390000000 1.0
C      1  0.4142760000000  0.4818140000000  0.4385940000000 1.0
C      1  0.5140240000000  0.5866650000000  0.4511130000000 1.0
C      1  0.5609230000000  0.4372480000000  0.4506940000000 1.0
C      1  0.4264510000000  0.4551640000000  0.5242360000000 1.0
C      1  0.5115580000000  0.5963560000000  0.5310660000000 1.0
C      1  0.5796860000000  0.4511080000000  0.5357610000000 1.0
C      1  0.4591300000000  0.5025660000000  0.4962940000000 1.0
C      1  0.5304400000000  0.5267760000000  0.4978360000000 1.0
C      1  0.5123890000000  0.4618520000000  0.5042020000000 1.0
C      1  0.4609590000000  0.4602480000000  0.4164220000000 1.0
C      1  0.4743910000000  0.5567900000000  0.4285250000000 1.0
C      1  0.5515190000000  0.4847850000000  0.4231750000000 1.0
C      1  0.5018280000000  0.5309170000000  0.4608110000000 1.0
C      1  0.5265440000000  0.4822010000000  0.4586490000000 1.0
C      1  0.4746560000000  0.4855570000000  0.4598950000000 1.0
C      1  0.4236850000000  0.4798810000000  0.5394560000000 1.0
C      1  0.5281800000000  0.5715020000000  0.5393090000000 1.0
C      1  0.5477220000000  0.4428190000000  0.5394450000000 1.0
C      1  0.4949070000000  0.5297390000000  0.5429700000000 1.0
C      1  0.5282750000000  0.4921280000000  0.5414890000000 1.0
C      1  0.4765800000000  0.4862920000000  0.5482940000000 1.0
C      1  0.4800270000000  0.5037400000000  0.4406110000000 1.0
C      1  0.5148260000000  0.5230600000000  0.4380160000000 1.0
C      1  0.5080410000000  0.4751930000000  0.4404900000000 1.0
C      1  0.4776360000000  0.5219370000000  0.4761220000000 1.0
C      1  0.5360970000000  0.5091780000000  0.4687470000000 1.0
C      1  0.4899840000000  0.4694120000000  0.4796880000000 1.0
C      1  0.5007300000000  0.5002650000000  0.5303450000000 1.0
END
