TITL C-2782239-8622-1370 0.000737404015642943 125000 -1173.47542179194 0 0 199 (C1) n - 1
REM
REM in /home/nfs/bkarasulu/CARBON/AIRSS/Generating-Clusters/REBO/Higher-Symm/SD-CG/HFTN-CG
REM
REM
REM
REM
REM
REM ./C.cell (12c818d87b63d06a65506943cc24bca4)
REM
REM compiler GCC version 9.2.1 20190827 (Red Hat 9.2.1-1)
REM options -cpp -mtune=generic -march=x86-64 -g -O0 -fpre-include=/usr/include/finclude/math-vector-fortran.h
REM seed -2112693071 -126947277 1613708036 1185437969 -1704614915 358565513 2053553257 -435884370 913781925 -1061723467 1317265271 445155724 2137095259 80493163 -966682705 -1291910304 -235415903 -462779853 1798387177 53709034 1295585856 361241421 358890809 -1502673846 -1878971833 425148046 2043260145 1875675699 -1824882646 1567412757 1087011397 824155507 -129400177
REM
CELL 1.54180   50.00000   50.00000   50.00000   90.00000   90.00000   90.00000
LATT -1
SFAC C  
C      1  0.5143910000000  0.4839790000000  0.3783060000000 1.0
C      1  0.5151070000000  0.6069120000000  0.4454410000000 1.0
C      1  0.5155360000000  0.5808190000000  0.5821830000000 1.0
C      1  0.5170580000000  0.4461790000000  0.6061080000000 1.0
C      1  0.5160080000000  0.3855610000000  0.4808270000000 1.0
C      1  0.4824860000000  0.4842880000000  0.3773750000000 1.0
C      1  0.4834870000000  0.6083200000000  0.4429820000000 1.0
C      1  0.4843180000000  0.5832210000000  0.5810260000000 1.0
C      1  0.4855430000000  0.4471440000000  0.6064530000000 1.0
C      1  0.4844780000000  0.3838490000000  0.4813130000000 1.0
C      1  0.5754500000000  0.5439940000000  0.5597830000000 1.0
C      1  0.5783560000000  0.4579760000000  0.5632410000000 1.0
C      1  0.5806590000000  0.4277280000000  0.4856580000000 1.0
C      1  0.5724220000000  0.4945020000000  0.4295490000000 1.0
C      1  0.5734430000000  0.5689670000000  0.4761900000000 1.0
C      1  0.4206840000000  0.5459670000000  0.5526270000000 1.0
C      1  0.4215220000000  0.4636820000000  0.5601900000000 1.0
C      1  0.4206120000000  0.4300610000000  0.4839030000000 1.0
C      1  0.4213330000000  0.4953060000000  0.4247270000000 1.0
C      1  0.4207820000000  0.5654430000000  0.4713960000000 1.0
C      1  0.5159520000000  0.5615560000000  0.5141350000000 1.0
C      1  0.5109980000000  0.5117320000000  0.5607090000000 1.0
C      1  0.5216790000000  0.4495780000000  0.5349400000000 1.0
C      1  0.5162720000000  0.4572140000000  0.4719470000000 1.0
C      1  0.5111590000000  0.5275730000000  0.4543780000000 1.0
C      1  0.4842440000000  0.5583480000000  0.5031860000000 1.0
C      1  0.4792030000000  0.5121560000000  0.5495770000000 1.0
C      1  0.4888420000000  0.4523280000000  0.5273640000000 1.0
C      1  0.4846710000000  0.4533770000000  0.4657550000000 1.0
C      1  0.4813750000000  0.5257060000000  0.4435060000000 1.0
C      1  0.4473850000000  0.5666950000000  0.5463670000000 1.0
C      1  0.4493490000000  0.4738840000000  0.5773820000000 1.0
C      1  0.4475970000000  0.4161240000000  0.4995940000000 1.0
C      1  0.4453880000000  0.4739160000000  0.4131450000000 1.0
C      1  0.4453100000000  0.5702320000000  0.4477320000000 1.0
C      1  0.5531830000000  0.5671060000000  0.5478730000000 1.0
C      1  0.5537320000000  0.4747050000000  0.5800310000000 1.0
C      1  0.5534100000000  0.4146120000000  0.5012320000000 1.0
C      1  0.5498940000000  0.4712410000000  0.4176220000000 1.0
C      1  0.5518570000000  0.5674450000000  0.4496350000000 1.0
C      1  0.4689120000000  0.5869300000000  0.4333540000000 1.0
C      1  0.4716670000000  0.5840090000000  0.5567430000000 1.0
C      1  0.4726360000000  0.4697950000000  0.5975420000000 1.0
C      1  0.4710010000000  0.3956680000000  0.5021030000000 1.0
C      1  0.4677520000000  0.4670920000000  0.3929730000000 1.0
C      1  0.5285710000000  0.5847490000000  0.4365250000000 1.0
C      1  0.5296420000000  0.5835670000000  0.5589640000000 1.0
C      1  0.5303050000000  0.4693190000000  0.5993970000000 1.0
C      1  0.5296150000000  0.3961310000000  0.5023290000000 1.0
C      1  0.5272810000000  0.4669450000000  0.3958640000000 1.0
C      1  0.5169700000000  0.5473250000000  0.5434880000000 1.0
C      1  0.5187490000000  0.4797230000000  0.5613180000000 1.0
C      1  0.5175150000000  0.4351440000000  0.5056170000000 1.0
C      1  0.5127680000000  0.4629430000000  0.4391560000000 1.0
C      1  0.5155720000000  0.5582270000000  0.4633850000000 1.0
C      1  0.4839450000000  0.5486900000000  0.5342480000000 1.0
C      1  0.4845470000000  0.4818910000000  0.5600410000000 1.0
C      1  0.4834060000000  0.4336270000000  0.5029490000000 1.0
C      1  0.4792220000000  0.4632850000000  0.4364130000000 1.0
C      1  0.4829930000000  0.5558600000000  0.4538320000000 1.0
C      1  0.4866610000000  0.4005260000000  0.5261470000000 1.0
C      1  0.4824660000000  0.4441100000000  0.4016380000000 1.0
C      1  0.4842190000000  0.5689370000000  0.4160590000000 1.0
C      1  0.4872210000000  0.5953790000000  0.5349960000000 1.0
C      1  0.4870990000000  0.4946060000000  0.6013350000000 1.0
C      1  0.5152440000000  0.3997320000000  0.5269180000000 1.0
C      1  0.5107320000000  0.4450250000000  0.4034910000000 1.0
C      1  0.5133350000000  0.5685100000000  0.4178700000000 1.0
C      1  0.5157380000000  0.5970600000000  0.5378080000000 1.0
C      1  0.5156210000000  0.4935470000000  0.6043610000000 1.0
C      1  0.4216800000000  0.5242390000000  0.5072670000000 1.0
C      1  0.4155910000000  0.4981260000000  0.5243730000000 1.0
C      1  0.4217280000000  0.4729630000000  0.5070840000000 1.0
C      1  0.4251270000000  0.4821770000000  0.4778750000000 1.0
C      1  0.4313450000000  0.5129930000000  0.4775610000000 1.0
C      1  0.5737720000000  0.5204920000000  0.5081830000000 1.0
C      1  0.5825190000000  0.4963030000000  0.5263570000000 1.0
C      1  0.5820210000000  0.4713020000000  0.5061120000000 1.0
C      1  0.5756840000000  0.4813280000000  0.4774860000000 1.0
C      1  0.5616300000000  0.5079940000000  0.4807670000000 1.0
C      1  0.4030820000000  0.5582080000000  0.4980500000000 1.0
C      1  0.4012750000000  0.5205770000000  0.5539300000000 1.0
C      1  0.4016750000000  0.4542220000000  0.5358920000000 1.0
C      1  0.4038780000000  0.4516850000000  0.4632820000000 1.0
C      1  0.4041680000000  0.5126250000000  0.4482770000000 1.0
C      1  0.5913930000000  0.5556190000000  0.5017940000000 1.0
C      1  0.5953520000000  0.5169860000000  0.5578740000000 1.0
C      1  0.5990140000000  0.4530460000000  0.5372210000000 1.0
C      1  0.5934680000000  0.4489840000000  0.4621330000000 1.0
C      1  0.5875320000000  0.5158620000000  0.4513780000000 1.0
C      1  0.4707880000000  0.5483550000000  0.5944680000000 1.0
C      1  0.4742710000000  0.4273390000000  0.5738440000000 1.0
C      1  0.4686260000000  0.4076680000000  0.4464970000000 1.0
C      1  0.4709230000000  0.5209960000000  0.3878400000000 1.0
C      1  0.4712680000000  0.6063480000000  0.4807990000000 1.0
C      1  0.5272750000000  0.5490870000000  0.6030780000000 1.0
C      1  0.5310030000000  0.4195510000000  0.5798900000000 1.0
C      1  0.5272760000000  0.4119070000000  0.4521250000000 1.0
C      1  0.5222430000000  0.5202680000000  0.3925640000000 1.0
C      1  0.5243010000000  0.6092630000000  0.4841460000000 1.0
C      1  0.4486660000000  0.5742570000000  0.5142560000000 1.0
C      1  0.4472270000000  0.5065310000000  0.5742570000000 1.0
C      1  0.4490320000000  0.4316770000000  0.5276100000000 1.0
C      1  0.4415150000000  0.4506210000000  0.4360420000000 1.0
C      1  0.4443970000000  0.5423060000000  0.4290960000000 1.0
C      1  0.5540430000000  0.5730090000000  0.5149600000000 1.0
C      1  0.5543350000000  0.5074800000000  0.5750220000000 1.0
C      1  0.5560710000000  0.4300650000000  0.5299580000000 1.0
C      1  0.5513770000000  0.4458080000000  0.4393420000000 1.0
C      1  0.5504320000000  0.5392690000000  0.4327220000000 1.0
C      1  0.3958010000000  0.4963070000000  0.4722870000000 1.0
C      1  0.3856890000000  0.5370140000000  0.4954210000000 1.0
C      1  0.3828100000000  0.5191300000000  0.5327450000000 1.0
C      1  0.3874190000000  0.4801350000000  0.5255740000000 1.0
C      1  0.3949070000000  0.4599620000000  0.4904650000000 1.0
C      1  0.6007770000000  0.5018490000000  0.4755360000000 1.0
C      1  0.6079880000000  0.5349340000000  0.4934220000000 1.0
C      1  0.6136350000000  0.5190190000000  0.5368580000000 1.0
C      1  0.6122940000000  0.4801030000000  0.5295560000000 1.0
C      1  0.6062770000000  0.4581620000000  0.4875770000000 1.0
C      1  0.5340650000000  0.6000830000000  0.5148800000000 1.0
C      1  0.5339900000000  0.5162610000000  0.6001840000000 1.0
C      1  0.5331420000000  0.4132260000000  0.5470420000000 1.0
C      1  0.5234540000000  0.4324020000000  0.4284070000000 1.0
C      1  0.5282660000000  0.5459810000000  0.4105690000000 1.0
C      1  0.4717860000000  0.5954700000000  0.5112870000000 1.0
C      1  0.4704950000000  0.5162320000000  0.5938760000000 1.0
C      1  0.4714570000000  0.4163370000000  0.5440540000000 1.0
C      1  0.4673940000000  0.4323970000000  0.4267140000000 1.0
C      1  0.4684960000000  0.5467190000000  0.4080960000000 1.0
C      1  0.5494080000000  0.4798830000000  0.5465840000000 1.0
C      1  0.5472030000000  0.4474550000000  0.4951510000000 1.0
C      1  0.5390450000000  0.4827440000000  0.4479460000000 1.0
C      1  0.5437720000000  0.5425810000000  0.4717530000000 1.0
C      1  0.5470940000000  0.5377090000000  0.5323330000000 1.0
C      1  0.4543220000000  0.4813110000000  0.5443210000000 1.0
C      1  0.4550630000000  0.4485440000000  0.4918800000000 1.0
C      1  0.4558780000000  0.4872210000000  0.4428180000000 1.0
C      1  0.4542500000000  0.5439330000000  0.4676260000000 1.0
C      1  0.4520950000000  0.5376210000000  0.5293480000000 1.0
C      1  0.5162820000000  0.5407950000000  0.5743020000000 1.0
C      1  0.5231300000000  0.4474080000000  0.5666410000000 1.0
C      1  0.5107480000000  0.4247980000000  0.4754280000000 1.0
C      1  0.5132710000000  0.5116820000000  0.4243830000000 1.0
C      1  0.5148410000000  0.5784820000000  0.4874570000000 1.0
C      1  0.4846130000000  0.5410460000000  0.5659860000000 1.0
C      1  0.4912540000000  0.4507820000000  0.5605260000000 1.0
C      1  0.4781790000000  0.4223290000000  0.4724360000000 1.0
C      1  0.4797430000000  0.5095880000000  0.4178300000000 1.0
C      1  0.4832450000000  0.5763990000000  0.4780590000000 1.0
C      1  0.5119970000000  0.5295740000000  0.5080570000000 1.0
C      1  0.5205520000000  0.5079770000000  0.5314900000000 1.0
C      1  0.5186450000000  0.4781180000000  0.5213530000000 1.0
C      1  0.5206270000000  0.4809480000000  0.4899600000000 1.0
C      1  0.5127960000000  0.5098770000000  0.4810190000000 1.0
C      1  0.4807800000000  0.5271860000000  0.4970430000000 1.0
C      1  0.4747470000000  0.5060350000000  0.5205720000000 1.0
C      1  0.4875330000000  0.4803930000000  0.5123790000000 1.0
C      1  0.4855910000000  0.4805600000000  0.4815410000000 1.0
C      1  0.4795890000000  0.5094970000000  0.4705510000000 1.0
C      1  0.5583500000000  0.5116400000000  0.5437650000000 1.0
C      1  0.5580630000000  0.4616900000000  0.5241420000000 1.0
C      1  0.5556030000000  0.4610140000000  0.4686140000000 1.0
C      1  0.5477710000000  0.5132870000000  0.4546600000000 1.0
C      1  0.5527280000000  0.5444990000000  0.4999860000000 1.0
C      1  0.4400850000000  0.5121220000000  0.5418200000000 1.0
C      1  0.4471450000000  0.4631980000000  0.5216040000000 1.0
C      1  0.4462760000000  0.4641700000000  0.4663560000000 1.0
C      1  0.4439350000000  0.5159270000000  0.4505620000000 1.0
C      1  0.4454500000000  0.5456800000000  0.4967800000000 1.0
C      1  0.5586340000000  0.4210170000000  0.4614990000000 1.0
C      1  0.5462310000000  0.5106860000000  0.4149950000000 1.0
C      1  0.5543780000000  0.5935030000000  0.4879730000000 1.0
C      1  0.5553940000000  0.5393860000000  0.5862340000000 1.0
C      1  0.5589530000000  0.4303030000000  0.5632990000000 1.0
C      1  0.4412860000000  0.4249480000000  0.4573320000000 1.0
C      1  0.4464510000000  0.5136170000000  0.4108470000000 1.0
C      1  0.4448540000000  0.5849580000000  0.4829480000000 1.0
C      1  0.4454990000000  0.5397690000000  0.5734040000000 1.0
C      1  0.4460750000000  0.4401630000000  0.5597430000000 1.0
C      1  0.5858430000000  0.4658170000000  0.4420880000000 1.0
C      1  0.5822490000000  0.5425330000000  0.4565480000000 1.0
C      1  0.5863940000000  0.5549690000000  0.5293500000000 1.0
C      1  0.5889880000000  0.4904370000000  0.5653570000000 1.0
C      1  0.5934020000000  0.4345250000000  0.5165680000000 1.0
C      1  0.4077360000000  0.4704290000000  0.4437140000000 1.0
C      1  0.4102030000000  0.5391120000000  0.4531660000000 1.0
C      1  0.4121780000000  0.5617290000000  0.5239650000000 1.0
C      1  0.4102620000000  0.4956890000000  0.5638590000000 1.0
C      1  0.4110170000000  0.4354270000000  0.5163130000000 1.0
C      1  0.4986500000000  0.5139520000000  0.3732300000000 1.0
C      1  0.4980160000000  0.6218880000000  0.4708280000000 1.0
C      1  0.5003250000000  0.4195240000000  0.5928990000000 1.0
C      1  0.4985400000000  0.3941200000000  0.4527220000000 1.0
C      1  0.4975830000000  0.5635940000000  0.6056110000000 1.0
C      1  0.6157470000000  0.5047040000000  0.5060090000000 1.0
C      1  0.3831660000000  0.5044250000000  0.5018860000000 1.0
C      1  0.4490810000000  0.5043190000000  0.5038480000000 1.0
C      1  0.5426000000000  0.5067290000000  0.5074630000000 1.0
END
