TITL C-2782232-2968-600 -6.16347254381818e-08 125000 -67.8723905110854 0 0 14 (C3) n - 1
REM
REM in /home/nfs/bkarasulu/CARBON/AIRSS/Generating-Clusters/REBO/Higher-Symm/SD-CG/HFTN-CG
REM
REM
REM
REM
REM
REM ./C.cell (12c818d87b63d06a65506943cc24bca4)
REM
REM compiler GCC version 9.2.1 20190827 (Red Hat 9.2.1-1)
REM options -cpp -mtune=generic -march=x86-64 -g -O0 -fpre-include=/usr/include/finclude/math-vector-fortran.h
REM seed -1734710514 854701789 1958425720 1218798926 1216223051 -1142818017 2106350070 730760257 -765342840 -94512303 1682561927 653059395 -734245213 -972376814 -1032939595 -1889160102 328718104 1864021826 -1033930741 -1508859061 -1070729413 63042740 579884814 460957912 -2002183923 1906308723 -297742312 -1163087097 -1649156030 -757817786 1345184878 14361120 -1470448435
REM
CELL 1.54180   50.00000   50.00000   50.00000   90.00000   90.00000   90.00000
LATT -1
SFAC C  
C      1  0.4324530000000  0.4783090000000  0.4860920000000 1.0
C      1  0.5458310000000  0.4779330000000  0.4438170000000 1.0
C      1  0.5263350000000  0.4792450000000  0.5633220000000 1.0
C      1  0.4688400000000  0.5381500000000  0.5062290000000 1.0
C      1  0.5099840000000  0.5378310000000  0.4647340000000 1.0
C      1  0.5250510000000  0.5385630000000  0.5210130000000 1.0
C      1  0.5216780000000  0.4952380000000  0.5430890000000 1.0
C      1  0.4520580000000  0.4945740000000  0.4922530000000 1.0
C      1  0.5306650000000  0.4942760000000  0.4575910000000 1.0
C      1  0.5146130000000  0.5115740000000  0.4721720000000 1.0
C      1  0.5167490000000  0.5121660000000  0.5216730000000 1.0
C      1  0.4728090000000  0.5117900000000  0.4987740000000 1.0
C      1  0.5014840000000  0.4726150000000  0.4980040000000 1.0
C      1  0.5014160000000  0.5011210000000  0.4976670000000 1.0
END
