TITL C-2782235-7892-968 -1.53944722708107e-05 125000 -311.45849072186 0 0 55 (C1) n - 1
REM
REM in /home/nfs/bkarasulu/CARBON/AIRSS/Generating-Clusters/REBO/Higher-Symm/SD-CG/HFTN-CG
REM
REM
REM
REM
REM
REM ./C.cell (12c818d87b63d06a65506943cc24bca4)
REM
REM compiler GCC version 9.2.1 20190827 (Red Hat 9.2.1-1)
REM options -cpp -mtune=generic -march=x86-64 -g -O0 -fpre-include=/usr/include/finclude/math-vector-fortran.h
REM seed 145848641 1905195729 1097384660 1248595249 569785255 -303203241 1061866444 -2143299637 -273229292 -91396418 -1290830685 845890794 -1381012990 -1795679981 -929745816 544123314 -1124303515 -1580452249 -510990279 -1383597503 1657209981 1392191205 -20362134 758224336 -1645688404 1489678750 1379221283 -522573606 670054750 -1747142899 1595240916 -143059817 1138344035
REM
CELL 1.54180   50.00000   50.00000   50.00000   90.00000   90.00000   90.00000
LATT -1
SFAC C  
C      1  0.5410820000000  0.5340930000000  0.5452490000000 1.0
C      1  0.4694600000000  0.5349020000000  0.5479580000000 1.0
C      1  0.4439780000000  0.5321210000000  0.4893140000000 1.0
C      1  0.4948090000000  0.5326830000000  0.4428190000000 1.0
C      1  0.5541470000000  0.5330740000000  0.4819310000000 1.0
C      1  0.4364450000000  0.5068190000000  0.4693750000000 1.0
C      1  0.5130650000000  0.5074480000000  0.4316440000000 1.0
C      1  0.5689270000000  0.5077990000000  0.4979110000000 1.0
C      1  0.5343990000000  0.5078600000000  0.5645620000000 1.0
C      1  0.4490040000000  0.5084240000000  0.5461240000000 1.0
C      1  0.4730220000000  0.5516720000000  0.4536980000000 1.0
C      1  0.5360710000000  0.5471070000000  0.4608810000000 1.0
C      1  0.5513760000000  0.5484810000000  0.5199300000000 1.0
C      1  0.4941380000000  0.5528750000000  0.5545860000000 1.0
C      1  0.4502080000000  0.5475240000000  0.5152690000000 1.0
C      1  0.4530060000000  0.4507000000000  0.4850530000000 1.0
C      1  0.4974270000000  0.4566630000000  0.4520300000000 1.0
C      1  0.5433000000000  0.4611460000000  0.4864990000000 1.0
C      1  0.5304360000000  0.4523040000000  0.5395430000000 1.0
C      1  0.4748550000000  0.4624900000000  0.5333280000000 1.0
C      1  0.5273570000000  0.4413510000000  0.5082710000000 1.0
C      1  0.5007780000000  0.4411750000000  0.5278310000000 1.0
C      1  0.4738430000000  0.4401800000000  0.5087790000000 1.0
C      1  0.4833930000000  0.4396280000000  0.4773400000000 1.0
C      1  0.5159330000000  0.4434080000000  0.4774190000000 1.0
C      1  0.5131450000000  0.5467960000000  0.5303170000000 1.0
C      1  0.4814360000000  0.5459420000000  0.5178080000000 1.0
C      1  0.4749960000000  0.5454420000000  0.4843780000000 1.0
C      1  0.5069710000000  0.5442370000000  0.4726100000000 1.0
C      1  0.5277040000000  0.5459390000000  0.4995080000000 1.0
C      1  0.4715820000000  0.4763710000000  0.4458670000000 1.0
C      1  0.5477300000000  0.4774520000000  0.4605760000000 1.0
C      1  0.5492910000000  0.4806090000000  0.5393540000000 1.0
C      1  0.4941700000000  0.4844370000000  0.5479080000000 1.0
C      1  0.4363460000000  0.4771720000000  0.4960630000000 1.0
C      1  0.5215510000000  0.4779830000000  0.5582900000000 1.0
C      1  0.4510880000000  0.4837980000000  0.5249330000000 1.0
C      1  0.4455020000000  0.4751260000000  0.4635150000000 1.0
C      1  0.5210060000000  0.4786900000000  0.4445380000000 1.0
C      1  0.5495010000000  0.4852060000000  0.5080320000000 1.0
C      1  0.4260440000000  0.5076320000000  0.5020610000000 1.0
C      1  0.4790110000000  0.5053730000000  0.4330930000000 1.0
C      1  0.5615710000000  0.5055450000000  0.4647770000000 1.0
C      1  0.5631190000000  0.5091920000000  0.5459720000000 1.0
C      1  0.4786540000000  0.5070180000000  0.5628380000000 1.0
C      1  0.4743370000000  0.4878000000000  0.5024440000000 1.0
C      1  0.4821720000000  0.4849730000000  0.4757400000000 1.0
C      1  0.5105860000000  0.4869710000000  0.4743970000000 1.0
C      1  0.5200600000000  0.4906260000000  0.5001560000000 1.0
C      1  0.4983140000000  0.4907800000000  0.5176010000000 1.0
C      1  0.5812970000000  0.5139750000000  0.5236590000000 1.0
C      1  0.5059790000000  0.5101480000000  0.5761230000000 1.0
C      1  0.4235190000000  0.5121610000000  0.5302480000000 1.0
C      1  0.4497850000000  0.5095600000000  0.4423040000000 1.0
C      1  0.5430740000000  0.5111200000000  0.4375450000000 1.0
END
