TITL C-2782235-7892-1348 -0.00117532375173504 125000 -1046.637253759 0 0 182 (C1) n - 1
REM
REM in /home/nfs/bkarasulu/CARBON/AIRSS/Generating-Clusters/REBO/Higher-Symm/SD-CG/HFTN-CG
REM
REM
REM
REM
REM
REM ./C.cell (12c818d87b63d06a65506943cc24bca4)
REM
REM compiler GCC version 9.2.1 20190827 (Red Hat 9.2.1-1)
REM options -cpp -mtune=generic -march=x86-64 -g -O0 -fpre-include=/usr/include/finclude/math-vector-fortran.h
REM seed -1437854598 431900953 -459299398 -589482792 1963077572 131779239 1303594108 -1664312912 -9646029 -251819978 -673455342 1079760797 -1651272828 2024157364 -1601485899 -496226223 -5661541 1221510310 360720257 -849490014 1894125409 -54051103 429716370 -1261070555 920212854 1268064276 1474831525 1505459826 601416679 1181381339 -1039547134 218941988 1282011245
REM
CELL 1.54180   50.00000   50.00000   50.00000   90.00000   90.00000   90.00000
LATT -1
SFAC C  
C      1  0.5565160000000  0.5769550000000  0.5122820000000 1.0
C      1  0.4497620000000  0.5787040000000  0.5058620000000 1.0
C      1  0.4094750000000  0.4708900000000  0.5067940000000 1.0
C      1  0.5006060000000  0.4084530000000  0.5122500000000 1.0
C      1  0.5916660000000  0.4696230000000  0.5130700000000 1.0
C      1  0.5669660000000  0.4505750000000  0.4741380000000 1.0
C      1  0.5662060000000  0.5507040000000  0.4755340000000 1.0
C      1  0.4735950000000  0.5806380000000  0.4740030000000 1.0
C      1  0.4126460000000  0.4994600000000  0.4771110000000 1.0
C      1  0.4755750000000  0.4144430000000  0.4756870000000 1.0
C      1  0.5103550000000  0.5207530000000  0.4550760000000 1.0
C      1  0.4826740000000  0.5159440000000  0.4561360000000 1.0
C      1  0.4784840000000  0.4883030000000  0.4535040000000 1.0
C      1  0.5037500000000  0.4758330000000  0.4505860000000 1.0
C      1  0.5234290000000  0.4958430000000  0.4522810000000 1.0
C      1  0.5499570000000  0.4066220000000  0.4597110000000 1.0
C      1  0.6030370000000  0.5203290000000  0.4647790000000 1.0
C      1  0.5148160000000  0.6054250000000  0.4659090000000 1.0
C      1  0.4027860000000  0.5351250000000  0.4443410000000 1.0
C      1  0.4283130000000  0.4190310000000  0.4622990000000 1.0
C      1  0.5621020000000  0.5806360000000  0.5600320000000 1.0
C      1  0.4452880000000  0.5808800000000  0.5544900000000 1.0
C      1  0.4027130000000  0.4795830000000  0.5534750000000 1.0
C      1  0.4860330000000  0.3993600000000  0.5628600000000 1.0
C      1  0.5961200000000  0.4637880000000  0.5608190000000 1.0
C      1  0.4024560000000  0.5162190000000  0.5378250000000 1.0
C      1  0.4614920000000  0.4074170000000  0.5334470000000 1.0
C      1  0.5822380000000  0.4416820000000  0.5307360000000 1.0
C      1  0.5790000000000  0.5592810000000  0.5308350000000 1.0
C      1  0.4705130000000  0.5954300000000  0.5271290000000 1.0
C      1  0.5579100000000  0.5931150000000  0.4867750000000 1.0
C      1  0.4223550000000  0.5819960000000  0.4898610000000 1.0
C      1  0.4009230000000  0.4484810000000  0.4867280000000 1.0
C      1  0.5077700000000  0.3951870000000  0.4894570000000 1.0
C      1  0.6066150000000  0.4799570000000  0.4892790000000 1.0
C      1  0.5240700000000  0.5598000000000  0.5422980000000 1.0
C      1  0.4554320000000  0.5370000000000  0.5321610000000 1.0
C      1  0.4503530000000  0.4708350000000  0.5381820000000 1.0
C      1  0.5141380000000  0.4388800000000  0.5363570000000 1.0
C      1  0.5633790000000  0.4950730000000  0.5408230000000 1.0
C      1  0.4769930000000  0.5430540000000  0.4011000000000 1.0
C      1  0.4505070000000  0.4911560000000  0.4006260000000 1.0
C      1  0.4908220000000  0.4504560000000  0.3981850000000 1.0
C      1  0.5433440000000  0.4768580000000  0.3983310000000 1.0
C      1  0.5338890000000  0.5331560000000  0.3999250000000 1.0
C      1  0.4749060000000  0.4753290000000  0.3912130000000 1.0
C      1  0.5142450000000  0.4689210000000  0.3910640000000 1.0
C      1  0.5324190000000  0.5042790000000  0.3907320000000 1.0
C      1  0.5043410000000  0.5324880000000  0.3924060000000 1.0
C      1  0.4688030000000  0.5146200000000  0.3928770000000 1.0
C      1  0.5530620000000  0.4884390000000  0.4534270000000 1.0
C      1  0.5276320000000  0.5455890000000  0.4551390000000 1.0
C      1  0.4628400000000  0.5391240000000  0.4577320000000 1.0
C      1  0.4514280000000  0.4734180000000  0.4548330000000 1.0
C      1  0.5035610000000  0.4458630000000  0.4501690000000 1.0
C      1  0.5314900000000  0.4271900000000  0.4410600000000 1.0
C      1  0.5813910000000  0.5074660000000  0.4454160000000 1.0
C      1  0.5160410000000  0.5772150000000  0.4468940000000 1.0
C      1  0.4328570000000  0.5365410000000  0.4412120000000 1.0
C      1  0.4379720000000  0.4429070000000  0.4440530000000 1.0
C      1  0.4869080000000  0.5920160000000  0.4995890000000 1.0
C      1  0.4020490000000  0.5030190000000  0.5074030000000 1.0
C      1  0.4581230000000  0.4043220000000  0.5023140000000 1.0
C      1  0.5730480000000  0.4359210000000  0.5000690000000 1.0
C      1  0.5807570000000  0.5438060000000  0.5027500000000 1.0
C      1  0.5748380000000  0.4961200000000  0.5704130000000 1.0
C      1  0.5251210000000  0.5710610000000  0.5718540000000 1.0
C      1  0.4555560000000  0.5310360000000  0.5618860000000 1.0
C      1  0.4370050000000  0.4635760000000  0.5662700000000 1.0
C      1  0.5176820000000  0.4298900000000  0.5664680000000 1.0
C      1  0.5195480000000  0.4818220000000  0.5884040000000 1.0
C      1  0.5253690000000  0.5146870000000  0.5957490000000 1.0
C      1  0.4955090000000  0.5312790000000  0.5949220000000 1.0
C      1  0.4728050000000  0.5064310000000  0.5887790000000 1.0
C      1  0.4861270000000  0.4749090000000  0.5877950000000 1.0
C      1  0.4257630000000  0.4137480000000  0.5168390000000 1.0
C      1  0.5584620000000  0.4119600000000  0.5197100000000 1.0
C      1  0.6040780000000  0.5242340000000  0.5191430000000 1.0
C      1  0.5084380000000  0.6066240000000  0.5230360000000 1.0
C      1  0.4041090000000  0.5533140000000  0.5229960000000 1.0
C      1  0.4397990000000  0.4556060000000  0.4816020000000 1.0
C      1  0.5165430000000  0.4323140000000  0.4776500000000 1.0
C      1  0.5706180000000  0.4946550000000  0.4813920000000 1.0
C      1  0.5296770000000  0.5652460000000  0.4823040000000 1.0
C      1  0.4371250000000  0.5450050000000  0.4800380000000 1.0
C      1  0.6121760000000  0.5083610000000  0.4896670000000 1.0
C      1  0.5181540000000  0.6155650000000  0.4914130000000 1.0
C      1  0.4012770000000  0.5768580000000  0.5066540000000 1.0
C      1  0.4130250000000  0.4232020000000  0.4865920000000 1.0
C      1  0.5484920000000  0.4027140000000  0.4881600000000 1.0
C      1  0.5846710000000  0.4778940000000  0.4316330000000 1.0
C      1  0.5443320000000  0.5722390000000  0.4305670000000 1.0
C      1  0.4444510000000  0.5658090000000  0.4346870000000 1.0
C      1  0.4178120000000  0.4669880000000  0.4346970000000 1.0
C      1  0.5054410000000  0.4123960000000  0.4284320000000 1.0
C      1  0.5579400000000  0.4761060000000  0.5141780000000 1.0
C      1  0.5397870000000  0.5473010000000  0.5161510000000 1.0
C      1  0.4712820000000  0.5525310000000  0.5086840000000 1.0
C      1  0.4408720000000  0.4842490000000  0.5090820000000 1.0
C      1  0.4944220000000  0.4418330000000  0.5087600000000 1.0
C      1  0.4871410000000  0.6029250000000  0.4566510000000 1.0
C      1  0.3939670000000  0.5172540000000  0.4596020000000 1.0
C      1  0.4488890000000  0.4007190000000  0.4638470000000 1.0
C      1  0.5694710000000  0.4272990000000  0.4531610000000 1.0
C      1  0.5967930000000  0.5471360000000  0.4664100000000 1.0
C      1  0.5592780000000  0.5246210000000  0.5304110000000 1.0
C      1  0.4966120000000  0.5652380000000  0.5275580000000 1.0
C      1  0.4377270000000  0.5162190000000  0.5195670000000 1.0
C      1  0.4645890000000  0.4464510000000  0.5255690000000 1.0
C      1  0.5433080000000  0.4493440000000  0.5273380000000 1.0
C      1  0.4430800000000  0.5058700000000  0.4475530000000 1.0
C      1  0.4707030000000  0.4405930000000  0.4428930000000 1.0
C      1  0.5426930000000  0.4573280000000  0.4432070000000 1.0
C      1  0.5548560000000  0.5274370000000  0.4451950000000 1.0
C      1  0.4899760000000  0.5568830000000  0.4465940000000 1.0
C      1  0.4722420000000  0.5201900000000  0.4975850000000 1.0
C      1  0.4712900000000  0.4738600000000  0.4975080000000 1.0
C      1  0.5046240000000  0.4686410000000  0.4898860000000 1.0
C      1  0.5356400000000  0.4979750000000  0.4995110000000 1.0
C      1  0.5112810000000  0.5352050000000  0.5018310000000 1.0
C      1  0.5450420000000  0.4352780000000  0.5726600000000 1.0
C      1  0.5772050000000  0.5246370000000  0.5740020000000 1.0
C      1  0.4977430000000  0.5804550000000  0.5743870000000 1.0
C      1  0.4268070000000  0.5371930000000  0.5771960000000 1.0
C      1  0.4471510000000  0.4369960000000  0.5712060000000 1.0
C      1  0.5339540000000  0.4284830000000  0.5034170000000 1.0
C      1  0.5761000000000  0.5106410000000  0.5063090000000 1.0
C      1  0.5171350000000  0.5784890000000  0.5057900000000 1.0
C      1  0.4172010000000  0.5328980000000  0.5035840000000 1.0
C      1  0.4464000000000  0.4359150000000  0.5043010000000 1.0
C      1  0.5344160000000  0.4607180000000  0.4754130000000 1.0
C      1  0.5495930000000  0.5209020000000  0.4782750000000 1.0
C      1  0.4972840000000  0.5563130000000  0.4791230000000 1.0
C      1  0.4440180000000  0.5122820000000  0.4802990000000 1.0
C      1  0.4723580000000  0.4471720000000  0.4761770000000 1.0
C      1  0.4939600000000  0.4225860000000  0.5825160000000 1.0
C      1  0.5700940000000  0.4754200000000  0.5885780000000 1.0
C      1  0.5443250000000  0.5610990000000  0.5898000000000 1.0
C      1  0.4553520000000  0.5553840000000  0.5827180000000 1.0
C      1  0.4290590000000  0.4843920000000  0.5832790000000 1.0
C      1  0.4862800000000  0.4307860000000  0.4174820000000 1.0
C      1  0.5599000000000  0.4684150000000  0.4195530000000 1.0
C      1  0.5476990000000  0.5456760000000  0.4205840000000 1.0
C      1  0.4704840000000  0.5599570000000  0.4226150000000 1.0
C      1  0.4333000000000  0.4885340000000  0.4226640000000 1.0
C      1  0.4062190000000  0.5424000000000  0.5525200000000 1.0
C      1  0.4376130000000  0.4177800000000  0.5488690000000 1.0
C      1  0.5626230000000  0.4231060000000  0.5516060000000 1.0
C      1  0.5926570000000  0.5350960000000  0.5497180000000 1.0
C      1  0.4918570000000  0.5976320000000  0.5515560000000 1.0
C      1  0.4896150000000  0.4768970000000  0.5256690000000 1.0
C      1  0.5197990000000  0.4809640000000  0.5244980000000 1.0
C      1  0.5237820000000  0.5109480000000  0.5333790000000 1.0
C      1  0.4960070000000  0.5259610000000  0.5308090000000 1.0
C      1  0.4745380000000  0.5031170000000  0.5249340000000 1.0
C      1  0.5300160000000  0.4785410000000  0.5558670000000 1.0
C      1  0.5338910000000  0.5102380000000  0.5642150000000 1.0
C      1  0.5026600000000  0.5237360000000  0.5642480000000 1.0
C      1  0.4811770000000  0.4998460000000  0.5570830000000 1.0
C      1  0.4981040000000  0.4710090000000  0.5565260000000 1.0
C      1  0.5644240000000  0.4627130000000  0.5510980000000 1.0
C      1  0.5546590000000  0.5496460000000  0.5529740000000 1.0
C      1  0.4701970000000  0.5643610000000  0.5467210000000 1.0
C      1  0.4288460000000  0.4962920000000  0.5451040000000 1.0
C      1  0.4840360000000  0.4286200000000  0.5445150000000 1.0
C      1  0.6102730000000  0.4686280000000  0.5399360000000 1.0
C      1  0.5620240000000  0.5946180000000  0.5387560000000 1.0
C      1  0.4320190000000  0.5870460000000  0.5332920000000 1.0
C      1  0.3946880000000  0.4650020000000  0.5343310000000 1.0
C      1  0.4984920000000  0.3925290000000  0.5359110000000 1.0
C      1  0.5461360000000  0.4605410000000  0.5876360000000 1.0
C      1  0.5529790000000  0.5339140000000  0.5899090000000 1.0
C      1  0.4821620000000  0.5607690000000  0.5900120000000 1.0
C      1  0.4407770000000  0.5084600000000  0.5896520000000 1.0
C      1  0.4738150000000  0.4431780000000  0.5851150000000 1.0
C      1  0.4453710000000  0.5738820000000  0.4664160000000 1.0
C      1  0.4135820000000  0.4709090000000  0.4670060000000 1.0
C      1  0.5025450000000  0.4070330000000  0.4596900000000 1.0
C      1  0.5879640000000  0.4721820000000  0.4640110000000 1.0
C      1  0.5534490000000  0.5756040000000  0.4604980000000 1.0
C      1  0.4987480000000  0.4993270000000  0.3829030000000 1.0
C      1  0.5017680000000  0.5025310000000  0.4957560000000 1.0
END
