TITL C-2782226-7400-742 -0.00414898475505534 125000 -690.495906697934 0 0 119 (C1) n - 1
REM
REM in /home/nfs/bkarasulu/CARBON/AIRSS/Generating-Clusters/REBO/Higher-Symm/SD-CG/HFTN-CG
REM
REM
REM
REM
REM
REM ./C.cell (12c818d87b63d06a65506943cc24bca4)
REM
REM compiler GCC version 9.2.1 20190827 (Red Hat 9.2.1-1)
REM options -cpp -mtune=generic -march=x86-64 -g -O0 -fpre-include=/usr/include/finclude/math-vector-fortran.h
REM seed -887096240 -422440267 504729312 -866889592 -140579302 -796484924 1524370495 1538488539 1985356888 1206002505 1103604549 -935143707 254122167 -120432566 1562798210 2141638647 -1510728536 -701600008 -611669121 -1824296307 2000998290 -1191635158 1547605323 -300649125 -155891050 1613819473 565717735 -1491959436 -396897471 2102073619 -285145606 -989409979 -1628617115
REM
CELL 1.54180   50.00000   50.00000   50.00000   90.00000   90.00000   90.00000
LATT -1
SFAC C  
C      1  0.4196950000000  0.4404970000000  0.5029560000000 1.0
C      1  0.4669470000000  0.5396950000000  0.5262580000000 1.0
C      1  0.4484370000000  0.5729650000000  0.5244020000000 1.0
C      1  0.5281970000000  0.4700030000000  0.5860360000000 1.0
C      1  0.4707370000000  0.4281570000000  0.5316790000000 1.0
C      1  0.4409940000000  0.4523370000000  0.5445380000000 1.0
C      1  0.4869040000000  0.5148080000000  0.5380710000000 1.0
C      1  0.5463500000000  0.5626290000000  0.5605220000000 1.0
C      1  0.5479320000000  0.5177220000000  0.5339070000000 1.0
C      1  0.5415410000000  0.5044610000000  0.4098060000000 1.0
C      1  0.4899740000000  0.4154330000000  0.5152730000000 1.0
C      1  0.5135020000000  0.4773610000000  0.5332780000000 1.0
C      1  0.5164140000000  0.4286500000000  0.4504840000000 1.0
C      1  0.5239460000000  0.6003580000000  0.5812410000000 1.0
C      1  0.4689880000000  0.4607400000000  0.5267840000000 1.0
C      1  0.5404410000000  0.5528650000000  0.4295690000000 1.0
C      1  0.4812970000000  0.5652540000000  0.4762580000000 1.0
C      1  0.4728350000000  0.5506220000000  0.4468690000000 1.0
C      1  0.6051680000000  0.4846690000000  0.4822610000000 1.0
C      1  0.5314790000000  0.5079850000000  0.4528710000000 1.0
C      1  0.4313550000000  0.5050760000000  0.5563680000000 1.0
C      1  0.5217150000000  0.3961650000000  0.5719770000000 1.0
C      1  0.5475870000000  0.4177650000000  0.5430110000000 1.0
C      1  0.4831900000000  0.5811900000000  0.4397550000000 1.0
C      1  0.4183210000000  0.5004640000000  0.5022770000000 1.0
C      1  0.5025340000000  0.4725010000000  0.4550920000000 1.0
C      1  0.4530080000000  0.4576190000000  0.4393240000000 1.0
C      1  0.4506300000000  0.5748970000000  0.4852050000000 1.0
C      1  0.5197650000000  0.4223330000000  0.5268160000000 1.0
C      1  0.4900510000000  0.4072600000000  0.4885100000000 1.0
C      1  0.4456610000000  0.4879680000000  0.5091560000000 1.0
C      1  0.4443670000000  0.4315590000000  0.4824190000000 1.0
C      1  0.4814480000000  0.4514970000000  0.4215130000000 1.0
C      1  0.5151870000000  0.4473350000000  0.5783310000000 1.0
C      1  0.5779140000000  0.4478230000000  0.5137530000000 1.0
C      1  0.5085440000000  0.4675250000000  0.4211980000000 1.0
C      1  0.4969550000000  0.5296260000000  0.4852450000000 1.0
C      1  0.4257910000000  0.5386830000000  0.4337690000000 1.0
C      1  0.4180740000000  0.4551590000000  0.5267750000000 1.0
C      1  0.5115460000000  0.4193830000000  0.5598880000000 1.0
C      1  0.4619770000000  0.5430200000000  0.5801870000000 1.0
C      1  0.5493060000000  0.4933850000000  0.5867190000000 1.0
C      1  0.4956520000000  0.4906310000000  0.5543220000000 1.0
C      1  0.5703850000000  0.5562750000000  0.5022950000000 1.0
C      1  0.4206790000000  0.4716940000000  0.4577710000000 1.0
C      1  0.5485600000000  0.4281880000000  0.4618950000000 1.0
C      1  0.5407790000000  0.5294560000000  0.5028290000000 1.0
C      1  0.5833950000000  0.4613590000000  0.4851810000000 1.0
C      1  0.4062030000000  0.4822860000000  0.5242000000000 1.0
C      1  0.4176580000000  0.4496810000000  0.4727470000000 1.0
C      1  0.5675070000000  0.4363320000000  0.5423600000000 1.0
C      1  0.5419660000000  0.5331760000000  0.4093020000000 1.0
C      1  0.5074210000000  0.5334660000000  0.5583780000000 1.0
C      1  0.5294360000000  0.5203790000000  0.5807530000000 1.0
C      1  0.4339210000000  0.5523380000000  0.5032810000000 1.0
C      1  0.5158500000000  0.4126330000000  0.4779840000000 1.0
C      1  0.5445480000000  0.5708510000000  0.5030040000000 1.0
C      1  0.4628350000000  0.5141340000000  0.5943160000000 1.0
C      1  0.5293160000000  0.4342590000000  0.4963950000000 1.0
C      1  0.5894770000000  0.5118160000000  0.5299610000000 1.0
C      1  0.4055680000000  0.4968270000000  0.5486720000000 1.0
C      1  0.5668470000000  0.4690400000000  0.5364780000000 1.0
C      1  0.4786220000000  0.4220980000000  0.5582660000000 1.0
C      1  0.5652140000000  0.5101290000000  0.4568490000000 1.0
C      1  0.4532970000000  0.5843960000000  0.4554760000000 1.0
C      1  0.5757950000000  0.5351470000000  0.4762920000000 1.0
C      1  0.5156600000000  0.4919540000000  0.4047360000000 1.0
C      1  0.4376810000000  0.5224140000000  0.5769460000000 1.0
C      1  0.4853200000000  0.4464780000000  0.5731810000000 1.0
C      1  0.4958390000000  0.5022070000000  0.4694700000000 1.0
C      1  0.4531170000000  0.5393730000000  0.4248990000000 1.0
C      1  0.4198880000000  0.5294130000000  0.4599960000000 1.0
C      1  0.4673100000000  0.5247910000000  0.4049720000000 1.0
C      1  0.5736980000000  0.4927960000000  0.4815540000000 1.0
C      1  0.5829320000000  0.4915130000000  0.5487410000000 1.0
C      1  0.5275330000000  0.5836210000000  0.5601100000000 1.0
C      1  0.4778910000000  0.4911090000000  0.5836840000000 1.0
C      1  0.4797280000000  0.5757850000000  0.5377600000000 1.0
C      1  0.4529430000000  0.5256210000000  0.4986410000000 1.0
C      1  0.5219140000000  0.5842380000000  0.5115030000000 1.0
C      1  0.5598330000000  0.4381840000000  0.4878770000000 1.0
C      1  0.5561890000000  0.5485000000000  0.4528960000000 1.0
C      1  0.5427000000000  0.4854520000000  0.5281500000000 1.0
C      1  0.5385170000000  0.5492860000000  0.4792470000000 1.0
C      1  0.4960750000000  0.5439250000000  0.5125150000000 1.0
C      1  0.5206640000000  0.5368980000000  0.5293590000000 1.0
C      1  0.4780840000000  0.4882980000000  0.4366630000000 1.0
C      1  0.4960800000000  0.4690500000000  0.5093780000000 1.0
C      1  0.4539210000000  0.4892140000000  0.5405470000000 1.0
C      1  0.5480710000000  0.4982310000000  0.4993100000000 1.0
C      1  0.4458440000000  0.5145150000000  0.4707670000000 1.0
C      1  0.4140440000000  0.5277310000000  0.4907250000000 1.0
C      1  0.5006780000000  0.5891120000000  0.4910300000000 1.0
C      1  0.5042100000000  0.5103520000000  0.4380150000000 1.0
C      1  0.4727840000000  0.5890080000000  0.5069630000000 1.0
C      1  0.4486260000000  0.4884060000000  0.4539720000000 1.0
C      1  0.4791700000000  0.5491760000000  0.5569090000000 1.0
C      1  0.4649660000000  0.4560520000000  0.4707750000000 1.0
C      1  0.5483960000000  0.4717880000000  0.4476830000000 1.0
C      1  0.5472180000000  0.5357650000000  0.5596150000000 1.0
C      1  0.4848870000000  0.4364300000000  0.4501580000000 1.0
C      1  0.4923670000000  0.5121280000000  0.4066030000000 1.0
C      1  0.4718650000000  0.5208830000000  0.4554800000000 1.0
C      1  0.5142070000000  0.4610570000000  0.4851670000000 1.0
C      1  0.5354950000000  0.4830090000000  0.4749980000000 1.0
C      1  0.4697060000000  0.4167820000000  0.4711480000000 1.0
C      1  0.5141430000000  0.5663280000000  0.4379540000000 1.0
C      1  0.4704360000000  0.4784490000000  0.4911230000000 1.0
C      1  0.5848180000000  0.5285230000000  0.5085290000000 1.0
C      1  0.4634700000000  0.4677940000000  0.5655140000000 1.0
C      1  0.5593600000000  0.4926490000000  0.4293700000000 1.0
C      1  0.5311830000000  0.4525030000000  0.4357230000000 1.0
C      1  0.5105800000000  0.5842670000000  0.5373120000000 1.0
C      1  0.4597370000000  0.4753900000000  0.4108310000000 1.0
C      1  0.5754570000000  0.4949860000000  0.5759330000000 1.0
C      1  0.5098940000000  0.4954080000000  0.5830340000000 1.0
C      1  0.5101400000000  0.5518990000000  0.4672250000000 1.0
C      1  0.5072100000000  0.5911570000000  0.4603230000000 1.0
C      1  0.4798810000000  0.5080650000000  0.5056290000000 1.0
END
