TITL C-2782228-2999-1411 -0.0079516069694014 125000 -991.828720660158 0 0 169 (C1) n - 1
REM
REM in /home/nfs/bkarasulu/CARBON/AIRSS/Generating-Clusters/REBO/Higher-Symm/SD-CG/HFTN-CG
REM
REM
REM
REM
REM
REM ./C.cell (12c818d87b63d06a65506943cc24bca4)
REM
REM compiler GCC version 9.2.1 20190827 (Red Hat 9.2.1-1)
REM options -cpp -mtune=generic -march=x86-64 -g -O0 -fpre-include=/usr/include/finclude/math-vector-fortran.h
REM seed 19647510 755191332 761353310 1617873620 -1533226701 -1049987485 -1005565851 -597115733 -89798720 2134357906 -1303088871 1189304260 1640632256 -294282835 1911075135 145174706 -2131915732 599998860 -715540396 -758076053 -1030702190 1268374421 649417501 990471179 57455548 246306456 -93543116 1823506635 -1336245950 1490109609 -1380421169 -2113347382 -413110561
REM
CELL 1.54180   50.00000   50.00000   50.00000   90.00000   90.00000   90.00000
LATT -1
SFAC C  
C      1  0.3916770000000  0.5118840000000  0.4918490000000 1.0
C      1  0.4597430000000  0.4562850000000  0.5024070000000 1.0
C      1  0.5541470000000  0.5061580000000  0.5256710000000 1.0
C      1  0.4062710000000  0.4911640000000  0.5433760000000 1.0
C      1  0.5125870000000  0.5248880000000  0.5097170000000 1.0
C      1  0.5650740000000  0.5701390000000  0.4631130000000 1.0
C      1  0.5767640000000  0.5522010000000  0.5939250000000 1.0
C      1  0.4881510000000  0.4180290000000  0.5468730000000 1.0
C      1  0.5815690000000  0.5321070000000  0.4329620000000 1.0
C      1  0.4670180000000  0.4516420000000  0.5427290000000 1.0
C      1  0.4941500000000  0.5500940000000  0.5478490000000 1.0
C      1  0.4845970000000  0.5160740000000  0.4977560000000 1.0
C      1  0.4192050000000  0.5222290000000  0.4390600000000 1.0
C      1  0.5461420000000  0.4436730000000  0.4572190000000 1.0
C      1  0.5348970000000  0.4083850000000  0.4422250000000 1.0
C      1  0.5564960000000  0.4852540000000  0.4035580000000 1.0
C      1  0.5620320000000  0.4910840000000  0.4565290000000 1.0
C      1  0.5725630000000  0.5319700000000  0.5754600000000 1.0
C      1  0.5213300000000  0.5063250000000  0.4821020000000 1.0
C      1  0.4699920000000  0.4478770000000  0.4592980000000 1.0
C      1  0.5915170000000  0.4942880000000  0.4462280000000 1.0
C      1  0.4555630000000  0.5419270000000  0.5831560000000 1.0
C      1  0.5884910000000  0.5523890000000  0.4508450000000 1.0
C      1  0.4497640000000  0.4296520000000  0.5508550000000 1.0
C      1  0.5349060000000  0.6245810000000  0.5321290000000 1.0
C      1  0.5010610000000  0.4858940000000  0.4648370000000 1.0
C      1  0.4529120000000  0.3999170000000  0.4655870000000 1.0
C      1  0.5189940000000  0.5195280000000  0.5377410000000 1.0
C      1  0.5530310000000  0.5076800000000  0.5830340000000 1.0
C      1  0.4967800000000  0.4569440000000  0.5414080000000 1.0
C      1  0.5915330000000  0.4556480000000  0.4726590000000 1.0
C      1  0.4454290000000  0.5345430000000  0.4834560000000 1.0
C      1  0.4724250000000  0.5202510000000  0.4447020000000 1.0
C      1  0.5998110000000  0.4962530000000  0.5508250000000 1.0
C      1  0.4477150000000  0.4646190000000  0.4757030000000 1.0
C      1  0.4903050000000  0.5398600000000  0.4546920000000 1.0
C      1  0.4870180000000  0.4736810000000  0.5862950000000 1.0
C      1  0.3937620000000  0.4634930000000  0.5165990000000 1.0
C      1  0.6070860000000  0.4950580000000  0.4913210000000 1.0
C      1  0.4338640000000  0.5453420000000  0.4532320000000 1.0
C      1  0.5341500000000  0.5800660000000  0.5585570000000 1.0
C      1  0.5984610000000  0.4780020000000  0.5157690000000 1.0
C      1  0.5316570000000  0.4898950000000  0.5088280000000 1.0
C      1  0.4606470000000  0.4528050000000  0.5821640000000 1.0
C      1  0.5070300000000  0.4711680000000  0.4941730000000 1.0
C      1  0.5288660000000  0.5690360000000  0.4467890000000 1.0
C      1  0.5952590000000  0.5251530000000  0.5569760000000 1.0
C      1  0.5595350000000  0.4641750000000  0.4777240000000 1.0
C      1  0.5772920000000  0.5569550000000  0.5216030000000 1.0
C      1  0.4965510000000  0.5677650000000  0.4083770000000 1.0
C      1  0.4330670000000  0.5627680000000  0.5080970000000 1.0
C      1  0.5472200000000  0.3965840000000  0.4959850000000 1.0
C      1  0.4286960000000  0.4162680000000  0.4743020000000 1.0
C      1  0.6039140000000  0.4656130000000  0.5453980000000 1.0
C      1  0.5134800000000  0.5805670000000  0.5125740000000 1.0
C      1  0.4748140000000  0.4977690000000  0.5317230000000 1.0
C      1  0.5031470000000  0.5978200000000  0.4879580000000 1.0
C      1  0.5398810000000  0.4574540000000  0.5897930000000 1.0
C      1  0.4835400000000  0.5196410000000  0.4064070000000 1.0
C      1  0.5853360000000  0.5705440000000  0.4975600000000 1.0
C      1  0.5226480000000  0.5131520000000  0.5860320000000 1.0
C      1  0.4542040000000  0.4246130000000  0.4448280000000 1.0
C      1  0.5977730000000  0.5449020000000  0.5370690000000 1.0
C      1  0.5259250000000  0.4002150000000  0.4744100000000 1.0
C      1  0.4520060000000  0.4306560000000  0.5113490000000 1.0
C      1  0.6065240000000  0.5021790000000  0.4245260000000 1.0
C      1  0.4609190000000  0.5815200000000  0.5837590000000 1.0
C      1  0.4219900000000  0.5474260000000  0.5431830000000 1.0
C      1  0.4944790000000  0.5770920000000  0.5893820000000 1.0
C      1  0.4150000000000  0.4245990000000  0.4977180000000 1.0
C      1  0.4256300000000  0.5683030000000  0.4768160000000 1.0
C      1  0.5103650000000  0.5781510000000  0.3875410000000 1.0
C      1  0.5058200000000  0.5041630000000  0.3961030000000 1.0
C      1  0.5671720000000  0.4156130000000  0.4390820000000 1.0
C      1  0.5024170000000  0.4769080000000  0.5609960000000 1.0
C      1  0.5170410000000  0.5980780000000  0.4592580000000 1.0
C      1  0.4382320000000  0.5663270000000  0.5671140000000 1.0
C      1  0.5078530000000  0.5447700000000  0.4824660000000 1.0
C      1  0.5425360000000  0.5531800000000  0.4274320000000 1.0
C      1  0.5381420000000  0.3966640000000  0.5224550000000 1.0
C      1  0.4334790000000  0.5788520000000  0.5362340000000 1.0
C      1  0.5217200000000  0.4454030000000  0.5213030000000 1.0
C      1  0.5257900000000  0.4837320000000  0.3937150000000 1.0
C      1  0.4388800000000  0.4675190000000  0.4428640000000 1.0
C      1  0.5963220000000  0.4392040000000  0.5456050000000 1.0
C      1  0.5723900000000  0.5949640000000  0.4848530000000 1.0
C      1  0.4390970000000  0.4941390000000  0.4781060000000 1.0
C      1  0.3809630000000  0.4995040000000  0.4686250000000 1.0
C      1  0.4714830000000  0.5888680000000  0.4853710000000 1.0
C      1  0.5560430000000  0.4793920000000  0.5748180000000 1.0
C      1  0.4870830000000  0.4335820000000  0.5722040000000 1.0
C      1  0.4825160000000  0.5017330000000  0.6053730000000 1.0
C      1  0.4650890000000  0.4055910000000  0.5110260000000 1.0
C      1  0.5742200000000  0.4279090000000  0.5230820000000 1.0
C      1  0.4895780000000  0.4679130000000  0.4427670000000 1.0
C      1  0.5677140000000  0.5065080000000  0.4165300000000 1.0
C      1  0.4763810000000  0.5468010000000  0.4150530000000 1.0
C      1  0.4219480000000  0.4962120000000  0.5678940000000 1.0
C      1  0.4841500000000  0.5811040000000  0.5397010000000 1.0
C      1  0.5443710000000  0.4620900000000  0.5051880000000 1.0
C      1  0.5747810000000  0.4285720000000  0.4681910000000 1.0
C      1  0.4782160000000  0.5013370000000  0.4792860000000 1.0
C      1  0.4812640000000  0.4749740000000  0.5096260000000 1.0
C      1  0.4158350000000  0.4884270000000  0.4362460000000 1.0
C      1  0.5705900000000  0.4136910000000  0.4945300000000 1.0
C      1  0.5196040000000  0.4300660000000  0.4617870000000 1.0
C      1  0.5152830000000  0.5011570000000  0.5598850000000 1.0
C      1  0.5606980000000  0.5344050000000  0.4892590000000 1.0
C      1  0.5130810000000  0.4428100000000  0.5787110000000 1.0
C      1  0.5441040000000  0.5287050000000  0.5570530000000 1.0
C      1  0.4545070000000  0.5089690000000  0.5905880000000 1.0
C      1  0.4314250000000  0.4694240000000  0.5762190000000 1.0
C      1  0.4864490000000  0.5469580000000  0.5809350000000 1.0
C      1  0.4642240000000  0.4718930000000  0.4251050000000 1.0
C      1  0.4301830000000  0.5026770000000  0.5031350000000 1.0
C      1  0.5388800000000  0.4486020000000  0.5569420000000 1.0
C      1  0.4299470000000  0.5274260000000  0.5657440000000 1.0
C      1  0.4986460000000  0.4125640000000  0.4906260000000 1.0
C      1  0.5854330000000  0.5081890000000  0.5220070000000 1.0
C      1  0.4640410000000  0.4484290000000  0.4045800000000 1.0
C      1  0.5490910000000  0.5397490000000  0.5208830000000 1.0
C      1  0.5251060000000  0.5808110000000  0.5841780000000 1.0
C      1  0.5001760000000  0.4212280000000  0.5219140000000 1.0
C      1  0.4241180000000  0.4271280000000  0.5286390000000 1.0
C      1  0.5245280000000  0.5583640000000  0.5345960000000 1.0
C      1  0.4045720000000  0.4485770000000  0.5392320000000 1.0
C      1  0.5456150000000  0.4316450000000  0.4191060000000 1.0
C      1  0.4524130000000  0.4754260000000  0.5367450000000 1.0
C      1  0.4459460000000  0.5075830000000  0.4542100000000 1.0
C      1  0.6051760000000  0.4799910000000  0.4676220000000 1.0
C      1  0.3933650000000  0.4792390000000  0.4535700000000 1.0
C      1  0.4726490000000  0.3951290000000  0.4845400000000 1.0
C      1  0.4626290000000  0.5855050000000  0.5223710000000 1.0
C      1  0.4582880000000  0.5121160000000  0.5568870000000 1.0
C      1  0.5291600000000  0.5978220000000  0.5346050000000 1.0
C      1  0.4600770000000  0.4253380000000  0.4145480000000 1.0
C      1  0.4968730000000  0.4437160000000  0.4768030000000 1.0
C      1  0.5003830000000  0.5246280000000  0.5981030000000 1.0
C      1  0.5484790000000  0.5998380000000  0.4628720000000 1.0
C      1  0.4524190000000  0.5798390000000  0.4592550000000 1.0
C      1  0.4986000000000  0.5680320000000  0.4404650000000 1.0
C      1  0.5923320000000  0.5232240000000  0.4933540000000 1.0
C      1  0.5501220000000  0.5241420000000  0.4374400000000 1.0
C      1  0.4617640000000  0.5011060000000  0.4180690000000 1.0
C      1  0.5726670000000  0.4601040000000  0.5210870000000 1.0
C      1  0.4577130000000  0.4784100000000  0.6043660000000 1.0
C      1  0.4223730000000  0.5312350000000  0.5157490000000 1.0
C      1  0.4869070000000  0.5635960000000  0.4994950000000 1.0
C      1  0.4282420000000  0.4830090000000  0.5241760000000 1.0
C      1  0.5182740000000  0.4732230000000  0.4312550000000 1.0
C      1  0.5421490000000  0.4554290000000  0.4047060000000 1.0
C      1  0.3977660000000  0.4476760000000  0.4923250000000 1.0
C      1  0.5432940000000  0.4702010000000  0.4418300000000 1.0
C      1  0.5371820000000  0.5540620000000  0.4743970000000 1.0
C      1  0.5457380000000  0.5157350000000  0.4673710000000 1.0
C      1  0.4097260000000  0.4527230000000  0.5667260000000 1.0
C      1  0.5528930000000  0.4761880000000  0.5423340000000 1.0
C      1  0.4113310000000  0.5381730000000  0.4853950000000 1.0
C      1  0.5441390000000  0.4248190000000  0.5365380000000 1.0
C      1  0.4239920000000  0.4390170000000  0.4514910000000 1.0
C      1  0.4740670000000  0.5310880000000  0.5334480000000 1.0
C      1  0.4627510000000  0.5468160000000  0.5093860000000 1.0
C      1  0.4324260000000  0.5064670000000  0.4131550000000 1.0
C      1  0.3992210000000  0.4543950000000  0.4648010000000 1.0
C      1  0.3912870000000  0.4949410000000  0.5149800000000 1.0
C      1  0.4836900000000  0.5923780000000  0.4538550000000 1.0
C      1  0.4823490000000  0.5951900000000  0.5644530000000 1.0
C      1  0.5958640000000  0.5507930000000  0.4796060000000 1.0
C      1  0.4580820000000  0.5562940000000  0.4350420000000 1.0
END
