TITL C-2782235-7892-382 -0.00118997095497283 125000 -516.46629784108 0 0 85 (C1) n - 1
REM
REM in /home/nfs/bkarasulu/CARBON/AIRSS/Generating-Clusters/REBO/Higher-Symm/SD-CG/HFTN-CG
REM
REM
REM
REM
REM
REM ./C.cell (12c818d87b63d06a65506943cc24bca4)
REM
REM compiler GCC version 9.2.1 20190827 (Red Hat 9.2.1-1)
REM options -cpp -mtune=generic -march=x86-64 -g -O0 -fpre-include=/usr/include/finclude/math-vector-fortran.h
REM seed -488641926 -1945567267 1114537654 -1841506443 987795784 1411363320 -1959510008 -1756570153 1682691241 1811711886 -1135722828 -1952821410 1879146643 -1454427328 2072152411 -2109767363 -69295947 796911852 1524186221 1730192065 -681099708 -1965366271 -1087100247 1373201350 1933040717 -2006246115 333063731 -1823538122 -1756658413 -1724392557 1534035544 962344656 -1248216335
REM
CELL 1.54180   50.00000   50.00000   50.00000   90.00000   90.00000   90.00000
LATT -1
SFAC C  
C      1  0.5536180000000  0.4501130000000  0.4654720000000 1.0
C      1  0.5604090000000  0.4493090000000  0.5181260000000 1.0
C      1  0.5240460000000  0.4493060000000  0.5581850000000 1.0
C      1  0.4702090000000  0.4493430000000  0.5562110000000 1.0
C      1  0.4382480000000  0.4512170000000  0.5147670000000 1.0
C      1  0.4531670000000  0.4505130000000  0.4568140000000 1.0
C      1  0.4999520000000  0.4513480000000  0.4367390000000 1.0
C      1  0.4490820000000  0.4417600000000  0.4867600000000 1.0
C      1  0.4774350000000  0.4371240000000  0.4481950000000 1.0
C      1  0.5247430000000  0.4433730000000  0.4551510000000 1.0
C      1  0.5555790000000  0.4369800000000  0.4916200000000 1.0
C      1  0.5412570000000  0.4373060000000  0.5373610000000 1.0
C      1  0.4972060000000  0.4370970000000  0.5559910000000 1.0
C      1  0.4550490000000  0.4371970000000  0.5339850000000 1.0
C      1  0.5305340000000  0.4837390000000  0.4914620000000 1.0
C      1  0.5219540000000  0.4861470000000  0.5179780000000 1.0
C      1  0.4970580000000  0.4851390000000  0.5294790000000 1.0
C      1  0.4712990000000  0.4815890000000  0.5187200000000 1.0
C      1  0.4610620000000  0.4734830000000  0.4902150000000 1.0
C      1  0.4848250000000  0.4789080000000  0.4673730000000 1.0
C      1  0.5155830000000  0.4746040000000  0.4652700000000 1.0
C      1  0.5089840000000  0.5707220000000  0.4698070000000 1.0
C      1  0.5294080000000  0.5694750000000  0.4891290000000 1.0
C      1  0.5278220000000  0.5692650000000  0.5170460000000 1.0
C      1  0.5047380000000  0.5691150000000  0.5326140000000 1.0
C      1  0.4781760000000  0.5693260000000  0.5240490000000 1.0
C      1  0.4675900000000  0.5704830000000  0.4980630000000 1.0
C      1  0.4807320000000  0.5724840000000  0.4729910000000 1.0
C      1  0.4982360000000  0.4169550000000  0.5339350000000 1.0
C      1  0.4727930000000  0.4174980000000  0.5201980000000 1.0
C      1  0.4691560000000  0.4191570000000  0.4920080000000 1.0
C      1  0.4867050000000  0.4182280000000  0.4694970000000 1.0
C      1  0.5149150000000  0.4200900000000  0.4728450000000 1.0
C      1  0.5328700000000  0.4176930000000  0.4948200000000 1.0
C      1  0.5248870000000  0.4171130000000  0.5226320000000 1.0
C      1  0.5169410000000  0.5552500000000  0.4445020000000 1.0
C      1  0.5542050000000  0.5544990000000  0.4792220000000 1.0
C      1  0.5511820000000  0.5545230000000  0.5305580000000 1.0
C      1  0.5085210000000  0.5542380000000  0.5590260000000 1.0
C      1  0.4599030000000  0.5543910000000  0.5435010000000 1.0
C      1  0.4412060000000  0.5549900000000  0.4960860000000 1.0
C      1  0.4660430000000  0.5561130000000  0.4511650000000 1.0
C      1  0.4967460000000  0.5097630000000  0.4241010000000 1.0
C      1  0.5571360000000  0.5086110000000  0.4503740000000 1.0
C      1  0.5740740000000  0.5083760000000  0.5143900000000 1.0
C      1  0.5346910000000  0.5080040000000  0.5664880000000 1.0
C      1  0.4693690000000  0.5080930000000  0.5693620000000 1.0
C      1  0.4260770000000  0.5089990000000  0.5197050000000 1.0
C      1  0.4386040000000  0.5093300000000  0.4551780000000 1.0
C      1  0.5155600000000  0.5226050000000  0.5331370000000 1.0
C      1  0.4878640000000  0.5239480000000  0.5321340000000 1.0
C      1  0.4751440000000  0.5246170000000  0.5081490000000 1.0
C      1  0.4753160000000  0.5087540000000  0.4780090000000 1.0
C      1  0.5060390000000  0.5124290000000  0.4633300000000 1.0
C      1  0.5254410000000  0.5276420000000  0.4862730000000 1.0
C      1  0.5332820000000  0.5240160000000  0.5119670000000 1.0
C      1  0.4982660000000  0.4932630000000  0.5595820000000 1.0
C      1  0.4494250000000  0.4929680000000  0.5383170000000 1.0
C      1  0.4353060000000  0.4929080000000  0.4843190000000 1.0
C      1  0.4726570000000  0.4945630000000  0.4407120000000 1.0
C      1  0.5290890000000  0.4926830000000  0.4402580000000 1.0
C      1  0.5599920000000  0.4940570000000  0.4873660000000 1.0
C      1  0.5451320000000  0.4939120000000  0.5376340000000 1.0
C      1  0.5621960000000  0.4765130000000  0.4610110000000 1.0
C      1  0.5672310000000  0.4759390000000  0.5222180000000 1.0
C      1  0.5245850000000  0.4756720000000  0.5666510000000 1.0
C      1  0.4627580000000  0.4754150000000  0.5624970000000 1.0
C      1  0.4257070000000  0.4760780000000  0.5113400000000 1.0
C      1  0.4474820000000  0.4768260000000  0.4499160000000 1.0
C      1  0.5045670000000  0.4766070000000  0.4253880000000 1.0
C      1  0.4278640000000  0.5242330000000  0.4903930000000 1.0
C      1  0.4625170000000  0.5251120000000  0.4374960000000 1.0
C      1  0.5252020000000  0.5244110000000  0.4325160000000 1.0
C      1  0.5685910000000  0.5239680000000  0.4782550000000 1.0
C      1  0.5607340000000  0.5235380000000  0.5409180000000 1.0
C      1  0.5059750000000  0.5231530000000  0.5719190000000 1.0
C      1  0.4475030000000  0.5235530000000  0.5498220000000 1.0
C      1  0.4339810000000  0.5418270000000  0.5253840000000 1.0
C      1  0.4393290000000  0.5422200000000  0.4646510000000 1.0
C      1  0.4899430000000  0.5426890000000  0.4309120000000 1.0
C      1  0.5477980000000  0.5416370000000  0.4495960000000 1.0
C      1  0.5696710000000  0.5414750000000  0.5066810000000 1.0
C      1  0.5390520000000  0.5412610000000  0.5595420000000 1.0
C      1  0.4782350000000  0.5411640000000  0.5676340000000 1.0
C      1  0.4936680000000  0.5363950000000  0.4834340000000 1.0
END
