TITL C-2782235-7892-202 -0.00131135772626435 125000 -961.158427708665 0 0 164 (C1) n - 1
REM
REM in /home/nfs/bkarasulu/CARBON/AIRSS/Generating-Clusters/REBO/Higher-Symm/SD-CG/HFTN-CG
REM
REM
REM
REM
REM
REM ./C.cell (12c818d87b63d06a65506943cc24bca4)
REM
REM compiler GCC version 9.2.1 20190827 (Red Hat 9.2.1-1)
REM options -cpp -mtune=generic -march=x86-64 -g -O0 -fpre-include=/usr/include/finclude/math-vector-fortran.h
REM seed 169971780 785282345 1726709667 -1376425639 -16001340 1377394472 -325479210 -219841663 1968899159 1844580495 -1242854714 -1166859805 -2134144795 1952289845 1786494208 -1244631213 956526729 333289389 -587629805 903332657 1100555795 699103963 1973209258 121780964 1611140654 1665598892 948322893 1016757285 -133764955 886946160 1567746025 1070335452 -1775840744
REM
CELL 1.54180   50.00000   50.00000   50.00000   90.00000   90.00000   90.00000
LATT -1
SFAC C  
C      1  0.4866970000000  0.5460590000000  0.4419450000000 1.0
C      1  0.4595870000000  0.5145550000000  0.5394070000000 1.0
C      1  0.4521560000000  0.4740390000000  0.6022580000000 1.0
C      1  0.5176800000000  0.4533630000000  0.4783230000000 1.0
C      1  0.5098800000000  0.5668450000000  0.4342700000000 1.0
C      1  0.5616750000000  0.4609810000000  0.5119740000000 1.0
C      1  0.4348090000000  0.5272810000000  0.4955370000000 1.0
C      1  0.4451260000000  0.5219160000000  0.6107910000000 1.0
C      1  0.4423760000000  0.5410690000000  0.4113490000000 1.0
C      1  0.4557480000000  0.4116860000000  0.5548780000000 1.0
C      1  0.3965530000000  0.5188450000000  0.5033420000000 1.0
C      1  0.4871600000000  0.5329560000000  0.5346030000000 1.0
C      1  0.5308700000000  0.5700370000000  0.4527860000000 1.0
C      1  0.5395490000000  0.4445120000000  0.4120520000000 1.0
C      1  0.4106990000000  0.4789080000000  0.5492410000000 1.0
C      1  0.5888950000000  0.4167310000000  0.5053540000000 1.0
C      1  0.5147290000000  0.4227530000000  0.4944830000000 1.0
C      1  0.5069630000000  0.4790210000000  0.5080210000000 1.0
C      1  0.4526960000000  0.4750520000000  0.4278630000000 1.0
C      1  0.5073090000000  0.4973170000000  0.3873420000000 1.0
C      1  0.5065790000000  0.4080880000000  0.5693650000000 1.0
C      1  0.5134850000000  0.4513440000000  0.5223120000000 1.0
C      1  0.5094140000000  0.4806540000000  0.6141720000000 1.0
C      1  0.4616700000000  0.5433480000000  0.6024240000000 1.0
C      1  0.5105570000000  0.5326810000000  0.5140630000000 1.0
C      1  0.5226040000000  0.4314920000000  0.5827860000000 1.0
C      1  0.4685000000000  0.4927990000000  0.4711800000000 1.0
C      1  0.4417310000000  0.5834110000000  0.5395720000000 1.0
C      1  0.5231560000000  0.6025230000000  0.5187690000000 1.0
C      1  0.5680520000000  0.4494060000000  0.4300110000000 1.0
C      1  0.6117500000000  0.4977200000000  0.5081190000000 1.0
C      1  0.4342020000000  0.5482180000000  0.4386460000000 1.0
C      1  0.5618510000000  0.5414840000000  0.5156860000000 1.0
C      1  0.6081360000000  0.5264290000000  0.4993070000000 1.0
C      1  0.5352590000000  0.4403230000000  0.5546660000000 1.0
C      1  0.4794170000000  0.4673620000000  0.5353270000000 1.0
C      1  0.5141580000000  0.5098610000000  0.4514930000000 1.0
C      1  0.4868980000000  0.5160620000000  0.4805600000000 1.0
C      1  0.5696420000000  0.4074780000000  0.4577080000000 1.0
C      1  0.4582110000000  0.4639230000000  0.4811250000000 1.0
C      1  0.4838810000000  0.4397770000000  0.5780320000000 1.0
C      1  0.5403790000000  0.5083040000000  0.5494470000000 1.0
C      1  0.4557850000000  0.4809090000000  0.3950030000000 1.0
C      1  0.5424610000000  0.3959380000000  0.5395300000000 1.0
C      1  0.4295840000000  0.4545940000000  0.4787260000000 1.0
C      1  0.4900460000000  0.5389840000000  0.6011520000000 1.0
C      1  0.5716360000000  0.4623520000000  0.4837650000000 1.0
C      1  0.4922230000000  0.4907420000000  0.4391870000000 1.0
C      1  0.4941950000000  0.4892750000000  0.5651250000000 1.0
C      1  0.5438570000000  0.4692680000000  0.5569970000000 1.0
C      1  0.5392380000000  0.5382480000000  0.4033340000000 1.0
C      1  0.4730340000000  0.4370260000000  0.4899310000000 1.0
C      1  0.4609960000000  0.5379040000000  0.5145870000000 1.0
C      1  0.4540440000000  0.5869440000000  0.4800360000000 1.0
C      1  0.5143390000000  0.3975230000000  0.5425800000000 1.0
C      1  0.5590540000000  0.5077220000000  0.5202260000000 1.0
C      1  0.5782600000000  0.5472760000000  0.4563480000000 1.0
C      1  0.4770010000000  0.4742810000000  0.6195250000000 1.0
C      1  0.5357810000000  0.5923900000000  0.4767610000000 1.0
C      1  0.5600190000000  0.5701570000000  0.4396270000000 1.0
C      1  0.4514290000000  0.5582220000000  0.5787450000000 1.0
C      1  0.5423390000000  0.4702100000000  0.4692160000000 1.0
C      1  0.5378020000000  0.5120930000000  0.4333710000000 1.0
C      1  0.5393260000000  0.5123230000000  0.5816500000000 1.0
C      1  0.5550970000000  0.4209760000000  0.5430770000000 1.0
C      1  0.5849410000000  0.4648280000000  0.4521660000000 1.0
C      1  0.5393120000000  0.4392350000000  0.5112780000000 1.0
C      1  0.5818670000000  0.5274130000000  0.5472710000000 1.0
C      1  0.4766650000000  0.4900170000000  0.5130280000000 1.0
C      1  0.5293500000000  0.5570590000000  0.5653610000000 1.0
C      1  0.5228970000000  0.4248060000000  0.4347890000000 1.0
C      1  0.5266130000000  0.4547450000000  0.6003720000000 1.0
C      1  0.4337240000000  0.5620950000000  0.5566340000000 1.0
C      1  0.5611110000000  0.5004860000000  0.4512000000000 1.0
C      1  0.5168550000000  0.4853480000000  0.5462270000000 1.0
C      1  0.5535090000000  0.5658810000000  0.5007740000000 1.0
C      1  0.5788370000000  0.4248810000000  0.5290940000000 1.0
C      1  0.4671100000000  0.4128420000000  0.5253920000000 1.0
C      1  0.5791360000000  0.4992470000000  0.4969800000000 1.0
C      1  0.4424850000000  0.5032520000000  0.5637010000000 1.0
C      1  0.4473100000000  0.5049980000000  0.4537080000000 1.0
C      1  0.5084440000000  0.4266620000000  0.4611100000000 1.0
C      1  0.4631450000000  0.4789980000000  0.5602100000000 1.0
C      1  0.4978510000000  0.5444340000000  0.5623890000000 1.0
C      1  0.5385520000000  0.4878310000000  0.4101700000000 1.0
C      1  0.4872760000000  0.5861880000000  0.5144920000000 1.0
C      1  0.4675390000000  0.5645050000000  0.4609300000000 1.0
C      1  0.4868550000000  0.5214020000000  0.4248310000000 1.0
C      1  0.4770850000000  0.4092700000000  0.5742710000000 1.0
C      1  0.5997060000000  0.5243650000000  0.4687350000000 1.0
C      1  0.5486250000000  0.5011030000000  0.4822770000000 1.0
C      1  0.4915880000000  0.4712860000000  0.4810330000000 1.0
C      1  0.5076750000000  0.5249320000000  0.4010710000000 1.0
C      1  0.4966830000000  0.5153990000000  0.5781640000000 1.0
C      1  0.4821470000000  0.5736160000000  0.4070310000000 1.0
C      1  0.4487110000000  0.4241900000000  0.4611790000000 1.0
C      1  0.5341750000000  0.5356430000000  0.5325210000000 1.0
C      1  0.4250370000000  0.4503330000000  0.5378790000000 1.0
C      1  0.4346730000000  0.4223520000000  0.5210780000000 1.0
C      1  0.5935790000000  0.5392840000000  0.5200770000000 1.0
C      1  0.4832300000000  0.4401910000000  0.5182680000000 1.0
C      1  0.4588400000000  0.5071870000000  0.4247580000000 1.0
C      1  0.5870920000000  0.4972530000000  0.5478430000000 1.0
C      1  0.5233570000000  0.5403550000000  0.5933960000000 1.0
C      1  0.5017950000000  0.4478660000000  0.5528110000000 1.0
C      1  0.5649900000000  0.5742470000000  0.4726840000000 1.0
C      1  0.4141080000000  0.5464850000000  0.5125200000000 1.0
C      1  0.4175700000000  0.5428710000000  0.5437360000000 1.0
C      1  0.4992680000000  0.6000000000000  0.5430320000000 1.0
C      1  0.4787620000000  0.4369420000000  0.4563160000000 1.0
C      1  0.5491490000000  0.4740510000000  0.4370630000000 1.0
C      1  0.4282530000000  0.5729440000000  0.4964980000000 1.0
C      1  0.4475130000000  0.4162560000000  0.4910530000000 1.0
C      1  0.4868770000000  0.4845930000000  0.4074210000000 1.0
C      1  0.4144660000000  0.5130130000000  0.5518080000000 1.0
C      1  0.4759250000000  0.4538530000000  0.4035790000000 1.0
C      1  0.5290040000000  0.5534870000000  0.4807130000000 1.0
C      1  0.6127110000000  0.4918400000000  0.5357040000000 1.0
C      1  0.5133440000000  0.5651140000000  0.5086100000000 1.0
C      1  0.5446230000000  0.5109550000000  0.3922000000000 1.0
C      1  0.6051200000000  0.4571700000000  0.4787030000000 1.0
C      1  0.4471640000000  0.5006020000000  0.5112740000000 1.0
C      1  0.4594940000000  0.5606230000000  0.3993610000000 1.0
C      1  0.4568830000000  0.5838630000000  0.5121020000000 1.0
C      1  0.4787260000000  0.4595470000000  0.4374260000000 1.0
C      1  0.4837820000000  0.5933280000000  0.5679190000000 1.0
C      1  0.4789880000000  0.5668980000000  0.5727030000000 1.0
C      1  0.5585070000000  0.5430390000000  0.5553100000000 1.0
C      1  0.4992610000000  0.4041640000000  0.5184460000000 1.0
C      1  0.5156980000000  0.5091110000000  0.6058750000000 1.0
C      1  0.5205600000000  0.5204890000000  0.4833830000000 1.0
C      1  0.4420110000000  0.4990770000000  0.5946760000000 1.0
C      1  0.5574380000000  0.5392590000000  0.4300720000000 1.0
C      1  0.4698620000000  0.5412660000000  0.4834980000000 1.0
C      1  0.5553990000000  0.4213250000000  0.4397870000000 1.0
C      1  0.5980860000000  0.4898120000000  0.4719170000000 1.0
C      1  0.5686310000000  0.4756390000000  0.5417150000000 1.0
C      1  0.4427270000000  0.5124210000000  0.3972180000000 1.0
C      1  0.5860120000000  0.5114350000000  0.4413570000000 1.0
C      1  0.4825970000000  0.6001410000000  0.4684690000000 1.0
C      1  0.4181810000000  0.4419460000000  0.4998280000000 1.0
C      1  0.5057640000000  0.4397200000000  0.4092330000000 1.0
C      1  0.4272060000000  0.4693740000000  0.4416400000000 1.0
C      1  0.5214030000000  0.5750800000000  0.5401860000000 1.0
C      1  0.5121570000000  0.5580520000000  0.4033840000000 1.0
C      1  0.5066530000000  0.5996750000000  0.4896290000000 1.0
C      1  0.4004520000000  0.5084360000000  0.4711760000000 1.0
C      1  0.4001410000000  0.4992780000000  0.5241150000000 1.0
C      1  0.4431910000000  0.5330110000000  0.4639240000000 1.0
C      1  0.4908810000000  0.4681370000000  0.5888610000000 1.0
C      1  0.3951140000000  0.5399060000000  0.4779610000000 1.0
C      1  0.5499120000000  0.5895560000000  0.5163780000000 1.0
C      1  0.4072060000000  0.5644480000000  0.4739510000000 1.0
C      1  0.4265160000000  0.4785870000000  0.5188090000000 1.0
C      1  0.4162870000000  0.5685970000000  0.4472000000000 1.0
C      1  0.4250200000000  0.4412730000000  0.4512210000000 1.0
C      1  0.4831140000000  0.5855450000000  0.4387720000000 1.0
C      1  0.4548540000000  0.4544820000000  0.5783700000000 1.0
C      1  0.5370290000000  0.4834500000000  0.5186990000000 1.0
C      1  0.4178020000000  0.4930630000000  0.4562430000000 1.0
C      1  0.5839230000000  0.4078350000000  0.4804780000000 1.0
C      1  0.4392970000000  0.4348470000000  0.5608440000000 1.0
C      1  0.5402930000000  0.4792020000000  0.5864320000000 1.0
C      1  0.5204890000000  0.4668910000000  0.3949360000000 1.0
END
