TITL C-2782239-8622-1238 0.00260376954628742 125000 -691.210814689647 0 0 128 (C1) n - 1
REM
REM in /home/nfs/bkarasulu/CARBON/AIRSS/Generating-Clusters/REBO/Higher-Symm/SD-CG/HFTN-CG
REM
REM
REM
REM
REM
REM ./C.cell (12c818d87b63d06a65506943cc24bca4)
REM
REM compiler GCC version 9.2.1 20190827 (Red Hat 9.2.1-1)
REM options -cpp -mtune=generic -march=x86-64 -g -O0 -fpre-include=/usr/include/finclude/math-vector-fortran.h
REM seed -638104618 -123697927 578895840 -201215655 -687633840 -488489021 -222602243 245555564 -972904441 -1971175918 -7689364 -632736252 -1012868938 -2034123087 -434241548 -1709709554 -1407123090 -750738867 -1895004882 1223258834 -1182746771 -853680861 -61329751 -760975630 -609049120 -568049640 -579373376 131142798 959043366 -954553590 -485745984 -2146372640 919060870
REM
CELL 1.54180   50.00000   50.00000   50.00000   90.00000   90.00000   90.00000
LATT -1
SFAC C  
C      1  0.4805690000000  0.5234410000000  0.5202570000000 1.0
C      1  0.4842930000000  0.4843440000000  0.5272140000000 1.0
C      1  0.4653160000000  0.4647050000000  0.4982350000000 1.0
C      1  0.4906410000000  0.4932660000000  0.4642260000000 1.0
C      1  0.4895440000000  0.5283920000000  0.4820850000000 1.0
C      1  0.4805400000000  0.4384930000000  0.4533640000000 1.0
C      1  0.4747190000000  0.5229020000000  0.4207060000000 1.0
C      1  0.4774580000000  0.5777660000000  0.4955620000000 1.0
C      1  0.4820950000000  0.5278020000000  0.5767830000000 1.0
C      1  0.4816880000000  0.4328070000000  0.5492030000000 1.0
C      1  0.4522440000000  0.5710200000000  0.4803710000000 1.0
C      1  0.4570470000000  0.5420380000000  0.5658170000000 1.0
C      1  0.4564440000000  0.4499030000000  0.5567440000000 1.0
C      1  0.4496690000000  0.4257590000000  0.4539420000000 1.0
C      1  0.4503810000000  0.5054200000000  0.4214200000000 1.0
C      1  0.5047900000000  0.5824040000000  0.5391900000000 1.0
C      1  0.5054660000000  0.4882720000000  0.5881510000000 1.0
C      1  0.4992450000000  0.4121730000000  0.5170170000000 1.0
C      1  0.4955980000000  0.4643860000000  0.4195760000000 1.0
C      1  0.4990690000000  0.5649660000000  0.4385620000000 1.0
C      1  0.5382480000000  0.5084740000000  0.4369740000000 1.0
C      1  0.5405220000000  0.5599170000000  0.4883160000000 1.0
C      1  0.5366240000000  0.5307110000000  0.5508440000000 1.0
C      1  0.5330010000000  0.4637020000000  0.5432970000000 1.0
C      1  0.5336990000000  0.4472610000000  0.4843550000000 1.0
C      1  0.4102160000000  0.4706490000000  0.5062960000000 1.0
C      1  0.4054170000000  0.4839090000000  0.4779410000000 1.0
C      1  0.4064980000000  0.5161570000000  0.4799470000000 1.0
C      1  0.4061210000000  0.5235240000000  0.5104380000000 1.0
C      1  0.4076540000000  0.4961960000000  0.5261340000000 1.0
C      1  0.5917360000000  0.5184360000000  0.5162480000000 1.0
C      1  0.5903020000000  0.4905360000000  0.5243860000000 1.0
C      1  0.5885830000000  0.4727480000000  0.4981920000000 1.0
C      1  0.5871570000000  0.4924360000000  0.4748330000000 1.0
C      1  0.5930570000000  0.5207050000000  0.4872320000000 1.0
C      1  0.4359190000000  0.4919250000000  0.4679660000000 1.0
C      1  0.4354000000000  0.5348840000000  0.4787530000000 1.0
C      1  0.4377850000000  0.5319800000000  0.5212090000000 1.0
C      1  0.4403040000000  0.4870840000000  0.5268120000000 1.0
C      1  0.4365400000000  0.4525330000000  0.4943830000000 1.0
C      1  0.4514360000000  0.4391380000000  0.4096590000000 1.0
C      1  0.4575630000000  0.5700830000000  0.4097310000000 1.0
C      1  0.4582310000000  0.6031720000000  0.5372510000000 1.0
C      1  0.4562970000000  0.4929060000000  0.6067840000000 1.0
C      1  0.4653010000000  0.3818320000000  0.5452930000000 1.0
C      1  0.5707170000000  0.5173950000000  0.5617880000000 1.0
C      1  0.5693520000000  0.4501720000000  0.5352030000000 1.0
C      1  0.5648250000000  0.4480990000000  0.4595380000000 1.0
C      1  0.5748080000000  0.5226290000000  0.4422300000000 1.0
C      1  0.5767910000000  0.5617850000000  0.5033670000000 1.0
C      1  0.5282510000000  0.4664620000000  0.5761550000000 1.0
C      1  0.5243020000000  0.4185270000000  0.4955020000000 1.0
C      1  0.5213100000000  0.4853350000000  0.4255200000000 1.0
C      1  0.5250900000000  0.5662270000000  0.4605360000000 1.0
C      1  0.5280370000000  0.5619690000000  0.5515770000000 1.0
C      1  0.4789500000000  0.4533700000000  0.5240190000000 1.0
C      1  0.4832710000000  0.4632320000000  0.4737100000000 1.0
C      1  0.4854280000000  0.5204120000000  0.4496470000000 1.0
C      1  0.4892770000000  0.5506930000000  0.5049260000000 1.0
C      1  0.4819190000000  0.5109120000000  0.5483270000000 1.0
C      1  0.4903580000000  0.4911790000000  0.4020550000000 1.0
C      1  0.4928020000000  0.5886450000000  0.4591640000000 1.0
C      1  0.4894800000000  0.5645770000000  0.5610230000000 1.0
C      1  0.4889950000000  0.4613150000000  0.5766830000000 1.0
C      1  0.4855060000000  0.4207040000000  0.4888200000000 1.0
C      1  0.5533870000000  0.5648210000000  0.5284360000000 1.0
C      1  0.5489500000000  0.4937150000000  0.5731830000000 1.0
C      1  0.5511050000000  0.4292040000000  0.5148620000000 1.0
C      1  0.5457150000000  0.4668000000000  0.4406090000000 1.0
C      1  0.5503530000000  0.5459320000000  0.4494240000000 1.0
C      1  0.5437590000000  0.5011450000000  0.5345510000000 1.0
C      1  0.5570370000000  0.4685020000000  0.5104030000000 1.0
C      1  0.5535550000000  0.4953740000000  0.4712220000000 1.0
C      1  0.5533330000000  0.5225130000000  0.4840550000000 1.0
C      1  0.5478130000000  0.5250960000000  0.5131620000000 1.0
C      1  0.5171090000000  0.4473940000000  0.4398660000000 1.0
C      1  0.5236560000000  0.5441110000000  0.4272460000000 1.0
C      1  0.5275940000000  0.5850360000000  0.5161730000000 1.0
C      1  0.5255480000000  0.5156550000000  0.5861250000000 1.0
C      1  0.5240160000000  0.4256260000000  0.5354600000000 1.0
C      1  0.5243420000000  0.4912920000000  0.4701400000000 1.0
C      1  0.5233530000000  0.5316910000000  0.4802950000000 1.0
C      1  0.5147740000000  0.5230600000000  0.5182590000000 1.0
C      1  0.5129390000000  0.4881650000000  0.5376050000000 1.0
C      1  0.5273590000000  0.4713610000000  0.5045510000000 1.0
C      1  0.4285640000000  0.5630320000000  0.4965410000000 1.0
C      1  0.4359180000000  0.5247070000000  0.5533420000000 1.0
C      1  0.4364270000000  0.4552990000000  0.5351380000000 1.0
C      1  0.4278940000000  0.4434060000000  0.4642220000000 1.0
C      1  0.4301560000000  0.5126180000000  0.4425910000000 1.0
C      1  0.4181980000000  0.5037880000000  0.5556260000000 1.0
C      1  0.4125840000000  0.4426800000000  0.5245750000000 1.0
C      1  0.4077080000000  0.4604780000000  0.4564050000000 1.0
C      1  0.4084770000000  0.5296010000000  0.4497680000000 1.0
C      1  0.4071530000000  0.5560590000000  0.5128400000000 1.0
C      1  0.5718680000000  0.4885280000000  0.4447030000000 1.0
C      1  0.5743510000000  0.5444420000000  0.4741780000000 1.0
C      1  0.5719430000000  0.5363790000000  0.5334200000000 1.0
C      1  0.5678170000000  0.4829450000000  0.5461050000000 1.0
C      1  0.5724400000000  0.4441910000000  0.4925140000000 1.0
C      1  0.5107720000000  0.4389330000000  0.5643080000000 1.0
C      1  0.5090380000000  0.4235480000000  0.4641940000000 1.0
C      1  0.5072690000000  0.5164190000000  0.4144520000000 1.0
C      1  0.5097420000000  0.5843620000000  0.4865240000000 1.0
C      1  0.5111420000000  0.5456500000000  0.5773720000000 1.0
C      1  0.5125500000000  0.5117720000000  0.5567660000000 1.0
C      1  0.5097240000000  0.4516000000000  0.5220150000000 1.0
C      1  0.5154040000000  0.4625990000000  0.4669720000000 1.0
C      1  0.5159360000000  0.5258570000000  0.4522360000000 1.0
C      1  0.5186900000000  0.5541040000000  0.5127820000000 1.0
C      1  0.4712760000000  0.5530100000000  0.4313570000000 1.0
C      1  0.4734250000000  0.5796310000000  0.5305100000000 1.0
C      1  0.4724990000000  0.4943260000000  0.5833300000000 1.0
C      1  0.4785090000000  0.4031290000000  0.5388780000000 1.0
C      1  0.4672930000000  0.4558430000000  0.4295880000000 1.0
C      1  0.4546180000000  0.5518520000000  0.4566880000000 1.0
C      1  0.4578380000000  0.5533540000000  0.5368410000000 1.0
C      1  0.4570920000000  0.4817160000000  0.5563460000000 1.0
C      1  0.4582720000000  0.4278340000000  0.4846490000000 1.0
C      1  0.4518290000000  0.4797520000000  0.4404270000000 1.0
C      1  0.5505770000000  0.4217000000000  0.4680180000000 1.0
C      1  0.5558930000000  0.5225090000000  0.4175500000000 1.0
C      1  0.5595840000000  0.5870950000000  0.4958050000000 1.0
C      1  0.5594890000000  0.5463290000000  0.5699900000000 1.0
C      1  0.5519590000000  0.4405590000000  0.5595050000000 1.0
C      1  0.4765100000000  0.4983220000000  0.4961750000000 1.0
C      1  0.4433960000000  0.5066000000000  0.4981840000000 1.0
C      1  0.5111400000000  0.4981260000000  0.4989990000000 1.0
END
