TITL C-2782240-8521-488 -0.000229374559836083 125000 -709.600872500844 0 0 122 (C1) n - 1
REM
REM in /home/nfs/bkarasulu/CARBON/AIRSS/Generating-Clusters/REBO/Higher-Symm/SD-CG/HFTN-CG
REM
REM
REM
REM
REM
REM ./C.cell (12c818d87b63d06a65506943cc24bca4)
REM
REM compiler GCC version 9.2.1 20190827 (Red Hat 9.2.1-1)
REM options -cpp -mtune=generic -march=x86-64 -g -O0 -fpre-include=/usr/include/finclude/math-vector-fortran.h
REM seed -832130271 1536660674 1397406542 -1802368819 -1794198365 -1780492935 -964952858 187027651 2014861201 -377985435 -1228583630 1606654707 25850240 -1811398341 -404389347 -1015009718 -71551168 -125900149 1105554482 -1515830534 1693621599 -685335167 1168968423 -987940023 65494693 219086570 -11781127 -96859457 70656224 -1604331647 -1673750217 -936681070 -123988477
REM
CELL 1.54180   50.00000   50.00000   50.00000   90.00000   90.00000   90.00000
LATT -1
SFAC C  
C      1  0.4187250000000  0.4311480000000  0.5298940000000 1.0
C      1  0.4681090000000  0.4255130000000  0.5821240000000 1.0
C      1  0.5356930000000  0.4263110000000  0.5718760000000 1.0
C      1  0.5786060000000  0.4410820000000  0.5174720000000 1.0
C      1  0.5674190000000  0.4479390000000  0.4445500000000 1.0
C      1  0.4966970000000  0.4395410000000  0.4214150000000 1.0
C      1  0.4369430000000  0.4354210000000  0.4597260000000 1.0
C      1  0.5456240000000  0.5458330000000  0.4857820000000 1.0
C      1  0.5233990000000  0.5582070000000  0.4666280000000 1.0
C      1  0.4948660000000  0.5485800000000  0.4557770000000 1.0
C      1  0.4738180000000  0.5439200000000  0.4813110000000 1.0
C      1  0.4639140000000  0.5581700000000  0.5068060000000 1.0
C      1  0.4972060000000  0.5514290000000  0.5274050000000 1.0
C      1  0.5213610000000  0.5501220000000  0.5056650000000 1.0
C      1  0.5196350000000  0.5727790000000  0.4358920000000 1.0
C      1  0.4648880000000  0.5637080000000  0.4480600000000 1.0
C      1  0.4254940000000  0.5643020000000  0.4986280000000 1.0
C      1  0.4610070000000  0.5639370000000  0.5404440000000 1.0
C      1  0.5151520000000  0.5526650000000  0.5546250000000 1.0
C      1  0.5640990000000  0.5691070000000  0.5292260000000 1.0
C      1  0.5663690000000  0.5639840000000  0.4679370000000 1.0
C      1  0.5563480000000  0.4810580000000  0.5105370000000 1.0
C      1  0.5462600000000  0.4801130000000  0.4580720000000 1.0
C      1  0.4941310000000  0.4767440000000  0.4361520000000 1.0
C      1  0.4460900000000  0.4743460000000  0.4662290000000 1.0
C      1  0.4416290000000  0.4739340000000  0.5207880000000 1.0
C      1  0.4762210000000  0.4698660000000  0.5599500000000 1.0
C      1  0.5295430000000  0.4706070000000  0.5546840000000 1.0
C      1  0.4591700000000  0.4145310000000  0.5063290000000 1.0
C      1  0.4727390000000  0.4144300000000  0.5323590000000 1.0
C      1  0.5016910000000  0.4170900000000  0.5346910000000 1.0
C      1  0.5247810000000  0.4127130000000  0.5185090000000 1.0
C      1  0.5214240000000  0.3991610000000  0.4943440000000 1.0
C      1  0.4983140000000  0.3984970000000  0.4800620000000 1.0
C      1  0.4742030000000  0.4125000000000  0.4816510000000 1.0
C      1  0.5570030000000  0.5126100000000  0.5720790000000 1.0
C      1  0.5915870000000  0.5194650000000  0.5038000000000 1.0
C      1  0.5498420000000  0.5253410000000  0.4278290000000 1.0
C      1  0.4731930000000  0.5206910000000  0.4168110000000 1.0
C      1  0.4172260000000  0.5156500000000  0.4667230000000 1.0
C      1  0.4270280000000  0.5184780000000  0.5389390000000 1.0
C      1  0.4835140000000  0.5129410000000  0.5871580000000 1.0
C      1  0.4249710000000  0.4412910000000  0.4833630000000 1.0
C      1  0.4348030000000  0.4399830000000  0.5511970000000 1.0
C      1  0.4903050000000  0.4405830000000  0.5831320000000 1.0
C      1  0.5557940000000  0.4211990000000  0.5577120000000 1.0
C      1  0.5826830000000  0.4553610000000  0.4949090000000 1.0
C      1  0.5463870000000  0.4545600000000  0.4273530000000 1.0
C      1  0.4718060000000  0.4440670000000  0.4310850000000 1.0
C      1  0.4708150000000  0.4632280000000  0.4834930000000 1.0
C      1  0.4697410000000  0.4627430000000  0.5111910000000 1.0
C      1  0.4939920000000  0.4561540000000  0.5344050000000 1.0
C      1  0.5273700000000  0.4513640000000  0.5280910000000 1.0
C      1  0.5430200000000  0.4525390000000  0.4974370000000 1.0
C      1  0.5263620000000  0.4541640000000  0.4675880000000 1.0
C      1  0.4932280000000  0.4572690000000  0.4619400000000 1.0
C      1  0.5432690000000  0.5710740000000  0.5521260000000 1.0
C      1  0.5732550000000  0.5756740000000  0.4971070000000 1.0
C      1  0.5488710000000  0.5818280000000  0.4470030000000 1.0
C      1  0.4876890000000  0.5784750000000  0.4303190000000 1.0
C      1  0.4414820000000  0.5731920000000  0.4708890000000 1.0
C      1  0.4376170000000  0.5815960000000  0.5250800000000 1.0
C      1  0.4866780000000  0.5694030000000  0.5614360000000 1.0
C      1  0.5076710000000  0.4980880000000  0.5912070000000 1.0
C      1  0.5764350000000  0.5019310000000  0.5518420000000 1.0
C      1  0.5851180000000  0.5117880000000  0.4752650000000 1.0
C      1  0.5270480000000  0.5116200000000  0.4188890000000 1.0
C      1  0.4513180000000  0.5048140000000  0.4256560000000 1.0
C      1  0.4109720000000  0.5010650000000  0.4902090000000 1.0
C      1  0.4379040000000  0.5029100000000  0.5601210000000 1.0
C      1  0.4349460000000  0.5006960000000  0.4503520000000 1.0
C      1  0.4232020000000  0.5009180000000  0.5173690000000 1.0
C      1  0.4636140000000  0.4965280000000  0.5743010000000 1.0
C      1  0.5351680000000  0.4953720000000  0.5776390000000 1.0
C      1  0.5802760000000  0.5012230000000  0.5222970000000 1.0
C      1  0.5646560000000  0.5063880000000  0.4485620000000 1.0
C      1  0.4972270000000  0.5059060000000  0.4199450000000 1.0
C      1  0.4774340000000  0.5506860000000  0.4127400000000 1.0
C      1  0.4212090000000  0.5455900000000  0.4656430000000 1.0
C      1  0.4255720000000  0.5495020000000  0.5296280000000 1.0
C      1  0.4843930000000  0.5382700000000  0.5755170000000 1.0
C      1  0.5496230000000  0.5409620000000  0.5661550000000 1.0
C      1  0.5913690000000  0.5493760000000  0.5099540000000 1.0
C      1  0.5595090000000  0.5540860000000  0.4304330000000 1.0
C      1  0.4251670000000  0.4711710000000  0.4911530000000 1.0
C      1  0.4438130000000  0.4701150000000  0.5520450000000 1.0
C      1  0.5046690000000  0.4700000000000  0.5761550000000 1.0
C      1  0.5447290000000  0.4941210000000  0.5388720000000 1.0
C      1  0.5698410000000  0.4834830000000  0.4805310000000 1.0
C      1  0.5264510000000  0.4812800000000  0.4306110000000 1.0
C      1  0.4605490000000  0.4741570000000  0.4354450000000 1.0
C      1  0.5068590000000  0.5442640000000  0.4243780000000 1.0
C      1  0.4506790000000  0.5362790000000  0.4595710000000 1.0
C      1  0.4412000000000  0.5336890000000  0.5033380000000 1.0
C      1  0.4749080000000  0.5350750000000  0.5451530000000 1.0
C      1  0.5290020000000  0.5227600000000  0.5453920000000 1.0
C      1  0.5597660000000  0.5417030000000  0.5129300000000 1.0
C      1  0.5780080000000  0.5370700000000  0.4536330000000 1.0
C      1  0.4675380000000  0.4314910000000  0.4594530000000 1.0
C      1  0.4316240000000  0.4246700000000  0.5053870000000 1.0
C      1  0.4565340000000  0.4220110000000  0.5564070000000 1.0
C      1  0.5091220000000  0.4342780000000  0.5592070000000 1.0
C      1  0.5523290000000  0.4285150000000  0.5280180000000 1.0
C      1  0.5648570000000  0.4448540000000  0.4719610000000 1.0
C      1  0.5199190000000  0.4422770000000  0.4362920000000 1.0
C      1  0.4634510000000  0.5117840000000  0.5025730000000 1.0
C      1  0.4825120000000  0.5144750000000  0.5235530000000 1.0
C      1  0.5102860000000  0.5093820000000  0.5228100000000 1.0
C      1  0.5188470000000  0.4944240000000  0.5000530000000 1.0
C      1  0.5210080000000  0.5045100000000  0.4731340000000 1.0
C      1  0.4957180000000  0.5077030000000  0.4613920000000 1.0
C      1  0.4728820000000  0.5042350000000  0.4767610000000 1.0
C      1  0.5421030000000  0.5892240000000  0.4987940000000 1.0
C      1  0.5259480000000  0.5915160000000  0.4705650000000 1.0
C      1  0.4930100000000  0.5878690000000  0.4628110000000 1.0
C      1  0.4713840000000  0.5868020000000  0.4799200000000 1.0
C      1  0.4681340000000  0.5914120000000  0.5126360000000 1.0
C      1  0.4936000000000  0.5850060000000  0.5315980000000 1.0
C      1  0.5257320000000  0.5787650000000  0.5239210000000 1.0
C      1  0.5027100000000  0.4430140000000  0.4978420000000 1.0
C      1  0.5008990000000  0.5330840000000  0.4921010000000 1.0
C      1  0.5070220000000  0.4692990000000  0.4989950000000 1.0
END
