TITL C-2782237-5345-1030 -0.000135336719053827 125000 -522.982027130696 0 0 90 (C1) n - 1
REM
REM in /home/nfs/bkarasulu/CARBON/AIRSS/Generating-Clusters/REBO/Higher-Symm/SD-CG/HFTN-CG
REM
REM
REM
REM
REM
REM ./C.cell (12c818d87b63d06a65506943cc24bca4)
REM
REM compiler GCC version 9.2.1 20190827 (Red Hat 9.2.1-1)
REM options -cpp -mtune=generic -march=x86-64 -g -O0 -fpre-include=/usr/include/finclude/math-vector-fortran.h
REM seed 981377326 1605745903 -920286735 2039024376 -1706069945 -2142818046 1298719752 1359270294 1360639104 267844774 771577969 -995103985 -1539325729 550972931 2064426438 1013850178 61190351 1046062376 -2105826560 -1542078832 -2123636401 356666813 -1432597119 -1942879729 -459850525 -805274578 -1269325137 1591816779 -1520052701 -541454501 -726944640 1968123802 1597223853
REM
CELL 1.54180   50.00000   50.00000   50.00000   90.00000   90.00000   90.00000
LATT -1
SFAC C  
C      1  0.4755870000000  0.5206820000000  0.4990240000000 1.0
C      1  0.5278060000000  0.5189670000000  0.5156300000000 1.0
C      1  0.4743700000000  0.5034510000000  0.5263670000000 1.0
C      1  0.5258700000000  0.4868440000000  0.5163980000000 1.0
C      1  0.4743890000000  0.4801700000000  0.5038790000000 1.0
C      1  0.5267800000000  0.4784260000000  0.4849990000000 1.0
C      1  0.4737610000000  0.4963680000000  0.4760800000000 1.0
C      1  0.5260220000000  0.5108860000000  0.4844530000000 1.0
C      1  0.4587920000000  0.4848940000000  0.4508400000000 1.0
C      1  0.5378490000000  0.5225600000000  0.4571140000000 1.0
C      1  0.4652640000000  0.5478600000000  0.4832540000000 1.0
C      1  0.5415340000000  0.5453440000000  0.5259100000000 1.0
C      1  0.4583530000000  0.5142690000000  0.5507210000000 1.0
C      1  0.5380910000000  0.4754880000000  0.5437150000000 1.0
C      1  0.4613070000000  0.4525120000000  0.5134220000000 1.0
C      1  0.5422150000000  0.4535750000000  0.4741630000000 1.0
C      1  0.4455650000000  0.5060340000000  0.4308620000000 1.0
C      1  0.5523710000000  0.5509100000000  0.4578660000000 1.0
C      1  0.4480500000000  0.5653440000000  0.5052790000000 1.0
C      1  0.5537830000000  0.5429200000000  0.5551430000000 1.0
C      1  0.4460890000000  0.4915880000000  0.5692320000000 1.0
C      1  0.5525210000000  0.4470620000000  0.5423080000000 1.0
C      1  0.4473550000000  0.4331120000000  0.4923680000000 1.0
C      1  0.5535990000000  0.4570260000000  0.4447520000000 1.0
C      1  0.5260420000000  0.4348630000000  0.5052880000000 1.0
C      1  0.4731390000000  0.4483250000000  0.4562490000000 1.0
C      1  0.5265230000000  0.4946920000000  0.4331750000000 1.0
C      1  0.4719070000000  0.5401020000000  0.4536660000000 1.0
C      1  0.5273260000000  0.5656090000000  0.4947890000000 1.0
C      1  0.4734710000000  0.5501520000000  0.5425180000000 1.0
C      1  0.5273280000000  0.5056260000000  0.5676170000000 1.0
C      1  0.4736860000000  0.4579110000000  0.5504740000000 1.0
C      1  0.4280840000000  0.4692040000000  0.4719410000000 1.0
C      1  0.5711080000000  0.4976940000000  0.4592010000000 1.0
C      1  0.4257300000000  0.5256810000000  0.4681540000000 1.0
C      1  0.5716200000000  0.5401060000000  0.4981170000000 1.0
C      1  0.4288070000000  0.5287380000000  0.5259070000000 1.0
C      1  0.5711350000000  0.5020190000000  0.5409550000000 1.0
C      1  0.4292300000000  0.4723230000000  0.5299800000000 1.0
C      1  0.5707360000000  0.4594980000000  0.5018100000000 1.0
C      1  0.4996850000000  0.4494860000000  0.4357020000000 1.0
C      1  0.4989270000000  0.5098860000000  0.4203190000000 1.0
C      1  0.5012440000000  0.5665220000000  0.4481410000000 1.0
C      1  0.5012900000000  0.5803670000000  0.5100240000000 1.0
C      1  0.4992040000000  0.5502080000000  0.5645300000000 1.0
C      1  0.5005330000000  0.4902680000000  0.5812900000000 1.0
C      1  0.4992400000000  0.4362230000000  0.5501800000000 1.0
C      1  0.5006660000000  0.4194600000000  0.4900670000000 1.0
C      1  0.4986520000000  0.5725850000000  0.5380250000000 1.0
C      1  0.5013820000000  0.5247570000000  0.5785580000000 1.0
C      1  0.4983440000000  0.4626450000000  0.5727070000000 1.0
C      1  0.5015190000000  0.4222800000000  0.5247160000000 1.0
C      1  0.4987220000000  0.4266300000000  0.4618130000000 1.0
C      1  0.5013510000000  0.4751920000000  0.4220650000000 1.0
C      1  0.4957690000000  0.5378730000000  0.4300040000000 1.0
C      1  0.5022710000000  0.5774880000000  0.4754010000000 1.0
C      1  0.4463820000000  0.4687520000000  0.5520030000000 1.0
C      1  0.5531250000000  0.4417310000000  0.5143860000000 1.0
C      1  0.4461160000000  0.4479060000000  0.4682830000000 1.0
C      1  0.5540470000000  0.4851550000000  0.4404880000000 1.0
C      1  0.4437120000000  0.5294230000000  0.4466360000000 1.0
C      1  0.5540030000000  0.5577190000000  0.4852820000000 1.0
C      1  0.4469550000000  0.5497840000000  0.5292110000000 1.0
C      1  0.5543080000000  0.5147400000000  0.5597250000000 1.0
C      1  0.5035460000000  0.5046120000000  0.5441020000000 1.0
C      1  0.4993560000000  0.4731830000000  0.5340390000000 1.0
C      1  0.5000890000000  0.4570200000000  0.5050270000000 1.0
C      1  0.4979150000000  0.4650950000000  0.4724490000000 1.0
C      1  0.5022830000000  0.4945140000000  0.4570530000000 1.0
C      1  0.4994970000000  0.5257360000000  0.4677800000000 1.0
C      1  0.5024570000000  0.5424930000000  0.4962630000000 1.0
C      1  0.4996660000000  0.5339360000000  0.5280810000000 1.0
C      1  0.5841350000000  0.5206870000000  0.5188550000000 1.0
C      1  0.4158060000000  0.5007200000000  0.5276130000000 1.0
C      1  0.5833170000000  0.4811990000000  0.5208680000000 1.0
C      1  0.4163420000000  0.4711790000000  0.5013130000000 1.0
C      1  0.5837140000000  0.4787490000000  0.4812840000000 1.0
C      1  0.4138140000000  0.4968480000000  0.4712560000000 1.0
C      1  0.5839160000000  0.5182200000000  0.4792590000000 1.0
C      1  0.4149220000000  0.5265180000000  0.4975230000000 1.0
C      1  0.4740510000000  0.5791480000000  0.4917880000000 1.0
C      1  0.5269980000000  0.5622500000000  0.5511780000000 1.0
C      1  0.4727560000000  0.5083410000000  0.5805470000000 1.0
C      1  0.5265660000000  0.4499220000000  0.5622090000000 1.0
C      1  0.4733310000000  0.4213800000000  0.5083440000000 1.0
C      1  0.5273010000000  0.4370470000000  0.4489150000000 1.0
C      1  0.4725150000000  0.4904640000000  0.4206360000000 1.0
C      1  0.5260830000000  0.5477860000000  0.4384260000000 1.0
C      1  0.3959400000000  0.4983860000000  0.5001410000000 1.0
C      1  0.6030430000000  0.4994850000000  0.5001090000000 1.0
END
