TITL C-2782230-7391-1455 -0.000366792435707538 125000 -819.84546003888 0 0 141 (C1) n - 1
REM
REM in /home/nfs/bkarasulu/CARBON/AIRSS/Generating-Clusters/REBO/Higher-Symm/SD-CG/HFTN-CG
REM
REM
REM
REM
REM
REM ./C.cell (12c818d87b63d06a65506943cc24bca4)
REM
REM compiler GCC version 9.2.1 20190827 (Red Hat 9.2.1-1)
REM options -cpp -mtune=generic -march=x86-64 -g -O0 -fpre-include=/usr/include/finclude/math-vector-fortran.h
REM seed -695683716 1832919199 -2141085059 -790624740 -181678957 -2059977302 -1405421304 1619200565 -641012015 -1096539384 -1317398892 1557726966 -1726817655 1732594552 559685811 -1107312518 1660012131 -1134003016 814098588 2069927581 18132398 1605548076 -721996662 665884618 -1151510609 1520385520 -1963187731 -256170611 -349737101 1646657916 -319038288 487039637 2079721014
REM
CELL 1.54180   50.00000   50.00000   50.00000   90.00000   90.00000   90.00000
LATT -1
SFAC C  
C      1  0.4807540000000  0.5371970000000  0.5132030000000 1.0
C      1  0.4712020000000  0.4373640000000  0.4321310000000 1.0
C      1  0.4936450000000  0.5278760000000  0.5610800000000 1.0
C      1  0.5150710000000  0.4787160000000  0.5364530000000 1.0
C      1  0.4906520000000  0.4946980000000  0.4121140000000 1.0
C      1  0.4825050000000  0.5463470000000  0.4343880000000 1.0
C      1  0.4457040000000  0.4575150000000  0.5677120000000 1.0
C      1  0.5532770000000  0.5594500000000  0.5477020000000 1.0
C      1  0.4443670000000  0.4903040000000  0.4364690000000 1.0
C      1  0.4321290000000  0.5407390000000  0.5187640000000 1.0
C      1  0.4092560000000  0.5101770000000  0.5301900000000 1.0
C      1  0.4871370000000  0.4966090000000  0.4869050000000 1.0
C      1  0.4950280000000  0.5641180000000  0.5775060000000 1.0
C      1  0.4645380000000  0.5470400000000  0.5793090000000 1.0
C      1  0.4593870000000  0.5124770000000  0.5798020000000 1.0
C      1  0.4244320000000  0.5698480000000  0.5073500000000 1.0
C      1  0.4667160000000  0.4960090000000  0.4608060000000 1.0
C      1  0.5258660000000  0.5264870000000  0.4749820000000 1.0
C      1  0.5115060000000  0.5929240000000  0.5408030000000 1.0
C      1  0.5226530000000  0.5401010000000  0.5620970000000 1.0
C      1  0.5155320000000  0.4236310000000  0.5448350000000 1.0
C      1  0.4868230000000  0.4966400000000  0.5876130000000 1.0
C      1  0.4385820000000  0.5692220000000  0.4623310000000 1.0
C      1  0.4803370000000  0.5883530000000  0.4633850000000 1.0
C      1  0.4983840000000  0.4115250000000  0.5633700000000 1.0
C      1  0.4158620000000  0.5521090000000  0.4592770000000 1.0
C      1  0.5234520000000  0.5414420000000  0.4245070000000 1.0
C      1  0.5069900000000  0.4743720000000  0.4812600000000 1.0
C      1  0.4627460000000  0.5698010000000  0.4461830000000 1.0
C      1  0.5163630000000  0.5101670000000  0.4483840000000 1.0
C      1  0.4507630000000  0.5225530000000  0.5511810000000 1.0
C      1  0.5613160000000  0.5044070000000  0.4273010000000 1.0
C      1  0.4959790000000  0.5276070000000  0.4099830000000 1.0
C      1  0.5150580000000  0.5121510000000  0.5969410000000 1.0
C      1  0.5197240000000  0.4558680000000  0.5042780000000 1.0
C      1  0.5798960000000  0.5295510000000  0.4676970000000 1.0
C      1  0.3980790000000  0.5182000000000  0.5056710000000 1.0
C      1  0.4391110000000  0.5179690000000  0.4981360000000 1.0
C      1  0.5534820000000  0.5253970000000  0.4890520000000 1.0
C      1  0.5507320000000  0.4150930000000  0.5124790000000 1.0
C      1  0.4752040000000  0.4469890000000  0.5285890000000 1.0
C      1  0.5407630000000  0.4564030000000  0.4704690000000 1.0
C      1  0.4614970000000  0.4192430000000  0.5386860000000 1.0
C      1  0.5548670000000  0.4752750000000  0.4383050000000 1.0
C      1  0.4814260000000  0.4914030000000  0.5539510000000 1.0
C      1  0.5073550000000  0.4206770000000  0.4444670000000 1.0
C      1  0.5360110000000  0.4148730000000  0.4850040000000 1.0
C      1  0.4915860000000  0.5581550000000  0.5454940000000 1.0
C      1  0.4388890000000  0.4405870000000  0.5438440000000 1.0
C      1  0.4774280000000  0.4208410000000  0.5783400000000 1.0
C      1  0.5406930000000  0.5060420000000  0.5750600000000 1.0
C      1  0.5568300000000  0.4812540000000  0.5804620000000 1.0
C      1  0.5814570000000  0.4776070000000  0.4806740000000 1.0
C      1  0.5024070000000  0.5696700000000  0.4498170000000 1.0
C      1  0.5830630000000  0.4807440000000  0.5697320000000 1.0
C      1  0.4391860000000  0.4220620000000  0.4963500000000 1.0
C      1  0.5900830000000  0.5094810000000  0.4882310000000 1.0
C      1  0.5598350000000  0.5278370000000  0.5590860000000 1.0
C      1  0.4852450000000  0.4687970000000  0.4295660000000 1.0
C      1  0.5674830000000  0.5277320000000  0.4403440000000 1.0
C      1  0.5741980000000  0.5679650000000  0.4771190000000 1.0
C      1  0.4794790000000  0.4179520000000  0.4591640000000 1.0
C      1  0.5037570000000  0.4416300000000  0.4216640000000 1.0
C      1  0.5322370000000  0.5026820000000  0.4205330000000 1.0
C      1  0.4143890000000  0.4970570000000  0.4509720000000 1.0
C      1  0.5044720000000  0.4477970000000  0.5305060000000 1.0
C      1  0.4768310000000  0.5387130000000  0.4815370000000 1.0
C      1  0.4471970000000  0.4257050000000  0.4665800000000 1.0
C      1  0.4708500000000  0.5132180000000  0.5305950000000 1.0
C      1  0.5309410000000  0.4535710000000  0.4148390000000 1.0
C      1  0.4783650000000  0.4278790000000  0.4915500000000 1.0
C      1  0.5543240000000  0.4412830000000  0.4362710000000 1.0
C      1  0.4405950000000  0.4872410000000  0.5660830000000 1.0
C      1  0.5313190000000  0.5404240000000  0.5923120000000 1.0
C      1  0.5278100000000  0.5004670000000  0.5158330000000 1.0
C      1  0.5265820000000  0.6004160000000  0.5189100000000 1.0
C      1  0.4027430000000  0.4733160000000  0.4804220000000 1.0
C      1  0.5948900000000  0.4863000000000  0.5385220000000 1.0
C      1  0.4150840000000  0.5395200000000  0.4316190000000 1.0
C      1  0.5722760000000  0.5633630000000  0.5048210000000 1.0
C      1  0.4923740000000  0.4660660000000  0.5826700000000 1.0
C      1  0.4918390000000  0.5354580000000  0.5948520000000 1.0
C      1  0.5826610000000  0.5198600000000  0.5157410000000 1.0
C      1  0.4069560000000  0.5361350000000  0.4804640000000 1.0
C      1  0.4700880000000  0.4482400000000  0.5810220000000 1.0
C      1  0.5137100000000  0.5014320000000  0.5586410000000 1.0
C      1  0.5273140000000  0.5804390000000  0.4657930000000 1.0
C      1  0.5270360000000  0.4815370000000  0.4555170000000 1.0
C      1  0.4624040000000  0.4745340000000  0.5357280000000 1.0
C      1  0.5247650000000  0.5731580000000  0.5613190000000 1.0
C      1  0.5268240000000  0.4797930000000  0.4038790000000 1.0
C      1  0.5008590000000  0.5714250000000  0.5090340000000 1.0
C      1  0.5483800000000  0.4628880000000  0.5105080000000 1.0
C      1  0.5481020000000  0.5483530000000  0.4377730000000 1.0
C      1  0.4382620000000  0.5210180000000  0.4479970000000 1.0
C      1  0.5192600000000  0.5504860000000  0.5289020000000 1.0
C      1  0.5092350000000  0.4346360000000  0.4818090000000 1.0
C      1  0.4863640000000  0.5161590000000  0.4466250000000 1.0
C      1  0.5826230000000  0.5487040000000  0.5339070000000 1.0
C      1  0.4444440000000  0.5787140000000  0.4892110000000 1.0
C      1  0.5991560000000  0.4841390000000  0.5090540000000 1.0
C      1  0.5025430000000  0.4837520000000  0.3864430000000 1.0
C      1  0.4739320000000  0.5834120000000  0.4917860000000 1.0
C      1  0.4260020000000  0.4711480000000  0.5043040000000 1.0
C      1  0.5548890000000  0.4924540000000  0.4962040000000 1.0
C      1  0.5995560000000  0.5560060000000  0.4657090000000 1.0
C      1  0.5910290000000  0.5186830000000  0.5486930000000 1.0
C      1  0.5840200000000  0.4558430000000  0.5500860000000 1.0
C      1  0.4188890000000  0.5340430000000  0.5484910000000 1.0
C      1  0.4408690000000  0.4782940000000  0.4743400000000 1.0
C      1  0.5473190000000  0.5453980000000  0.5159520000000 1.0
C      1  0.5057110000000  0.5180980000000  0.4999210000000 1.0
C      1  0.5513480000000  0.5685850000000  0.4584220000000 1.0
C      1  0.5435420000000  0.4202200000000  0.5402970000000 1.0
C      1  0.4930410000000  0.4554200000000  0.4599270000000 1.0
C      1  0.4510410000000  0.5301900000000  0.4739320000000 1.0
C      1  0.5644710000000  0.4416960000000  0.4762390000000 1.0
C      1  0.5014240000000  0.5451280000000  0.4694190000000 1.0
C      1  0.4593220000000  0.5605510000000  0.5237500000000 1.0
C      1  0.4293990000000  0.4425400000000  0.5147730000000 1.0
C      1  0.5559810000000  0.5098480000000  0.5320470000000 1.0
C      1  0.4795320000000  0.5857420000000  0.5315100000000 1.0
C      1  0.4617670000000  0.4082040000000  0.5112730000000 1.0
C      1  0.5593290000000  0.4403030000000  0.5548110000000 1.0
C      1  0.5554630000000  0.4800190000000  0.5360910000000 1.0
C      1  0.3956440000000  0.5043950000000  0.4758820000000 1.0
C      1  0.4623290000000  0.4546720000000  0.4668930000000 1.0
C      1  0.4452170000000  0.5551380000000  0.5536180000000 1.0
C      1  0.4647920000000  0.4585580000000  0.4993040000000 1.0
C      1  0.5225510000000  0.5889770000000  0.4915390000000 1.0
C      1  0.5427220000000  0.4571000000000  0.5732240000000 1.0
C      1  0.5663980000000  0.4384470000000  0.5039690000000 1.0
C      1  0.4378660000000  0.4407420000000  0.4381090000000 1.0
C      1  0.4194820000000  0.4633580000000  0.4523990000000 1.0
C      1  0.5154250000000  0.4621730000000  0.5660480000000 1.0
C      1  0.4307190000000  0.4876210000000  0.5332370000000 1.0
C      1  0.4456150000000  0.4664030000000  0.4223300000000 1.0
C      1  0.5346460000000  0.4204050000000  0.4544860000000 1.0
C      1  0.4598860000000  0.4921980000000  0.5062760000000 1.0
C      1  0.5778680000000  0.4598100000000  0.4540530000000 1.0
C      1  0.4910840000000  0.5370270000000  0.3838120000000 1.0
END
