TITL C-2782237-5345-78 0.380952545782934 125000 -877.914558420566 0 0 155 (C1) n - 1
REM
REM in /home/nfs/bkarasulu/CARBON/AIRSS/Generating-Clusters/REBO/Higher-Symm/SD-CG/HFTN-CG
REM
REM
REM
REM
REM
REM ./C.cell (12c818d87b63d06a65506943cc24bca4)
REM
REM compiler GCC version 9.2.1 20190827 (Red Hat 9.2.1-1)
REM options -cpp -mtune=generic -march=x86-64 -g -O0 -fpre-include=/usr/include/finclude/math-vector-fortran.h
REM seed 1231082628 1879260667 -709260949 1087163015 1592204415 -1409102346 -645855862 1845511283 1715416741 -1047441074 1640041623 1010520941 -638771796 1791767252 -2119526572 124426586 1951349670 853330253 870527404 -236209501 1494873598 1574020282 -1358090955 1871241178 362094395 -1087193861 -1730354680 -291745607 -241692657 970028485 -801791783 1932477729 1673661658
REM
CELL 1.54180   50.00000   50.00000   50.00000   90.00000   90.00000   90.00000
LATT -1
SFAC C  
C      1  0.4699400000000  0.5535160000000  0.5009980000000 1.0
C      1  0.4977510000000  0.5437220000000  0.4730300000000 1.0
C      1  0.5227540000000  0.5454630000000  0.5187960000000 1.0
C      1  0.3924190000000  0.5201990000000  0.4767030000000 1.0
C      1  0.5719340000000  0.5147860000000  0.4185290000000 1.0
C      1  0.5380740000000  0.5151350000000  0.6041020000000 1.0
C      1  0.4937330000000  0.5003750000000  0.5857220000000 1.0
C      1  0.4367300000000  0.5110050000000  0.4531630000000 1.0
C      1  0.5775920000000  0.5026070000000  0.4680140000000 1.0
C      1  0.4472440000000  0.4022980000000  0.4889650000000 1.0
C      1  0.5259850000000  0.4020590000000  0.4574590000000 1.0
C      1  0.5202410000000  0.4006200000000  0.5422590000000 1.0
C      1  0.5046850000000  0.4385000000000  0.5506750000000 1.0
C      1  0.4539750000000  0.4411480000000  0.4825250000000 1.0
C      1  0.5363940000000  0.4418330000000  0.4696710000000 1.0
C      1  0.4354040000000  0.4295100000000  0.4459210000000 1.0
C      1  0.5703460000000  0.4212000000000  0.4739870000000 1.0
C      1  0.4882350000000  0.4150010000000  0.5783590000000 1.0
C      1  0.5421240000000  0.4574340000000  0.5792950000000 1.0
C      1  0.4095610000000  0.4614410000000  0.5023140000000 1.0
C      1  0.5521540000000  0.4590040000000  0.4242640000000 1.0
C      1  0.5637240000000  0.4798660000000  0.5379850000000 1.0
C      1  0.4431880000000  0.4760850000000  0.5392200000000 1.0
C      1  0.5034480000000  0.4778320000000  0.4314020000000 1.0
C      1  0.5084220000000  0.5481630000000  0.4442040000000 1.0
C      1  0.5448650000000  0.5479660000000  0.5395930000000 1.0
C      1  0.4409930000000  0.5555710000000  0.5084150000000 1.0
C      1  0.4665040000000  0.4176310000000  0.5576870000000 1.0
C      1  0.4641380000000  0.4273870000000  0.4376040000000 1.0
C      1  0.5641430000000  0.4207580000000  0.5037200000000 1.0
C      1  0.5348660000000  0.5664300000000  0.4315710000000 1.0
C      1  0.5402740000000  0.5692480000000  0.5660530000000 1.0
C      1  0.4169140000000  0.5738440000000  0.4926610000000 1.0
C      1  0.4470680000000  0.4940240000000  0.5969390000000 1.0
C      1  0.4488750000000  0.4957040000000  0.4073510000000 1.0
C      1  0.6056480000000  0.4981340000000  0.5060600000000 1.0
C      1  0.4726900000000  0.5356190000000  0.5929650000000 1.0
C      1  0.4433790000000  0.5410790000000  0.4276670000000 1.0
C      1  0.5901680000000  0.5379030000000  0.4820010000000 1.0
C      1  0.5629550000000  0.5622280000000  0.4459000000000 1.0
C      1  0.5125130000000  0.5618040000000  0.5773510000000 1.0
C      1  0.4123180000000  0.5670490000000  0.4627970000000 1.0
C      1  0.4387220000000  0.5952370000000  0.5076560000000 1.0
C      1  0.5159130000000  0.5872990000000  0.4465490000000 1.0
C      1  0.5401860000000  0.5893310000000  0.5408630000000 1.0
C      1  0.4517600000000  0.5125620000000  0.5115570000000 1.0
C      1  0.5222750000000  0.5084390000000  0.4578050000000 1.0
C      1  0.5232740000000  0.5048220000000  0.5392170000000 1.0
C      1  0.5649420000000  0.5158050000000  0.6026200000000 1.0
C      1  0.3946260000000  0.5129140000000  0.5003390000000 1.0
C      1  0.5555600000000  0.5138000000000  0.3970980000000 1.0
C      1  0.5195340000000  0.4235110000000  0.5244530000000 1.0
C      1  0.4634940000000  0.4197100000000  0.5064490000000 1.0
C      1  0.5081450000000  0.4240790000000  0.4629290000000 1.0
C      1  0.5284940000000  0.4625320000000  0.6061510000000 1.0
C      1  0.4073800000000  0.4795100000000  0.4794320000000 1.0
C      1  0.5821350000000  0.4627240000000  0.4275000000000 1.0
C      1  0.5657510000000  0.4542380000000  0.4822920000000 1.0
C      1  0.4837630000000  0.4489550000000  0.5752420000000 1.0
C      1  0.4494140000000  0.4606230000000  0.4541180000000 1.0
C      1  0.5695970000000  0.4908760000000  0.4398800000000 1.0
C      1  0.5234370000000  0.4908580000000  0.5897030000000 1.0
C      1  0.4358050000000  0.4861020000000  0.4721700000000 1.0
C      1  0.4347610000000  0.5481340000000  0.5609140000000 1.0
C      1  0.4810950000000  0.5429460000000  0.4093580000000 1.0
C      1  0.5795740000000  0.5518680000000  0.5201050000000 1.0
C      1  0.5149380000000  0.4285560000000  0.4145740000000 1.0
C      1  0.5672070000000  0.4327890000000  0.5612490000000 1.0
C      1  0.4152180000000  0.4316320000000  0.5276670000000 1.0
C      1  0.5729490000000  0.5687490000000  0.5427690000000 1.0
C      1  0.4272660000000  0.5611400000000  0.5388650000000 1.0
C      1  0.4976120000000  0.5663210000000  0.4172290000000 1.0
C      1  0.5361760000000  0.4358190000000  0.5032610000000 1.0
C      1  0.4779910000000  0.4298050000000  0.5304180000000 1.0
C      1  0.4811170000000  0.4365740000000  0.4622320000000 1.0
C      1  0.4876680000000  0.4620560000000  0.5260150000000 1.0
C      1  0.4831150000000  0.4666490000000  0.4747220000000 1.0
C      1  0.5263930000000  0.4676720000000  0.4959390000000 1.0
C      1  0.5759950000000  0.5208070000000  0.5781300000000 1.0
C      1  0.4190120000000  0.5160480000000  0.5206680000000 1.0
C      1  0.5284010000000  0.5162710000000  0.3996110000000 1.0
C      1  0.4753230000000  0.4917340000000  0.4671000000000 1.0
C      1  0.5314630000000  0.4969600000000  0.4885500000000 1.0
C      1  0.4920700000000  0.4903790000000  0.5370270000000 1.0
C      1  0.4559160000000  0.5188840000000  0.6088420000000 1.0
C      1  0.4397560000000  0.5234890000000  0.4050810000000 1.0
C      1  0.6120300000000  0.5220330000000  0.4910560000000 1.0
C      1  0.5112710000000  0.4907130000000  0.4007740000000 1.0
C      1  0.5838860000000  0.4966400000000  0.5604300000000 1.0
C      1  0.4161130000000  0.4955130000000  0.5441250000000 1.0
C      1  0.4293830000000  0.4992170000000  0.5752450000000 1.0
C      1  0.4774680000000  0.4938110000000  0.4039070000000 1.0
C      1  0.5934260000000  0.5054150000000  0.5309160000000 1.0
C      1  0.4877620000000  0.5580220000000  0.5981530000000 1.0
C      1  0.4266510000000  0.5624410000000  0.4370560000000 1.0
C      1  0.5896640000000  0.5597110000000  0.4651550000000 1.0
C      1  0.4273080000000  0.4148040000000  0.4689400000000 1.0
C      1  0.5548720000000  0.4104760000000  0.4532850000000 1.0
C      1  0.5138460000000  0.4056260000000  0.5713890000000 1.0
C      1  0.4366920000000  0.4832010000000  0.5062410000000 1.0
C      1  0.5360110000000  0.4855400000000  0.4387650000000 1.0
C      1  0.5378460000000  0.4849180000000  0.5594850000000 1.0
C      1  0.4786230000000  0.5851550000000  0.5389010000000 1.0
C      1  0.4724560000000  0.5902390000000  0.4688620000000 1.0
C      1  0.5395890000000  0.5857720000000  0.4914560000000 1.0
C      1  0.4932370000000  0.5117410000000  0.4497770000000 1.0
C      1  0.5452180000000  0.5127360000000  0.5144790000000 1.0
C      1  0.4647410000000  0.5107220000000  0.5402260000000 1.0
C      1  0.5410540000000  0.5680630000000  0.4707660000000 1.0
C      1  0.4962110000000  0.5605220000000  0.5474660000000 1.0
C      1  0.4508740000000  0.5728550000000  0.4716600000000 1.0
C      1  0.4123410000000  0.4639410000000  0.5340790000000 1.0
C      1  0.5228530000000  0.4602520000000  0.4107630000000 1.0
C      1  0.5719160000000  0.4653720000000  0.5668120000000 1.0
C      1  0.4899240000000  0.6051090000000  0.4469560000000 1.0
C      1  0.5524210000000  0.6059120000000  0.5145320000000 1.0
C      1  0.4494570000000  0.5995740000000  0.5382200000000 1.0
C      1  0.4690560000000  0.5838810000000  0.5081960000000 1.0
C      1  0.4997420000000  0.5756810000000  0.4715200000000 1.0
C      1  0.5272580000000  0.5756260000000  0.5168000000000 1.0
C      1  0.4726040000000  0.4432480000000  0.4134590000000 1.0
C      1  0.5812430000000  0.4364860000000  0.5187130000000 1.0
C      1  0.4466430000000  0.4346010000000  0.5667640000000 1.0
C      1  0.5404250000000  0.5347510000000  0.4639200000000 1.0
C      1  0.5108390000000  0.5299880000000  0.5536620000000 1.0
C      1  0.4458660000000  0.5465260000000  0.4682510000000 1.0
C      1  0.4652360000000  0.5278440000000  0.4501420000000 1.0
C      1  0.5605940000000  0.5241520000000  0.4861050000000 1.0
C      1  0.4815050000000  0.5224270000000  0.5648850000000 1.0
C      1  0.5380920000000  0.4338330000000  0.4365400000000 1.0
C      1  0.5345600000000  0.4303520000000  0.5648330000000 1.0
C      1  0.4235150000000  0.4336330000000  0.4958670000000 1.0
C      1  0.5145100000000  0.5262360000000  0.4930750000000 1.0
C      1  0.4902020000000  0.5405810000000  0.5212070000000 1.0
C      1  0.4749120000000  0.5231910000000  0.4886200000000 1.0
C      1  0.5656310000000  0.5461940000000  0.5668900000000 1.0
C      1  0.4087310000000  0.5478580000000  0.5136430000000 1.0
C      1  0.5208680000000  0.5412560000000  0.4130410000000 1.0
C      1  0.5701450000000  0.5296480000000  0.4477430000000 1.0
C      1  0.5133590000000  0.5292360000000  0.5877630000000 1.0
C      1  0.4151510000000  0.5331700000000  0.4616450000000 1.0
C      1  0.4420420000000  0.5213370000000  0.5598840000000 1.0
C      1  0.4879810000000  0.5173650000000  0.4190820000000 1.0
C      1  0.5732070000000  0.5246610000000  0.5237760000000 1.0
C      1  0.4770190000000  0.4649180000000  0.4344890000000 1.0
C      1  0.5725340000000  0.4667450000000  0.5138590000000 1.0
C      1  0.4562070000000  0.4646570000000  0.5621540000000 1.0
C      1  0.5847800000000  0.4143040000000  0.5555310000000 1.0
C      1  0.4119610000000  0.4108830000000  0.5431520000000 1.0
C      1  0.4993230000000  0.4102680000000  0.4053390000000 1.0
C      1  0.4388070000000  0.4852450000000  0.4323680000000 1.0
C      1  0.5862820000000  0.4808940000000  0.4873180000000 1.0
C      1  0.4729540000000  0.4783960000000  0.5876890000000 1.0
C      1  0.4936590000000  0.5092820000000  0.5128450000000 1.0
C      1  0.4975940000000  0.4647440000000  0.4989160000000 1.0
END
