TITL C-2782229-3092-271 0.00170673344174547 125000 -1139.62081361535 0 0 199 (C1) n - 1
REM
REM in /home/nfs/bkarasulu/CARBON/AIRSS/Generating-Clusters/REBO/Higher-Symm/SD-CG/HFTN-CG
REM
REM
REM
REM
REM
REM ./C.cell (12c818d87b63d06a65506943cc24bca4)
REM
REM compiler GCC version 9.2.1 20190827 (Red Hat 9.2.1-1)
REM options -cpp -mtune=generic -march=x86-64 -g -O0 -fpre-include=/usr/include/finclude/math-vector-fortran.h
REM seed 1807562689 -1756054362 459681605 1075539105 232057367 278102263 1598595537 1694951457 1077617400 -1211180719 2097505079 1003236590 638618340 56975975 -710012489 1970373738 717187887 206851779 -1491337002 -1676653789 -142521212 -1218356498 -509362904 -1460662663 1919536304 -1475006123 -1069749718 -340146792 914337211 -1922982662 -1940863702 1665146205 -1334742260
REM
CELL 1.54180   50.00000   50.00000   50.00000   90.00000   90.00000   90.00000
LATT -1
SFAC C  
C      1  0.5228360000000  0.5543460000000  0.5697960000000 1.0
C      1  0.5262400000000  0.4355190000000  0.5614660000000 1.0
C      1  0.5138860000000  0.4418990000000  0.4327930000000 1.0
C      1  0.5202790000000  0.5609630000000  0.4468750000000 1.0
C      1  0.4889160000000  0.5507330000000  0.5658130000000 1.0
C      1  0.4922830000000  0.4335260000000  0.5635750000000 1.0
C      1  0.4799840000000  0.4480320000000  0.4320310000000 1.0
C      1  0.4835400000000  0.5576430000000  0.4500370000000 1.0
C      1  0.5995310000000  0.4796120000000  0.5671870000000 1.0
C      1  0.5949100000000  0.4337220000000  0.4794160000000 1.0
C      1  0.5938170000000  0.5229600000000  0.4415080000000 1.0
C      1  0.5944700000000  0.5683680000000  0.5231950000000 1.0
C      1  0.4104260000000  0.4713500000000  0.5593020000000 1.0
C      1  0.4018040000000  0.4300580000000  0.4696120000000 1.0
C      1  0.4016980000000  0.5233250000000  0.4365290000000 1.0
C      1  0.4079500000000  0.5652080000000  0.5252680000000 1.0
C      1  0.3891200000000  0.5140140000000  0.4800660000000 1.0
C      1  0.3913130000000  0.5162090000000  0.5140850000000 1.0
C      1  0.3878500000000  0.4828680000000  0.5151640000000 1.0
C      1  0.3937070000000  0.4803150000000  0.4817080000000 1.0
C      1  0.6080910000000  0.5100420000000  0.4816060000000 1.0
C      1  0.6131270000000  0.5185640000000  0.5146650000000 1.0
C      1  0.6086590000000  0.4879690000000  0.5263870000000 1.0
C      1  0.6069020000000  0.4777640000000  0.4932720000000 1.0
C      1  0.5159820000000  0.4474770000000  0.4661620000000 1.0
C      1  0.5174960000000  0.5302120000000  0.4363690000000 1.0
C      1  0.5169070000000  0.5649460000000  0.5400940000000 1.0
C      1  0.5142250000000  0.4659160000000  0.5578290000000 1.0
C      1  0.4861630000000  0.4398670000000  0.4613290000000 1.0
C      1  0.4883220000000  0.5259990000000  0.4482830000000 1.0
C      1  0.4866570000000  0.5733060000000  0.5400140000000 1.0
C      1  0.4833990000000  0.4664170000000  0.5651730000000 1.0
C      1  0.4448010000000  0.4664240000000  0.5197240000000 1.0
C      1  0.4367060000000  0.4686850000000  0.4627350000000 1.0
C      1  0.4400180000000  0.5341750000000  0.4754980000000 1.0
C      1  0.4451640000000  0.5368710000000  0.5305180000000 1.0
C      1  0.5617050000000  0.4624660000000  0.5382510000000 1.0
C      1  0.5569210000000  0.4683230000000  0.4703160000000 1.0
C      1  0.5594370000000  0.5439300000000  0.4882370000000 1.0
C      1  0.5609730000000  0.5331220000000  0.5394220000000 1.0
C      1  0.5256760000000  0.3933850000000  0.5339310000000 1.0
C      1  0.5331810000000  0.4577400000000  0.4016180000000 1.0
C      1  0.5304660000000  0.6033600000000  0.4662440000000 1.0
C      1  0.5308770000000  0.5270320000000  0.6059010000000 1.0
C      1  0.4694850000000  0.4000530000000  0.5310560000000 1.0
C      1  0.4653880000000  0.4621800000000  0.3975970000000 1.0
C      1  0.4729610000000  0.6024020000000  0.4658560000000 1.0
C      1  0.4690410000000  0.5409260000000  0.5985470000000 1.0
C      1  0.5546600000000  0.4931760000000  0.6011950000000 1.0
C      1  0.5462740000000  0.4011560000000  0.4892170000000 1.0
C      1  0.5433950000000  0.5005430000000  0.3819630000000 1.0
C      1  0.5425360000000  0.6115000000000  0.5103780000000 1.0
C      1  0.4537830000000  0.4875720000000  0.5989430000000 1.0
C      1  0.4530220000000  0.3961810000000  0.4779540000000 1.0
C      1  0.4393180000000  0.5091140000000  0.3946320000000 1.0
C      1  0.4522030000000  0.6069930000000  0.5147120000000 1.0
C      1  0.5285370000000  0.4915510000000  0.5709350000000 1.0
C      1  0.5280520000000  0.4287090000000  0.4987650000000 1.0
C      1  0.5268060000000  0.4988740000000  0.4288240000000 1.0
C      1  0.5298610000000  0.5716880000000  0.5091740000000 1.0
C      1  0.4737270000000  0.4970340000000  0.5619790000000 1.0
C      1  0.4673280000000  0.4262650000000  0.4842540000000 1.0
C      1  0.4723670000000  0.4997970000000  0.4345990000000 1.0
C      1  0.4746120000000  0.5749020000000  0.5088110000000 1.0
C      1  0.5691370000000  0.5359090000000  0.4227000000000 1.0
C      1  0.5760070000000  0.5864220000000  0.5447450000000 1.0
C      1  0.5859370000000  0.4522480000000  0.5764760000000 1.0
C      1  0.5861340000000  0.4284870000000  0.4493120000000 1.0
C      1  0.4224090000000  0.5464120000000  0.4322670000000 1.0
C      1  0.4195590000000  0.5669300000000  0.5551770000000 1.0
C      1  0.4346850000000  0.4501480000000  0.5705700000000 1.0
C      1  0.4105460000000  0.4279130000000  0.4392760000000 1.0
C      1  0.5186870000000  0.3969710000000  0.4714030000000 1.0
C      1  0.5181050000000  0.5216400000000  0.3859410000000 1.0
C      1  0.5138470000000  0.6072390000000  0.5285570000000 1.0
C      1  0.5343910000000  0.4714380000000  0.6050090000000 1.0
C      1  0.4850550000000  0.3955840000000  0.4660220000000 1.0
C      1  0.4635800000000  0.5264810000000  0.3972240000000 1.0
C      1  0.4792330000000  0.6106940000000  0.5259220000000 1.0
C      1  0.4773200000000  0.4694050000000  0.6044390000000 1.0
C      1  0.4454880000000  0.4050810000000  0.5101360000000 1.0
C      1  0.4378330000000  0.4783500000000  0.4054800000000 1.0
C      1  0.4486050000000  0.5924780000000  0.4841270000000 1.0
C      1  0.4472240000000  0.5178260000000  0.5883230000000 1.0
C      1  0.5521280000000  0.4073430000000  0.5223470000000 1.0
C      1  0.5540760000000  0.4766300000000  0.3929920000000 1.0
C      1  0.5547950000000  0.5939880000000  0.4856600000000 1.0
C      1  0.5599340000000  0.5249040000000  0.5932250000000 1.0
C      1  0.6054100000000  0.5608680000000  0.4918140000000 1.0
C      1  0.6029730000000  0.5127870000000  0.5602240000000 1.0
C      1  0.5942880000000  0.4399560000000  0.5127790000000 1.0
C      1  0.5937520000000  0.4919690000000  0.4441100000000 1.0
C      1  0.4057520000000  0.5637160000000  0.4911120000000 1.0
C      1  0.4101920000000  0.5037740000000  0.5519770000000 1.0
C      1  0.4081400000000  0.4396390000000  0.5013380000000 1.0
C      1  0.4003730000000  0.4907670000000  0.4437690000000 1.0
C      1  0.4414200000000  0.4250830000000  0.4333180000000 1.0
C      1  0.4486680000000  0.5377730000000  0.4207620000000 1.0
C      1  0.4473210000000  0.5795960000000  0.5593910000000 1.0
C      1  0.4594650000000  0.4518660000000  0.5824200000000 1.0
C      1  0.5561300000000  0.4230430000000  0.4423490000000 1.0
C      1  0.5492700000000  0.5304230000000  0.3966960000000 1.0
C      1  0.5443430000000  0.5948430000000  0.5381240000000 1.0
C      1  0.5595640000000  0.4551480000000  0.5911240000000 1.0
C      1  0.4684590000000  0.4860500000000  0.5123370000000 1.0
C      1  0.4553140000000  0.4821730000000  0.4821170000000 1.0
C      1  0.4599790000000  0.5123760000000  0.4835380000000 1.0
C      1  0.4662830000000  0.5190700000000  0.5135830000000 1.0
C      1  0.5426920000000  0.4812630000000  0.5234720000000 1.0
C      1  0.5437690000000  0.4863260000000  0.4928640000000 1.0
C      1  0.5446130000000  0.5176280000000  0.4910930000000 1.0
C      1  0.5439560000000  0.5118700000000  0.5233370000000 1.0
C      1  0.4252520000000  0.5873810000000  0.5061340000000 1.0
C      1  0.4264410000000  0.4936650000000  0.5794970000000 1.0
C      1  0.4240790000000  0.4127230000000  0.4873910000000 1.0
C      1  0.4131230000000  0.5000130000000  0.4143610000000 1.0
C      1  0.5740580000000  0.5722470000000  0.4960410000000 1.0
C      1  0.5837540000000  0.5028890000000  0.5863020000000 1.0
C      1  0.5758060000000  0.4145510000000  0.4999030000000 1.0
C      1  0.5754730000000  0.4818590000000  0.4172210000000 1.0
C      1  0.5841950000000  0.4332980000000  0.5533440000000 1.0
C      1  0.5762880000000  0.4571140000000  0.4375070000000 1.0
C      1  0.5749460000000  0.5500660000000  0.4520310000000 1.0
C      1  0.5835580000000  0.5583790000000  0.5599710000000 1.0
C      1  0.4271000000000  0.4394870000000  0.5430880000000 1.0
C      1  0.4171240000000  0.4574350000000  0.4298550000000 1.0
C      1  0.4239280000000  0.5645970000000  0.4558350000000 1.0
C      1  0.4251210000000  0.5382050000000  0.5647090000000 1.0
C      1  0.5781770000000  0.4687590000000  0.5103050000000 1.0
C      1  0.5774150000000  0.4953110000000  0.4734490000000 1.0
C      1  0.5859580000000  0.5348790000000  0.5034940000000 1.0
C      1  0.5815540000000  0.5079530000000  0.5362570000000 1.0
C      1  0.4215010000000  0.4700600000000  0.4996060000000 1.0
C      1  0.4247930000000  0.4993140000000  0.4631860000000 1.0
C      1  0.4165600000000  0.5345690000000  0.4995410000000 1.0
C      1  0.4301630000000  0.5090650000000  0.5269070000000 1.0
C      1  0.4459660000000  0.5173870000000  0.4464710000000 1.0
C      1  0.4491120000000  0.5678800000000  0.5286480000000 1.0
C      1  0.4473180000000  0.4880650000000  0.5458760000000 1.0
C      1  0.4431320000000  0.4372900000000  0.4626030000000 1.0
C      1  0.5548950000000  0.5061500000000  0.4198000000000 1.0
C      1  0.5553770000000  0.5632530000000  0.5301990000000 1.0
C      1  0.5531070000000  0.4728980000000  0.5667890000000 1.0
C      1  0.5456990000000  0.4361120000000  0.4703710000000 1.0
C      1  0.5151920000000  0.4721500000000  0.5283800000000 1.0
C      1  0.5186760000000  0.4737150000000  0.4804420000000 1.0
C      1  0.5259880000000  0.5283820000000  0.4689820000000 1.0
C      1  0.5236280000000  0.5360900000000  0.5257720000000 1.0
C      1  0.4969690000000  0.4944830000000  0.5203590000000 1.0
C      1  0.4801560000000  0.4639990000000  0.4811380000000 1.0
C      1  0.4879520000000  0.5225070000000  0.4791680000000 1.0
C      1  0.4845010000000  0.5415010000000  0.5277640000000 1.0
C      1  0.4005320000000  0.4562980000000  0.5303710000000 1.0
C      1  0.3955730000000  0.4606960000000  0.4561620000000 1.0
C      1  0.3993330000000  0.5426050000000  0.4647110000000 1.0
C      1  0.4024240000000  0.5346830000000  0.5393650000000 1.0
C      1  0.6025170000000  0.4586880000000  0.5402290000000 1.0
C      1  0.5985570000000  0.4635900000000  0.4631820000000 1.0
C      1  0.6034590000000  0.5400610000000  0.4680750000000 1.0
C      1  0.6043070000000  0.5402430000000  0.5397910000000 1.0
C      1  0.5135250000000  0.5086720000000  0.5931210000000 1.0
C      1  0.5123450000000  0.4043990000000  0.5100260000000 1.0
C      1  0.5125490000000  0.4771440000000  0.4122520000000 1.0
C      1  0.5151710000000  0.5927800000000  0.4898990000000 1.0
C      1  0.4868640000000  0.5155130000000  0.5870030000000 1.0
C      1  0.4850940000000  0.4058480000000  0.5060150000000 1.0
C      1  0.4846600000000  0.4812040000000  0.4105360000000 1.0
C      1  0.4879090000000  0.5949670000000  0.4904460000000 1.0
C      1  0.5552460000000  0.5439190000000  0.5698540000000 1.0
C      1  0.5541660000000  0.4303980000000  0.5430530000000 1.0
C      1  0.5424350000000  0.4617320000000  0.4401640000000 1.0
C      1  0.5486580000000  0.5666160000000  0.4653750000000 1.0
C      1  0.4591270000000  0.5342550000000  0.5608770000000 1.0
C      1  0.4508910000000  0.4343770000000  0.5228180000000 1.0
C      1  0.4500210000000  0.4641430000000  0.4339260000000 1.0
C      1  0.4547610000000  0.5638550000000  0.4674530000000 1.0
C      1  0.4645250000000  0.5683160000000  0.5806690000000 1.0
C      1  0.4781750000000  0.4125510000000  0.5543890000000 1.0
C      1  0.4599350000000  0.4333720000000  0.4107020000000 1.0
C      1  0.4788840000000  0.5873210000000  0.4437780000000 1.0
C      1  0.5220070000000  0.5538450000000  0.6025280000000 1.0
C      1  0.5184630000000  0.4037230000000  0.5584370000000 1.0
C      1  0.5418920000000  0.4302040000000  0.4162580000000 1.0
C      1  0.5257780000000  0.5904120000000  0.4427990000000 1.0
C      1  0.5167380000000  0.5459930000000  0.4939700000000 1.0
C      1  0.5218120000000  0.5190270000000  0.5554620000000 1.0
C      1  0.5097730000000  0.4526870000000  0.5053220000000 1.0
C      1  0.5172620000000  0.4978550000000  0.4594320000000 1.0
C      1  0.4852690000000  0.5489160000000  0.4949680000000 1.0
C      1  0.4932770000000  0.5150910000000  0.5427960000000 1.0
C      1  0.4782830000000  0.4474440000000  0.5090070000000 1.0
C      1  0.4877380000000  0.4876740000000  0.4596900000000 1.0
C      1  0.5059300000000  0.4697280000000  0.6074180000000 1.0
C      1  0.5071010000000  0.4104150000000  0.4447620000000 1.0
C      1  0.4908300000000  0.5250440000000  0.3897600000000 1.0
C      1  0.4920140000000  0.6081610000000  0.5546860000000 1.0
C      1  0.5780130000000  0.5018680000000  0.5054880000000 1.0
C      1  0.4236060000000  0.5022700000000  0.4957140000000 1.0
C      1  0.5058650000000  0.5076680000000  0.4964090000000 1.0
END
