TITL C-2782229-3092-3 -0.00458117388505991 125000 -1115.11909682668 0 0 190 (C1) n - 1
REM
REM in /home/nfs/bkarasulu/CARBON/AIRSS/Generating-Clusters/REBO/Higher-Symm/SD-CG/HFTN-CG
REM
REM
REM
REM
REM
REM ./C.cell (12c818d87b63d06a65506943cc24bca4)
REM
REM compiler GCC version 9.2.1 20190827 (Red Hat 9.2.1-1)
REM options -cpp -mtune=generic -march=x86-64 -g -O0 -fpre-include=/usr/include/finclude/math-vector-fortran.h
REM seed -161784230 1402416544 1964959946 930873344 -1375615251 -700779966 -580792016 -1674334169 480191222 -1737219298 -1886632465 -979842647 -1102308832 -809183181 -1561351190 296039220 331524757 825284652 -572335768 -572835 899550724 -857219263 -963432471 1686889105 309807835 -1435447297 -73309559 1315412869 -463383643 -290506361 -767960752 229272721 -158549789
REM
CELL 1.54180   50.00000   50.00000   50.00000   90.00000   90.00000   90.00000
LATT -1
SFAC C  
C      1  0.5030110000000  0.4817990000000  0.5586280000000 1.0
C      1  0.5527590000000  0.4809360000000  0.4619570000000 1.0
C      1  0.4406670000000  0.4752410000000  0.4779160000000 1.0
C      1  0.5014510000000  0.5148260000000  0.5605760000000 1.0
C      1  0.5518270000000  0.5149890000000  0.4664400000000 1.0
C      1  0.4362290000000  0.5085170000000  0.4719230000000 1.0
C      1  0.5428220000000  0.4001770000000  0.5031370000000 1.0
C      1  0.4880190000000  0.4000160000000  0.4572280000000 1.0
C      1  0.4737110000000  0.3940170000000  0.5309160000000 1.0
C      1  0.5491540000000  0.6059030000000  0.5068770000000 1.0
C      1  0.4924750000000  0.6029500000000  0.4604060000000 1.0
C      1  0.4757710000000  0.6040890000000  0.5301030000000 1.0
C      1  0.5662580000000  0.5770970000000  0.4701600000000 1.0
C      1  0.4440160000000  0.5907560000000  0.4675840000000 1.0
C      1  0.5032860000000  0.5885190000000  0.5680860000000 1.0
C      1  0.5658210000000  0.4191300000000  0.4617290000000 1.0
C      1  0.4415100000000  0.4097740000000  0.4638960000000 1.0
C      1  0.5005260000000  0.4146160000000  0.5643230000000 1.0
C      1  0.4110470000000  0.4844260000000  0.5627830000000 1.0
C      1  0.5910310000000  0.4840250000000  0.5488430000000 1.0
C      1  0.4893790000000  0.4823660000000  0.3810420000000 1.0
C      1  0.4118790000000  0.5190800000000  0.5600770000000 1.0
C      1  0.5921830000000  0.5185990000000  0.5504230000000 1.0
C      1  0.4873520000000  0.5150660000000  0.3914410000000 1.0
C      1  0.4884890000000  0.5659390000000  0.5892460000000 1.0
C      1  0.5924660000000  0.5649240000000  0.4816930000000 1.0
C      1  0.4300030000000  0.5665340000000  0.4478180000000 1.0
C      1  0.4953080000000  0.4348150000000  0.5918540000000 1.0
C      1  0.5956810000000  0.4365780000000  0.4686540000000 1.0
C      1  0.4258480000000  0.4387110000000  0.4549950000000 1.0
C      1  0.5873790000000  0.4432120000000  0.4386440000000 1.0
C      1  0.4083860000000  0.4429270000000  0.4845880000000 1.0
C      1  0.5277060000000  0.4453730000000  0.5937880000000 1.0
C      1  0.5597760000000  0.5512230000000  0.4239600000000 1.0
C      1  0.4110670000000  0.5561270000000  0.4762480000000 1.0
C      1  0.5221180000000  0.5596670000000  0.5879330000000 1.0
C      1  0.4697120000000  0.4053970000000  0.5043880000000 1.0
C      1  0.5189600000000  0.4072260000000  0.5181620000000 1.0
C      1  0.5135660000000  0.4130490000000  0.4676530000000 1.0
C      1  0.4771610000000  0.5913980000000  0.5045230000000 1.0
C      1  0.5230880000000  0.6037110000000  0.5239240000000 1.0
C      1  0.5171070000000  0.5916440000000  0.4715030000000 1.0
C      1  0.4405590000000  0.5436170000000  0.5732040000000 1.0
C      1  0.6008460000000  0.5508420000000  0.5285070000000 1.0
C      1  0.4624180000000  0.5455720000000  0.4093280000000 1.0
C      1  0.4430660000000  0.4464870000000  0.5768480000000 1.0
C      1  0.5944030000000  0.4583760000000  0.5186980000000 1.0
C      1  0.4554450000000  0.4578330000000  0.4131640000000 1.0
C      1  0.4577840000000  0.5719620000000  0.5753030000000 1.0
C      1  0.5947100000000  0.5721580000000  0.5095600000000 1.0
C      1  0.4553730000000  0.5721490000000  0.4253940000000 1.0
C      1  0.4652460000000  0.4211980000000  0.5826190000000 1.0
C      1  0.5946510000000  0.4308790000000  0.5022070000000 1.0
C      1  0.4527590000000  0.4335480000000  0.4339980000000 1.0
C      1  0.4099880000000  0.5192920000000  0.4428530000000 1.0
C      1  0.4845430000000  0.5124330000000  0.6079130000000 1.0
C      1  0.5913520000000  0.5168100000000  0.4526650000000 1.0
C      1  0.4091560000000  0.4906310000000  0.4409690000000 1.0
C      1  0.4889990000000  0.4840560000000  0.6073230000000 1.0
C      1  0.5947410000000  0.4871150000000  0.4570550000000 1.0
C      1  0.5284650000000  0.4511310000000  0.4972590000000 1.0
C      1  0.4905080000000  0.4695760000000  0.4802850000000 1.0
C      1  0.4887160000000  0.4759920000000  0.5218500000000 1.0
C      1  0.5210740000000  0.5243460000000  0.4991750000000 1.0
C      1  0.4865500000000  0.5238550000000  0.4790630000000 1.0
C      1  0.4848550000000  0.5433740000000  0.5211530000000 1.0
C      1  0.4734430000000  0.4863780000000  0.5707520000000 1.0
C      1  0.5698300000000  0.4865310000000  0.4879080000000 1.0
C      1  0.4505100000000  0.4793890000000  0.4485930000000 1.0
C      1  0.4719690000000  0.5186330000000  0.5704820000000 1.0
C      1  0.5764530000000  0.5184010000000  0.4896760000000 1.0
C      1  0.4483580000000  0.5092760000000  0.4405730000000 1.0
C      1  0.4782610000000  0.4393410000000  0.5565530000000 1.0
C      1  0.5630530000000  0.4327220000000  0.4906270000000 1.0
C      1  0.4656790000000  0.4341890000000  0.4651820000000 1.0
C      1  0.4812660000000  0.5702190000000  0.5504680000000 1.0
C      1  0.5481940000000  0.5651160000000  0.4964080000000 1.0
C      1  0.4684510000000  0.5702840000000  0.4564860000000 1.0
C      1  0.5547360000000  0.4481290000000  0.5192620000000 1.0
C      1  0.4784650000000  0.4691780000000  0.4474800000000 1.0
C      1  0.4636280000000  0.4624290000000  0.5405190000000 1.0
C      1  0.5483060000000  0.5380090000000  0.5153960000000 1.0
C      1  0.4796270000000  0.5405130000000  0.4520310000000 1.0
C      1  0.4558780000000  0.5513250000000  0.5372120000000 1.0
C      1  0.5079700000000  0.4318290000000  0.5076010000000 1.0
C      1  0.4951890000000  0.4371540000000  0.4701350000000 1.0
C      1  0.4802090000000  0.4330380000000  0.5067170000000 1.0
C      1  0.5281820000000  0.5740620000000  0.5187720000000 1.0
C      1  0.5108170000000  0.5652610000000  0.4828670000000 1.0
C      1  0.4914090000000  0.5661000000000  0.5025130000000 1.0
C      1  0.5262840000000  0.5062830000000  0.5249300000000 1.0
C      1  0.5082060000000  0.5134990000000  0.4583260000000 1.0
C      1  0.4648700000000  0.5217410000000  0.5121310000000 1.0
C      1  0.5277470000000  0.4769990000000  0.5152260000000 1.0
C      1  0.5132580000000  0.4837450000000  0.4605520000000 1.0
C      1  0.4621410000000  0.4911750000000  0.5133370000000 1.0
C      1  0.5550190000000  0.4795390000000  0.5324390000000 1.0
C      1  0.5021320000000  0.4861130000000  0.4299430000000 1.0
C      1  0.4399930000000  0.4865410000000  0.5355020000000 1.0
C      1  0.5550640000000  0.5128010000000  0.5370540000000 1.0
C      1  0.4944670000000  0.5189860000000  0.4302720000000 1.0
C      1  0.4415500000000  0.5204520000000  0.5333720000000 1.0
C      1  0.4274960000000  0.4638240000000  0.4320500000000 1.0
C      1  0.4716300000000  0.4593350000000  0.5915050000000 1.0
C      1  0.5965390000000  0.4666410000000  0.4848450000000 1.0
C      1  0.4349500000000  0.5383340000000  0.4293570000000 1.0
C      1  0.4683410000000  0.5391080000000  0.5940750000000 1.0
C      1  0.5967580000000  0.5381570000000  0.4742310000000 1.0
C      1  0.4409520000000  0.4779640000000  0.5744840000000 1.0
C      1  0.5892600000000  0.4909280000000  0.5155880000000 1.0
C      1  0.4615640000000  0.4851290000000  0.3972850000000 1.0
C      1  0.4407830000000  0.5094820000000  0.5718200000000 1.0
C      1  0.5958110000000  0.5219710000000  0.5167790000000 1.0
C      1  0.4597690000000  0.5128760000000  0.4114340000000 1.0
C      1  0.4706990000000  0.6030270000000  0.4791150000000 1.0
C      1  0.5010420000000  0.6067390000000  0.5420830000000 1.0
C      1  0.5442760000000  0.6002990000000  0.4786200000000 1.0
C      1  0.4667940000000  0.3961860000000  0.4769130000000 1.0
C      1  0.5015840000000  0.3968880000000  0.5392170000000 1.0
C      1  0.5396270000000  0.4046480000000  0.4751010000000 1.0
C      1  0.4038140000000  0.4695580000000  0.4637010000000 1.0
C      1  0.5166110000000  0.4743680000000  0.6012460000000 1.0
C      1  0.5827710000000  0.4707580000000  0.4361170000000 1.0
C      1  0.4026860000000  0.5304330000000  0.4683070000000 1.0
C      1  0.5069440000000  0.5327960000000  0.6022940000000 1.0
C      1  0.5712090000000  0.5265250000000  0.4335510000000 1.0
C      1  0.5648150000000  0.4245540000000  0.5421200000000 1.0
C      1  0.4919120000000  0.4446580000000  0.4310030000000 1.0
C      1  0.4432120000000  0.4352840000000  0.5385970000000 1.0
C      1  0.5635800000000  0.5631080000000  0.5328810000000 1.0
C      1  0.4957810000000  0.5590010000000  0.4298570000000 1.0
C      1  0.4320600000000  0.5766490000000  0.5361830000000 1.0
C      1  0.4126370000000  0.4794780000000  0.5232820000000 1.0
C      1  0.5547240000000  0.4805690000000  0.5651490000000 1.0
C      1  0.5260020000000  0.4759730000000  0.4115860000000 1.0
C      1  0.4101600000000  0.5200800000000  0.5202510000000 1.0
C      1  0.5556850000000  0.5204110000000  0.5666880000000 1.0
C      1  0.5230140000000  0.5168900000000  0.4152430000000 1.0
C      1  0.5267260000000  0.5206580000000  0.5809990000000 1.0
C      1  0.5459750000000  0.5077750000000  0.4333500000000 1.0
C      1  0.4079730000000  0.5114730000000  0.4912780000000 1.0
C      1  0.5281270000000  0.4900200000000  0.5769540000000 1.0
C      1  0.5533170000000  0.4780570000000  0.4279110000000 1.0
C      1  0.4125190000000  0.4817670000000  0.4921520000000 1.0
C      1  0.4543980000000  0.5923080000000  0.5496300000000 1.0
C      1  0.5715900000000  0.5910830000000  0.5173830000000 1.0
C      1  0.4836690000000  0.5898970000000  0.4325180000000 1.0
C      1  0.4581600000000  0.4105530000000  0.5513730000000 1.0
C      1  0.5703400000000  0.4109100000000  0.5151920000000 1.0
C      1  0.4794480000000  0.4142280000000  0.4336730000000 1.0
C      1  0.5199000000000  0.4464470000000  0.4017620000000 1.0
C      1  0.4115200000000  0.4486520000000  0.5184720000000 1.0
C      1  0.5519850000000  0.4497020000000  0.5698970000000 1.0
C      1  0.5286070000000  0.5474650000000  0.4103500000000 1.0
C      1  0.4173080000000  0.5501670000000  0.5132520000000 1.0
C      1  0.5482920000000  0.5512910000000  0.5675590000000 1.0
C      1  0.5080440000000  0.5322890000000  0.5361260000000 1.0
C      1  0.5272640000000  0.5388120000000  0.4689110000000 1.0
C      1  0.4551380000000  0.5296880000000  0.4834510000000 1.0
C      1  0.5123970000000  0.4609260000000  0.5382290000000 1.0
C      1  0.5307670000000  0.4577370000000  0.4677840000000 1.0
C      1  0.4619100000000  0.4605210000000  0.4967370000000 1.0
C      1  0.5215240000000  0.4424440000000  0.4411670000000 1.0
C      1  0.4403850000000  0.4361980000000  0.5072780000000 1.0
C      1  0.5295630000000  0.4418550000000  0.5497050000000 1.0
C      1  0.5250260000000  0.5594470000000  0.4417590000000 1.0
C      1  0.4433260000000  0.5528580000000  0.4992740000000 1.0
C      1  0.5257040000000  0.5563210000000  0.5425950000000 1.0
C      1  0.5618660000000  0.5744970000000  0.4399560000000 1.0
C      1  0.4203040000000  0.5824550000000  0.4853170000000 1.0
C      1  0.5341520000000  0.5879840000000  0.5732220000000 1.0
C      1  0.5648230000000  0.4248820000000  0.4301240000000 1.0
C      1  0.4181560000000  0.4125860000000  0.4840930000000 1.0
C      1  0.5283230000000  0.4159400000000  0.5798650000000 1.0
C      1  0.4956350000000  0.5454000000000  0.4005190000000 1.0
C      1  0.4177230000000  0.5486270000000  0.5477210000000 1.0
C      1  0.5809000000000  0.5493630000000  0.5562990000000 1.0
C      1  0.4869390000000  0.4546940000000  0.3995630000000 1.0
C      1  0.4194220000000  0.4530000000000  0.5522650000000 1.0
C      1  0.5799180000000  0.4535130000000  0.5495760000000 1.0
C      1  0.5511870000000  0.5877140000000  0.5514990000000 1.0
C      1  0.5371050000000  0.5909310000000  0.4369170000000 1.0
C      1  0.4194040000000  0.5898950000000  0.5112790000000 1.0
C      1  0.5509390000000  0.4100440000000  0.5649620000000 1.0
C      1  0.5394500000000  0.4309020000000  0.4201560000000 1.0
C      1  0.4278110000000  0.4044160000000  0.5111090000000 1.0
C      1  0.5170170000000  0.4982350000000  0.3895680000000 1.0
C      1  0.5791620000000  0.4998750000000  0.5756510000000 1.0
C      1  0.3929330000000  0.5002770000000  0.5393260000000 1.0
C      1  0.4982150000000  0.4984560000000  0.4978100000000 1.0
END
