TITL C-2782229-3092-1341 -0.000254128195910351 125000 -221.353694860075 0 0 37 (C1) n - 1
REM
REM in /home/nfs/bkarasulu/CARBON/AIRSS/Generating-Clusters/REBO/Higher-Symm/SD-CG/HFTN-CG
REM
REM
REM
REM
REM
REM ./C.cell (12c818d87b63d06a65506943cc24bca4)
REM
REM compiler GCC version 9.2.1 20190827 (Red Hat 9.2.1-1)
REM options -cpp -mtune=generic -march=x86-64 -g -O0 -fpre-include=/usr/include/finclude/math-vector-fortran.h
REM seed 1089467337 -215859396 516822087 1727351986 1897274670 641803297 -919473408 -1398933224 -1587168641 -1188595660 -362600786 -1806781470 1154341596 1775770702 -1916289071 -1162833023 409182498 1564530786 1003996815 -949834947 -1139692821 1738160479 -1997652559 147618108 645570334 -479372756 1963549109 1200557655 133888804 257387148 1464158397 217822804 -517240623
REM
CELL 1.54180   50.00000   50.00000   50.00000   90.00000   90.00000   90.00000
LATT -1
SFAC C  
C      1  0.5189880000000  0.5476500000000  0.5070210000000 1.0
C      1  0.4417800000000  0.4931460000000  0.5053470000000 1.0
C      1  0.5366030000000  0.4523890000000  0.5077720000000 1.0
C      1  0.4740910000000  0.5571380000000  0.4919000000000 1.0
C      1  0.5603420000000  0.4929070000000  0.4902120000000 1.0
C      1  0.4658920000000  0.4537340000000  0.4952310000000 1.0
C      1  0.4769900000000  0.5390820000000  0.4689170000000 1.0
C      1  0.4866760000000  0.4745770000000  0.4843050000000 1.0
C      1  0.5423330000000  0.5004020000000  0.4680420000000 1.0
C      1  0.5146000000000  0.5187800000000  0.5212550000000 1.0
C      1  0.5186530000000  0.4682370000000  0.5272940000000 1.0
C      1  0.4657170000000  0.5000630000000  0.5236720000000 1.0
C      1  0.5423040000000  0.5095630000000  0.5315510000000 1.0
C      1  0.4671970000000  0.5302010000000  0.5307840000000 1.0
C      1  0.4905560000000  0.4560540000000  0.5345960000000 1.0
C      1  0.4586580000000  0.5165720000000  0.4675350000000 1.0
C      1  0.5308910000000  0.5275900000000  0.4666180000000 1.0
C      1  0.5103720000000  0.4604130000000  0.4709460000000 1.0
C      1  0.5036970000000  0.5336740000000  0.4590220000000 1.0
C      1  0.4721880000000  0.4921530000000  0.4633510000000 1.0
C      1  0.5277810000000  0.4782150000000  0.4573050000000 1.0
C      1  0.4932520000000  0.5361130000000  0.5379870000000 1.0
C      1  0.5383350000000  0.4852550000000  0.5440970000000 1.0
C      1  0.4731440000000  0.4755550000000  0.5433200000000 1.0
C      1  0.4364020000000  0.5143260000000  0.4864890000000 1.0
C      1  0.5205530000000  0.4391970000000  0.4880680000000 1.0
C      1  0.5402560000000  0.5457850000000  0.4876550000000 1.0
C      1  0.5631550000000  0.5127850000000  0.5113370000000 1.0
C      1  0.4806190000000  0.4376270000000  0.5141900000000 1.0
C      1  0.4546040000000  0.5485000000000  0.5118840000000 1.0
C      1  0.5007730000000  0.4223770000000  0.5004450000000 1.0
C      1  0.4306320000000  0.5388630000000  0.4998370000000 1.0
C      1  0.5650140000000  0.5389410000000  0.5000100000000 1.0
C      1  0.5597750000000  0.4657730000000  0.4987280000000 1.0
C      1  0.4406690000000  0.4656770000000  0.4989790000000 1.0
C      1  0.4985250000000  0.5662620000000  0.5028240000000 1.0
C      1  0.4969330000000  0.4907230000000  0.5125960000000 1.0
END
