TITL C-2782237-5345-1372 -0.00902801527081296 125000 -967.314133982236 0 0 160 (C1) n - 1
REM
REM in /home/nfs/bkarasulu/CARBON/AIRSS/Generating-Clusters/REBO/Higher-Symm/SD-CG/HFTN-CG
REM
REM
REM
REM
REM
REM ./C.cell (12c818d87b63d06a65506943cc24bca4)
REM
REM compiler GCC version 9.2.1 20190827 (Red Hat 9.2.1-1)
REM options -cpp -mtune=generic -march=x86-64 -g -O0 -fpre-include=/usr/include/finclude/math-vector-fortran.h
REM seed 220824049 292398315 -188948886 -353179263 -84111314 233545010 -825169089 813392937 1817390191 -181219165 -1590002986 953242264 1016381305 -426254132 1035580059 -837412352 618326868 -1826774130 471455825 1940534491 -413576381 -39710714 -1031714375 -343034925 1694347956 -1999388935 2145787058 1497678439 205641337 1612205285 -944714127 601415153 1342800551
REM
CELL 1.54180   50.00000   50.00000   50.00000   90.00000   90.00000   90.00000
LATT -1
SFAC C  
C      1  0.5586780000000  0.4872520000000  0.4415140000000 1.0
C      1  0.5048260000000  0.4407180000000  0.4440610000000 1.0
C      1  0.4436530000000  0.4763050000000  0.4443860000000 1.0
C      1  0.4599170000000  0.5441030000000  0.4443140000000 1.0
C      1  0.5308910000000  0.5524800000000  0.4445650000000 1.0
C      1  0.5163960000000  0.4445020000000  0.5225730000000 1.0
C      1  0.4578920000000  0.4697920000000  0.5174280000000 1.0
C      1  0.4541830000000  0.5197480000000  0.5306340000000 1.0
C      1  0.5057270000000  0.5501490000000  0.5365850000000 1.0
C      1  0.5470530000000  0.5192680000000  0.5279270000000 1.0
C      1  0.5197890000000  0.4346530000000  0.4901720000000 1.0
C      1  0.4397660000000  0.4585280000000  0.4903640000000 1.0
C      1  0.4578720000000  0.5346750000000  0.4830980000000 1.0
C      1  0.5193600000000  0.5471660000000  0.4834920000000 1.0
C      1  0.5617410000000  0.4934620000000  0.4806830000000 1.0
C      1  0.5017920000000  0.5848350000000  0.5557460000000 1.0
C      1  0.5772250000000  0.5253290000000  0.5534220000000 1.0
C      1  0.5443480000000  0.4299680000000  0.5580710000000 1.0
C      1  0.4462530000000  0.4344390000000  0.5500790000000 1.0
C      1  0.4229900000000  0.5285620000000  0.5538840000000 1.0
C      1  0.5243690000000  0.4176330000000  0.5379360000000 1.0
C      1  0.4330870000000  0.4527990000000  0.5301820000000 1.0
C      1  0.4381220000000  0.5467970000000  0.5326900000000 1.0
C      1  0.5245500000000  0.5763270000000  0.5344170000000 1.0
C      1  0.5738860000000  0.5014950000000  0.5324140000000 1.0
C      1  0.5315470000000  0.5005400000000  0.4817820000000 1.0
C      1  0.5191860000000  0.4789740000000  0.4978720000000 1.0
C      1  0.4924620000000  0.4822570000000  0.5005500000000 1.0
C      1  0.4819910000000  0.5107970000000  0.4865670000000 1.0
C      1  0.5089120000000  0.5210280000000  0.4754010000000 1.0
C      1  0.4958420000000  0.5663080000000  0.4831830000000 1.0
C      1  0.5616370000000  0.5264060000000  0.4832520000000 1.0
C      1  0.5405030000000  0.4511180000000  0.4769340000000 1.0
C      1  0.4652870000000  0.4448440000000  0.4781380000000 1.0
C      1  0.4328410000000  0.5162560000000  0.4805040000000 1.0
C      1  0.5202370000000  0.5146720000000  0.5643210000000 1.0
C      1  0.5216060000000  0.4878570000000  0.5555860000000 1.0
C      1  0.4951640000000  0.4765400000000  0.5581770000000 1.0
C      1  0.4774120000000  0.4980070000000  0.5658180000000 1.0
C      1  0.4925110000000  0.5230620000000  0.5738780000000 1.0
C      1  0.5501600000000  0.4459730000000  0.4229340000000 1.0
C      1  0.4651750000000  0.4343300000000  0.4253960000000 1.0
C      1  0.4235420000000  0.5136990000000  0.4256550000000 1.0
C      1  0.4890560000000  0.5764870000000  0.4274860000000 1.0
C      1  0.5680960000000  0.5329750000000  0.4265290000000 1.0
C      1  0.5725940000000  0.5627130000000  0.4707990000000 1.0
C      1  0.5774870000000  0.4411790000000  0.4659690000000 1.0
C      1  0.4742850000000  0.4063740000000  0.4730780000000 1.0
C      1  0.4014680000000  0.4935080000000  0.4709010000000 1.0
C      1  0.4645520000000  0.5885200000000  0.4729480000000 1.0
C      1  0.5183350000000  0.4463060000000  0.4134940000000 1.0
C      1  0.4532640000000  0.4643870000000  0.4148150000000 1.0
C      1  0.4491480000000  0.5334480000000  0.4148880000000 1.0
C      1  0.5147080000000  0.5578340000000  0.4151620000000 1.0
C      1  0.5580500000000  0.5034950000000  0.4126880000000 1.0
C      1  0.4762820000000  0.5513490000000  0.4087330000000 1.0
C      1  0.5397000000000  0.5379980000000  0.4085030000000 1.0
C      1  0.5459590000000  0.4736960000000  0.4061390000000 1.0
C      1  0.4872840000000  0.4472120000000  0.4051570000000 1.0
C      1  0.4439590000000  0.4948980000000  0.4080030000000 1.0
C      1  0.4810820000000  0.4521590000000  0.5571150000000 1.0
C      1  0.4529700000000  0.5022320000000  0.5528520000000 1.0
C      1  0.4860930000000  0.5468300000000  0.5562250000000 1.0
C      1  0.5379770000000  0.5319900000000  0.5516900000000 1.0
C      1  0.5472680000000  0.4811170000000  0.5396860000000 1.0
C      1  0.5068390000000  0.5699860000000  0.5812490000000 1.0
C      1  0.5628290000000  0.5150600000000  0.5780470000000 1.0
C      1  0.5312880000000  0.4435080000000  0.5807020000000 1.0
C      1  0.4545410000000  0.4524550000000  0.5777160000000 1.0
C      1  0.4393910000000  0.5288770000000  0.5793680000000 1.0
C      1  0.5323760000000  0.4583030000000  0.4488770000000 1.0
C      1  0.4685480000000  0.4556270000000  0.4506850000000 1.0
C      1  0.4454000000000  0.5155920000000  0.4504390000000 1.0
C      1  0.4977040000000  0.5549160000000  0.4511130000000 1.0
C      1  0.5508210000000  0.5186620000000  0.4518240000000 1.0
C      1  0.5726350000000  0.4261400000000  0.4924090000000 1.0
C      1  0.4481490000000  0.4182310000000  0.4905730000000 1.0
C      1  0.4025530000000  0.5287960000000  0.4859820000000 1.0
C      1  0.4973370000000  0.5989500000000  0.4895390000000 1.0
C      1  0.5932240000000  0.5346790000000  0.4882660000000 1.0
C      1  0.5685280000000  0.4409500000000  0.5464600000000 1.0
C      1  0.4669970000000  0.4154700000000  0.5392490000000 1.0
C      1  0.4064530000000  0.5062800000000  0.5364970000000 1.0
C      1  0.4755680000000  0.5915730000000  0.5398560000000 1.0
C      1  0.5776150000000  0.5528240000000  0.5378310000000 1.0
C      1  0.4516070000000  0.4194320000000  0.4508920000000 1.0
C      1  0.4059470000000  0.5218640000000  0.4520960000000 1.0
C      1  0.4934510000000  0.5943470000000  0.4553430000000 1.0
C      1  0.5866970000000  0.5360330000000  0.4542280000000 1.0
C      1  0.5581910000000  0.4279990000000  0.4475620000000 1.0
C      1  0.5008840000000  0.4088280000000  0.5140980000000 1.0
C      1  0.4116710000000  0.4738410000000  0.5140930000000 1.0
C      1  0.4575480000000  0.5661640000000  0.5149950000000 1.0
C      1  0.5506220000000  0.5699420000000  0.5144260000000 1.0
C      1  0.5906790000000  0.4640840000000  0.5089420000000 1.0
C      1  0.4797530000000  0.5476490000000  0.5018750000000 1.0
C      1  0.5438320000000  0.5475990000000  0.4939620000000 1.0
C      1  0.5625760000000  0.4647800000000  0.4945080000000 1.0
C      1  0.4877400000000  0.4353500000000  0.4968980000000 1.0
C      1  0.4333150000000  0.4902220000000  0.4943000000000 1.0
C      1  0.5526210000000  0.5586000000000  0.5566460000000 1.0
C      1  0.5725540000000  0.4687380000000  0.5566510000000 1.0
C      1  0.4915890000000  0.4215380000000  0.5570450000000 1.0
C      1  0.4249950000000  0.4886900000000  0.5544390000000 1.0
C      1  0.4648800000000  0.5683010000000  0.5561670000000 1.0
C      1  0.4207090000000  0.4682020000000  0.4635860000000 1.0
C      1  0.4494970000000  0.5631600000000  0.4661890000000 1.0
C      1  0.5463380000000  0.5728180000000  0.4599920000000 1.0
C      1  0.5807550000000  0.4738230000000  0.4601590000000 1.0
C      1  0.5041650000000  0.4169060000000  0.4654740000000 1.0
C      1  0.4568660000000  0.5532070000000  0.5825490000000 1.0
C      1  0.5342420000000  0.5571020000000  0.5824600000000 1.0
C      1  0.5601760000000  0.4851530000000  0.5787880000000 1.0
C      1  0.5035370000000  0.4345710000000  0.5847430000000 1.0
C      1  0.4376750000000  0.4783570000000  0.5807850000000 1.0
C      1  0.5422970000000  0.5303420000000  0.5936640000000 1.0
C      1  0.5381900000000  0.4704150000000  0.5908950000000 1.0
C      1  0.4827560000000  0.4521780000000  0.5968110000000 1.0
C      1  0.4482300000000  0.5032360000000  0.5926470000000 1.0
C      1  0.4844150000000  0.5558630000000  0.5951190000000 1.0
C      1  0.5789850000000  0.4378720000000  0.5190280000000 1.0
C      1  0.4694410000000  0.4020270000000  0.5079490000000 1.0
C      1  0.3966460000000  0.5017920000000  0.5040600000000 1.0
C      1  0.4698660000000  0.5943230000000  0.5063960000000 1.0
C      1  0.5801930000000  0.5599410000000  0.5044590000000 1.0
C      1  0.5497520000000  0.4081820000000  0.4891380000000 1.0
C      1  0.4180720000000  0.4242300000000  0.4891740000000 1.0
C      1  0.4073030000000  0.5598510000000  0.4896200000000 1.0
C      1  0.5269610000000  0.6088950000000  0.4917860000000 1.0
C      1  0.6060000000000  0.5065550000000  0.4943620000000 1.0
C      1  0.5247200000000  0.4896140000000  0.4434530000000 1.0
C      1  0.4958270000000  0.4736760000000  0.4466990000000 1.0
C      1  0.4718960000000  0.4951790000000  0.4472370000000 1.0
C      1  0.4860360000000  0.5240620000000  0.4449840000000 1.0
C      1  0.5191790000000  0.5210410000000  0.4386570000000 1.0
C      1  0.4092630000000  0.4411370000000  0.5097770000000 1.0
C      1  0.4242990000000  0.5667000000000  0.5105160000000 1.0
C      1  0.5392900000000  0.6000970000000  0.5153150000000 1.0
C      1  0.5962170000000  0.4907090000000  0.5154350000000 1.0
C      1  0.5328890000000  0.4012300000000  0.5100480000000 1.0
C      1  0.4589260000000  0.5024340000000  0.5076620000000 1.0
C      1  0.5029360000000  0.5305810000000  0.5158110000000 1.0
C      1  0.5261260000000  0.5159960000000  0.5107490000000 1.0
C      1  0.5395270000000  0.4643820000000  0.5159830000000 1.0
C      1  0.4854860000000  0.4580740000000  0.5185220000000 1.0
C      1  0.5013670000000  0.5294680000000  0.4015680000000 1.0
C      1  0.5262000000000  0.5077030000000  0.4008390000000 1.0
C      1  0.5126410000000  0.4774400000000  0.4004820000000 1.0
C      1  0.4799290000000  0.4800910000000  0.4001490000000 1.0
C      1  0.4723270000000  0.5124920000000  0.4009750000000 1.0
C      1  0.4263760000000  0.4345430000000  0.4615280000000 1.0
C      1  0.4176730000000  0.5533000000000  0.4593910000000 1.0
C      1  0.5269460000000  0.5946170000000  0.4637180000000 1.0
C      1  0.5959210000000  0.5042380000000  0.4635030000000 1.0
C      1  0.5380270000000  0.4123980000000  0.4626460000000 1.0
C      1  0.4735510000000  0.5016230000000  0.6056760000000 1.0
C      1  0.4924970000000  0.5277630000000  0.6066620000000 1.0
C      1  0.5216520000000  0.5149290000000  0.6061080000000 1.0
C      1  0.5186670000000  0.4861470000000  0.6047140000000 1.0
C      1  0.4905960000000  0.4780990000000  0.6060680000000 1.0
END
