TITL C-2782230-7391-736 -0.0013255177732014 125000 -701.764063158453 0 0 123 (C1) n - 1
REM
REM in /home/nfs/bkarasulu/CARBON/AIRSS/Generating-Clusters/REBO/Higher-Symm/SD-CG/HFTN-CG
REM
REM
REM
REM
REM
REM ./C.cell (12c818d87b63d06a65506943cc24bca4)
REM
REM compiler GCC version 9.2.1 20190827 (Red Hat 9.2.1-1)
REM options -cpp -mtune=generic -march=x86-64 -g -O0 -fpre-include=/usr/include/finclude/math-vector-fortran.h
REM seed -884260627 -1724081466 -1899361545 1384494898 -1729216334 1858157057 361355163 -2110443334 -1535477970 -662271254 -365389759 -773414606 -1822363129 -1404700541 129986218 1161545266 673228112 651059854 -1246439758 252423992 490997759 -474078012 -1266297140 -1137283799 289053614 -637511579 -1568313251 -672485624 -1265946711 720165460 1811266861 -205433161 -1039364590
REM
CELL 1.54180   50.00000   50.00000   50.00000   90.00000   90.00000   90.00000
LATT -1
SFAC C  
C      1  0.5455160000000  0.4877410000000  0.4408070000000 1.0
C      1  0.5470220000000  0.5534300000000  0.4705550000000 1.0
C      1  0.5433340000000  0.5440100000000  0.5432700000000 1.0
C      1  0.5550590000000  0.4710970000000  0.5630640000000 1.0
C      1  0.5539290000000  0.4378830000000  0.4969710000000 1.0
C      1  0.4638740000000  0.4806090000000  0.5510070000000 1.0
C      1  0.4597770000000  0.4404470000000  0.4979920000000 1.0
C      1  0.4472140000000  0.4861160000000  0.4286880000000 1.0
C      1  0.4496160000000  0.5663480000000  0.4611930000000 1.0
C      1  0.4537450000000  0.5515690000000  0.5495530000000 1.0
C      1  0.5668200000000  0.5221390000000  0.5467940000000 1.0
C      1  0.5665940000000  0.4622880000000  0.5350130000000 1.0
C      1  0.5687290000000  0.4556930000000  0.4750030000000 1.0
C      1  0.5673190000000  0.5090320000000  0.4495430000000 1.0
C      1  0.5673390000000  0.5510680000000  0.4947190000000 1.0
C      1  0.5006820000000  0.5483920000000  0.5689290000000 1.0
C      1  0.5046110000000  0.4533240000000  0.5685960000000 1.0
C      1  0.5079430000000  0.4196860000000  0.4797130000000 1.0
C      1  0.5024550000000  0.4959080000000  0.4133910000000 1.0
C      1  0.5033540000000  0.5789950000000  0.4700930000000 1.0
C      1  0.5109030000000  0.4879440000000  0.5408380000000 1.0
C      1  0.5051480000000  0.4516930000000  0.5027440000000 1.0
C      1  0.5022720000000  0.4752090000000  0.4601160000000 1.0
C      1  0.4976130000000  0.5408510000000  0.4569990000000 1.0
C      1  0.4979960000000  0.5515320000000  0.5217210000000 1.0
C      1  0.4582890000000  0.4194860000000  0.5214270000000 1.0
C      1  0.4564960000000  0.4567460000000  0.4341800000000 1.0
C      1  0.4593620000000  0.5605300000000  0.4329430000000 1.0
C      1  0.4712530000000  0.5647020000000  0.5314120000000 1.0
C      1  0.4685020000000  0.4941010000000  0.5789830000000 1.0
C      1  0.5155860000000  0.5335930000000  0.5950950000000 1.0
C      1  0.5162970000000  0.4221360000000  0.5615600000000 1.0
C      1  0.5214360000000  0.4118210000000  0.4494120000000 1.0
C      1  0.5179440000000  0.5229670000000  0.3995560000000 1.0
C      1  0.5178410000000  0.6017390000000  0.4910990000000 1.0
C      1  0.5757850000000  0.4184460000000  0.5112150000000 1.0
C      1  0.5594990000000  0.4624640000000  0.4286590000000 1.0
C      1  0.5659660000000  0.5564600000000  0.4453000000000 1.0
C      1  0.5641600000000  0.5682360000000  0.5391140000000 1.0
C      1  0.5740670000000  0.4884420000000  0.5803910000000 1.0
C      1  0.4652190000000  0.5256200000000  0.5002930000000 1.0
C      1  0.4682390000000  0.5027510000000  0.5253290000000 1.0
C      1  0.4670830000000  0.4710210000000  0.5122920000000 1.0
C      1  0.4586760000000  0.4766940000000  0.4813650000000 1.0
C      1  0.4660990000000  0.5076180000000  0.4726750000000 1.0
C      1  0.5647400000000  0.4317650000000  0.5349140000000 1.0
C      1  0.5637800000000  0.4431100000000  0.4475660000000 1.0
C      1  0.5647220000000  0.5330900000000  0.4306630000000 1.0
C      1  0.5641780000000  0.5757410000000  0.5124670000000 1.0
C      1  0.5659600000000  0.5146230000000  0.5763790000000 1.0
C      1  0.5077530000000  0.4680280000000  0.4031860000000 1.0
C      1  0.5079510000000  0.5797450000000  0.4403440000000 1.0
C      1  0.5071710000000  0.5772850000000  0.5624890000000 1.0
C      1  0.5067850000000  0.4651970000000  0.5962310000000 1.0
C      1  0.5118940000000  0.4022210000000  0.5040850000000 1.0
C      1  0.4636660000000  0.5576630000000  0.5022360000000 1.0
C      1  0.4544150000000  0.5166410000000  0.5854600000000 1.0
C      1  0.4506880000000  0.4306870000000  0.5455330000000 1.0
C      1  0.4526510000000  0.4388240000000  0.4544480000000 1.0
C      1  0.4586030000000  0.5367280000000  0.4205300000000 1.0
C      1  0.4732330000000  0.4512780000000  0.5556630000000 1.0
C      1  0.4754170000000  0.4254150000000  0.4715960000000 1.0
C      1  0.4708800000000  0.5055000000000  0.4137140000000 1.0
C      1  0.4723150000000  0.5797350000000  0.4803570000000 1.0
C      1  0.4681750000000  0.5428280000000  0.5750980000000 1.0
C      1  0.4959600000000  0.5370000000000  0.4908380000000 1.0
C      1  0.4989110000000  0.5179220000000  0.5269630000000 1.0
C      1  0.4989120000000  0.4807540000000  0.5126720000000 1.0
C      1  0.4873650000000  0.4622120000000  0.4792440000000 1.0
C      1  0.4976250000000  0.5075140000000  0.4636190000000 1.0
C      1  0.5285390000000  0.5387880000000  0.4464890000000 1.0
C      1  0.5277180000000  0.5625810000000  0.5217770000000 1.0
C      1  0.5324850000000  0.4965440000000  0.5641660000000 1.0
C      1  0.5304330000000  0.4429440000000  0.5178900000000 1.0
C      1  0.5279840000000  0.4649760000000  0.4567540000000 1.0
C      1  0.4269960000000  0.5152800000000  0.5775530000000 1.0
C      1  0.4244470000000  0.4416800000000  0.5453020000000 1.0
C      1  0.4293360000000  0.4417950000000  0.4693850000000 1.0
C      1  0.4372660000000  0.5186600000000  0.4299860000000 1.0
C      1  0.4347610000000  0.5717680000000  0.4914240000000 1.0
C      1  0.5313250000000  0.4418380000000  0.4737910000000 1.0
C      1  0.5203490000000  0.5065620000000  0.4379230000000 1.0
C      1  0.5220730000000  0.5597030000000  0.4882030000000 1.0
C      1  0.5192370000000  0.5261510000000  0.5534470000000 1.0
C      1  0.5282390000000  0.4608950000000  0.5467750000000 1.0
C      1  0.4324880000000  0.5369740000000  0.5354420000000 1.0
C      1  0.4340330000000  0.4873200000000  0.5388660000000 1.0
C      1  0.4296080000000  0.4565930000000  0.4996450000000 1.0
C      1  0.4225620000000  0.4897260000000  0.4522410000000 1.0
C      1  0.4284040000000  0.5428250000000  0.4743670000000 1.0
C      1  0.5371730000000  0.4221490000000  0.5435320000000 1.0
C      1  0.5479980000000  0.4195570000000  0.4451190000000 1.0
C      1  0.5389120000000  0.5329990000000  0.4145550000000 1.0
C      1  0.5383670000000  0.5911390000000  0.5065530000000 1.0
C      1  0.5381540000000  0.5196040000000  0.5880630000000 1.0
C      1  0.5869630000000  0.5250180000000  0.4972810000000 1.0
C      1  0.5867220000000  0.5108090000000  0.5228790000000 1.0
C      1  0.5871900000000  0.4820250000000  0.5172470000000 1.0
C      1  0.5880500000000  0.4786660000000  0.4880380000000 1.0
C      1  0.5875330000000  0.5051650000000  0.4756990000000 1.0
C      1  0.5118470000000  0.5803810000000  0.4151320000000 1.0
C      1  0.5126350000000  0.6016160000000  0.5570660000000 1.0
C      1  0.5086260000000  0.4752440000000  0.6196170000000 1.0
C      1  0.5152280000000  0.3874840000000  0.5246510000000 1.0
C      1  0.5122360000000  0.4444360000000  0.3945510000000 1.0
C      1  0.4879790000000  0.6063460000000  0.4941700000000 1.0
C      1  0.4862780000000  0.5335560000000  0.6026370000000 1.0
C      1  0.4870390000000  0.4198640000000  0.5569350000000 1.0
C      1  0.4915880000000  0.4121550000000  0.4445790000000 1.0
C      1  0.4885450000000  0.5287120000000  0.3960320000000 1.0
C      1  0.5476680000000  0.5049640000000  0.4767020000000 1.0
C      1  0.5470800000000  0.5242740000000  0.4978780000000 1.0
C      1  0.5468440000000  0.5098360000000  0.5228580000000 1.0
C      1  0.5473260000000  0.4815150000000  0.5167850000000 1.0
C      1  0.5481610000000  0.4786800000000  0.4883600000000 1.0
C      1  0.4221160000000  0.4640640000000  0.5276180000000 1.0
C      1  0.4172160000000  0.4704620000000  0.4710650000000 1.0
C      1  0.4219470000000  0.5208310000000  0.4560850000000 1.0
C      1  0.4268980000000  0.5434670000000  0.5085850000000 1.0
C      1  0.4239390000000  0.5126410000000  0.5489640000000 1.0
C      1  0.4132060000000  0.5078520000000  0.4966730000000 1.0
C      1  0.5089770000000  0.5064750000000  0.4957620000000 1.0
C      1  0.4363040000000  0.5012730000000  0.4878780000000 1.0
END
