TITL C-2782225-7408-1476 -0.00603133026518349 125000 -1106.1397168234 0 0 189 (C1) n - 1
REM
REM in /home/nfs/bkarasulu/CARBON/AIRSS/Generating-Clusters/REBO/Higher-Symm/SD-CG/HFTN-CG
REM
REM
REM
REM
REM
REM ./C.cell (12c818d87b63d06a65506943cc24bca4)
REM
REM compiler GCC version 9.2.1 20190827 (Red Hat 9.2.1-1)
REM options -cpp -mtune=generic -march=x86-64 -g -O0 -fpre-include=/usr/include/finclude/math-vector-fortran.h
REM seed 1875273215 -1098070343 1473564959 203802433 950014752 1612359090 2119650605 -1993613475 -928447068 1220989728 1797966380 829632230 -1823798731 -652774950 975101769 1487843828 -919509293 -1869741135 994539186 247024137 888136080 -75406560 -1387654507 1741785080 -2139762307 1592318751 -101726982 -463095704 720601361 -1266400654 938256020 1873101046 1627369546
REM
CELL 1.54180   50.00000   50.00000   50.00000   90.00000   90.00000   90.00000
LATT -1
SFAC C  
C      1  0.4834630000000  0.5482160000000  0.6006480000000 1.0
C      1  0.6052510000000  0.4491990000000  0.5120300000000 1.0
C      1  0.5114490000000  0.5426950000000  0.3959040000000 1.0
C      1  0.3915640000000  0.4480180000000  0.4926270000000 1.0
C      1  0.4917070000000  0.5649920000000  0.4816030000000 1.0
C      1  0.4716480000000  0.4280300000000  0.5074790000000 1.0
C      1  0.5115970000000  0.5747720000000  0.5218620000000 1.0
C      1  0.5092670000000  0.4292050000000  0.4907050000000 1.0
C      1  0.5322610000000  0.4527160000000  0.5621030000000 1.0
C      1  0.5579810000000  0.5434720000000  0.4750640000000 1.0
C      1  0.4604100000000  0.4608470000000  0.4416600000000 1.0
C      1  0.4481050000000  0.5433220000000  0.5402670000000 1.0
C      1  0.4808020000000  0.5307850000000  0.4633970000000 1.0
C      1  0.4580600000000  0.4645090000000  0.5159470000000 1.0
C      1  0.5187890000000  0.5389560000000  0.5404550000000 1.0
C      1  0.5327230000000  0.4668950000000  0.4728840000000 1.0
C      1  0.4836680000000  0.5597480000000  0.5204550000000 1.0
C      1  0.5184980000000  0.4366370000000  0.5193050000000 1.0
C      1  0.5210280000000  0.5566320000000  0.4828360000000 1.0
C      1  0.4741990000000  0.4429170000000  0.4791480000000 1.0
C      1  0.5038960000000  0.5420780000000  0.4416950000000 1.0
C      1  0.4403830000000  0.4552960000000  0.4965510000000 1.0
C      1  0.4983250000000  0.5494730000000  0.5561920000000 1.0
C      1  0.5596540000000  0.4538730000000  0.4808230000000 1.0
C      1  0.4533230000000  0.4320670000000  0.4266290000000 1.0
C      1  0.4334280000000  0.5728350000000  0.5486130000000 1.0
C      1  0.5433940000000  0.4242680000000  0.5663810000000 1.0
C      1  0.5685430000000  0.5691860000000  0.4572880000000 1.0
C      1  0.4176020000000  0.4365200000000  0.5354060000000 1.0
C      1  0.5304890000000  0.5677090000000  0.5763760000000 1.0
C      1  0.5905950000000  0.4362260000000  0.4626820000000 1.0
C      1  0.4679910000000  0.5629810000000  0.4198680000000 1.0
C      1  0.5368350000000  0.5676210000000  0.4131050000000 1.0
C      1  0.4108300000000  0.4428980000000  0.4714050000000 1.0
C      1  0.4660790000000  0.5797560000000  0.5832430000000 1.0
C      1  0.5824360000000  0.4322170000000  0.5272360000000 1.0
C      1  0.5924440000000  0.4614300000000  0.5419260000000 1.0
C      1  0.5438970000000  0.5366020000000  0.4050310000000 1.0
C      1  0.4116450000000  0.4633000000000  0.4514720000000 1.0
C      1  0.4540780000000  0.5557830000000  0.5950880000000 1.0
C      1  0.5007650000000  0.4485500000000  0.5529970000000 1.0
C      1  0.5585210000000  0.5475440000000  0.5051890000000 1.0
C      1  0.4917280000000  0.4549620000000  0.4442720000000 1.0
C      1  0.4474600000000  0.5451980000000  0.5083320000000 1.0
C      1  0.5401830000000  0.4695010000000  0.5855630000000 1.0
C      1  0.5846480000000  0.5332760000000  0.4630440000000 1.0
C      1  0.4610900000000  0.4719780000000  0.4033030000000 1.0
C      1  0.4198610000000  0.5341480000000  0.5537230000000 1.0
C      1  0.4169420000000  0.4755810000000  0.5785320000000 1.0
C      1  0.5670460000000  0.5350650000000  0.5755300000000 1.0
C      1  0.5809340000000  0.4743170000000  0.4305390000000 1.0
C      1  0.4296450000000  0.5303760000000  0.4213800000000 1.0
C      1  0.5692560000000  0.5217470000000  0.5148210000000 1.0
C      1  0.5081720000000  0.4718080000000  0.4235640000000 1.0
C      1  0.4251350000000  0.5277040000000  0.4960570000000 1.0
C      1  0.4953400000000  0.4722400000000  0.5734660000000 1.0
C      1  0.6044480000000  0.4816830000000  0.5119840000000 1.0
C      1  0.5160770000000  0.5116110000000  0.3923970000000 1.0
C      1  0.3843350000000  0.4771000000000  0.4839480000000 1.0
C      1  0.4849720000000  0.5175300000000  0.6025420000000 1.0
C      1  0.4539850000000  0.5778230000000  0.4661260000000 1.0
C      1  0.4638300000000  0.4166400000000  0.5449220000000 1.0
C      1  0.5469750000000  0.5947160000000  0.5334570000000 1.0
C      1  0.5400330000000  0.4227490000000  0.4523320000000 1.0
C      1  0.4355090000000  0.5530610000000  0.4563790000000 1.0
C      1  0.4571040000000  0.4466280000000  0.5597090000000 1.0
C      1  0.5708430000000  0.5739550000000  0.5461930000000 1.0
C      1  0.5494900000000  0.4499780000000  0.4347190000000 1.0
C      1  0.4244150000000  0.5093160000000  0.5764310000000 1.0
C      1  0.5671130000000  0.4782540000000  0.5825500000000 1.0
C      1  0.5800250000000  0.5232390000000  0.4370760000000 1.0
C      1  0.4385300000000  0.4778910000000  0.4260790000000 1.0
C      1  0.5301600000000  0.5505910000000  0.5138670000000 1.0
C      1  0.5063640000000  0.4533990000000  0.4714930000000 1.0
C      1  0.4740080000000  0.5413430000000  0.4932420000000 1.0
C      1  0.4872430000000  0.4498880000000  0.5256510000000 1.0
C      1  0.4824510000000  0.5678780000000  0.4485870000000 1.0
C      1  0.4406890000000  0.4241030000000  0.5215200000000 1.0
C      1  0.5212940000000  0.5832640000000  0.5529040000000 1.0
C      1  0.5645690000000  0.4230570000000  0.4735870000000 1.0
C      1  0.4342470000000  0.5973900000000  0.5269880000000 1.0
C      1  0.5227290000000  0.4001800000000  0.5598210000000 1.0
C      1  0.5585750000000  0.5972540000000  0.4705760000000 1.0
C      1  0.4790190000000  0.4115490000000  0.4345620000000 1.0
C      1  0.5013760000000  0.4325680000000  0.4210970000000 1.0
C      1  0.4215450000000  0.5660730000000  0.5063650000000 1.0
C      1  0.4834060000000  0.4329110000000  0.5756770000000 1.0
C      1  0.5740860000000  0.5738310000000  0.5129840000000 1.0
C      1  0.5423060000000  0.4594100000000  0.4034150000000 1.0
C      1  0.4043410000000  0.5422110000000  0.4628510000000 1.0
C      1  0.4623890000000  0.4591960000000  0.6145190000000 1.0
C      1  0.5903610000000  0.5471350000000  0.5373710000000 1.0
C      1  0.5738060000000  0.4715960000000  0.5006970000000 1.0
C      1  0.5141820000000  0.5169690000000  0.4261880000000 1.0
C      1  0.4181620000000  0.4776190000000  0.4898070000000 1.0
C      1  0.4884740000000  0.5240270000000  0.5693280000000 1.0
C      1  0.3873800000000  0.4948160000000  0.5084420000000 1.0
C      1  0.5112730000000  0.5014420000000  0.6120840000000 1.0
C      1  0.6136630000000  0.5051750000000  0.4913030000000 1.0
C      1  0.4881980000000  0.5005360000000  0.3843370000000 1.0
C      1  0.4714320000000  0.5047190000000  0.4443240000000 1.0
C      1  0.4441270000000  0.4907240000000  0.5291200000000 1.0
C      1  0.5288980000000  0.5098280000000  0.5515630000000 1.0
C      1  0.5547010000000  0.4928280000000  0.4727640000000 1.0
C      1  0.4738890000000  0.3909060000000  0.4888680000000 1.0
C      1  0.4886530000000  0.6084540000000  0.5166620000000 1.0
C      1  0.5171530000000  0.3945880000000  0.5086300000000 1.0
C      1  0.5089220000000  0.6054670000000  0.4763610000000 1.0
C      1  0.4377060000000  0.5207920000000  0.4675080000000 1.0
C      1  0.4672950000000  0.4776570000000  0.5597710000000 1.0
C      1  0.5574660000000  0.5040370000000  0.5367230000000 1.0
C      1  0.5362570000000  0.4816170000000  0.4360380000000 1.0
C      1  0.4193540000000  0.5031160000000  0.5110380000000 1.0
C      1  0.5091950000000  0.4983830000000  0.5776790000000 1.0
C      1  0.5791720000000  0.5040360000000  0.4926680000000 1.0
C      1  0.4898040000000  0.4958370000000  0.4176480000000 1.0
C      1  0.4685700000000  0.5035790000000  0.5097590000000 1.0
C      1  0.5113000000000  0.4895920000000  0.5303200000000 1.0
C      1  0.5289380000000  0.5000350000000  0.4940630000000 1.0
C      1  0.4943120000000  0.4934900000000  0.4675130000000 1.0
C      1  0.4688470000000  0.5213590000000  0.3951630000000 1.0
C      1  0.3946420000000  0.4767620000000  0.5310580000000 1.0
C      1  0.5268840000000  0.5263730000000  0.6001090000000 1.0
C      1  0.6042240000000  0.4807760000000  0.4720910000000 1.0
C      1  0.4056140000000  0.5440940000000  0.5269700000000 1.0
C      1  0.5189950000000  0.4715140000000  0.6055050000000 1.0
C      1  0.6039690000000  0.5342190000000  0.4847250000000 1.0
C      1  0.4819540000000  0.4625130000000  0.3948250000000 1.0
C      1  0.4823500000000  0.5755550000000  0.5576310000000 1.0
C      1  0.5634410000000  0.4130510000000  0.5213090000000 1.0
C      1  0.5202290000000  0.5702440000000  0.4358680000000 1.0
C      1  0.4371670000000  0.4280550000000  0.4794110000000 1.0
C      1  0.5205020000000  0.5038210000000  0.4551620000000 1.0
C      1  0.4478510000000  0.4935040000000  0.4847220000000 1.0
C      1  0.4849960000000  0.5000200000000  0.5459850000000 1.0
C      1  0.5478550000000  0.4841860000000  0.5150200000000 1.0
C      1  0.4596470000000  0.4244750000000  0.4581830000000 1.0
C      1  0.4627110000000  0.5795120000000  0.5322040000000 1.0
C      1  0.5376540000000  0.4167540000000  0.5347080000000 1.0
C      1  0.5356070000000  0.5738910000000  0.4620440000000 1.0
C      1  0.4972450000000  0.4022770000000  0.4750950000000 1.0
C      1  0.4770170000000  0.5913150000000  0.4957790000000 1.0
C      1  0.4935960000000  0.4054540000000  0.5209860000000 1.0
C      1  0.5238950000000  0.5981560000000  0.5010040000000 1.0
C      1  0.5127860000000  0.4513320000000  0.3973960000000 1.0
C      1  0.3977320000000  0.5461050000000  0.4935830000000 1.0
C      1  0.4905750000000  0.4533960000000  0.6011380000000 1.0
C      1  0.5982530000000  0.5502690000000  0.5073240000000 1.0
C      1  0.4450110000000  0.5864800000000  0.4970490000000 1.0
C      1  0.4939340000000  0.4080600000000  0.5549500000000 1.0
C      1  0.5569300000000  0.5977500000000  0.5010130000000 1.0
C      1  0.5111260000000  0.4119140000000  0.4457450000000 1.0
C      1  0.5300630000000  0.4637820000000  0.5308420000000 1.0
C      1  0.5321900000000  0.5258450000000  0.4737380000000 1.0
C      1  0.4683530000000  0.4744740000000  0.4702040000000 1.0
C      1  0.4754410000000  0.5283750000000  0.5310700000000 1.0
C      1  0.5606760000000  0.4023480000000  0.4955760000000 1.0
C      1  0.5021850000000  0.5954900000000  0.4447670000000 1.0
C      1  0.4429220000000  0.4024020000000  0.4962670000000 1.0
C      1  0.4951410000000  0.6030190000000  0.5484210000000 1.0
C      1  0.4172630000000  0.4848360000000  0.5464730000000 1.0
C      1  0.5451140000000  0.5184140000000  0.5803110000000 1.0
C      1  0.5819510000000  0.4880550000000  0.4557260000000 1.0
C      1  0.4522620000000  0.5124910000000  0.4173730000000 1.0
C      1  0.4405780000000  0.5574550000000  0.4251860000000 1.0
C      1  0.4264950000000  0.4486790000000  0.5600580000000 1.0
C      1  0.5586020000000  0.5620310000000  0.5721740000000 1.0
C      1  0.5824790000000  0.4452850000000  0.4367870000000 1.0
C      1  0.4088790000000  0.5222310000000  0.4402560000000 1.0
C      1  0.4421190000000  0.4723110000000  0.6018170000000 1.0
C      1  0.5855100000000  0.5252320000000  0.5555270000000 1.0
C      1  0.5635680000000  0.4807730000000  0.4073030000000 1.0
C      1  0.5198260000000  0.6151060000000  0.5292090000000 1.0
C      1  0.5315810000000  0.4011340000000  0.4782830000000 1.0
C      1  0.4765130000000  0.6036710000000  0.4650640000000 1.0
C      1  0.4632390000000  0.3915660000000  0.5213600000000 1.0
C      1  0.4226010000000  0.4949720000000  0.4508820000000 1.0
C      1  0.4517580000000  0.4931360000000  0.5809810000000 1.0
C      1  0.5806250000000  0.4915240000000  0.5539420000000 1.0
C      1  0.5529010000000  0.5082160000000  0.4220350000000 1.0
C      1  0.6043420000000  0.4536620000000  0.4803450000000 1.0
C      1  0.4827680000000  0.5470360000000  0.4007300000000 1.0
C      1  0.3969230000000  0.4492390000000  0.5214940000000 1.0
C      1  0.5136310000000  0.5516090000000  0.5941400000000 1.0
C      1  0.5759220000000  0.5390360000000  0.4123210000000 1.0
C      1  0.4115910000000  0.4574720000000  0.4218130000000 1.0
C      1  0.4330420000000  0.5409650000000  0.5844850000000 1.0
C      1  0.5879160000000  0.4583610000000  0.5743480000000 1.0
C      1  0.4974240000000  0.4954080000000  0.5004870000000 1.0
END
