TITL C-2782239-8622-240 -0.00608398578147585 125000 -846.385773449308 0 0 147 (C1) n - 1
REM
REM in /home/nfs/bkarasulu/CARBON/AIRSS/Generating-Clusters/REBO/Higher-Symm/SD-CG/HFTN-CG
REM
REM
REM
REM
REM
REM ./C.cell (12c818d87b63d06a65506943cc24bca4)
REM
REM compiler GCC version 9.2.1 20190827 (Red Hat 9.2.1-1)
REM options -cpp -mtune=generic -march=x86-64 -g -O0 -fpre-include=/usr/include/finclude/math-vector-fortran.h
REM seed 831614820 23720052 -1586010933 -75257883 345138295 -1925527838 381262996 153536150 -1230361202 -1651841755 -1496990808 1868989110 -796035566 -1508518644 -1491047801 29304544 -527246238 -1964733630 262805267 -806119117 -581145960 -1799347697 1344167333 -1089915870 124724985 442388259 123723920 -1136612731 -1154709672 -1212268139 -1571350833 685795899 -1929042566
REM
CELL 1.54180   50.00000   50.00000   50.00000   90.00000   90.00000   90.00000
LATT -1
SFAC C  
C      1  0.5634540000000  0.4277420000000  0.4922630000000 1.0
C      1  0.5355860000000  0.4332130000000  0.4406230000000 1.0
C      1  0.4768550000000  0.6021910000000  0.4877750000000 1.0
C      1  0.3856140000000  0.5352830000000  0.5007530000000 1.0
C      1  0.5923500000000  0.5089250000000  0.4422410000000 1.0
C      1  0.4976840000000  0.4657320000000  0.5992990000000 1.0
C      1  0.5096700000000  0.5273380000000  0.5614980000000 1.0
C      1  0.5162680000000  0.4348600000000  0.5422950000000 1.0
C      1  0.4387870000000  0.4357380000000  0.4758940000000 1.0
C      1  0.6035250000000  0.4682350000000  0.4737270000000 1.0
C      1  0.6021790000000  0.5067440000000  0.4907650000000 1.0
C      1  0.4782900000000  0.4893380000000  0.5714230000000 1.0
C      1  0.4752190000000  0.4363510000000  0.4206640000000 1.0
C      1  0.4831610000000  0.3972420000000  0.5212520000000 1.0
C      1  0.4806440000000  0.4979870000000  0.3800110000000 1.0
C      1  0.4381860000000  0.4983740000000  0.4094510000000 1.0
C      1  0.5480480000000  0.5274180000000  0.4291330000000 1.0
C      1  0.3868490000000  0.5113850000000  0.4925130000000 1.0
C      1  0.5119020000000  0.4594880000000  0.4957170000000 1.0
C      1  0.5835850000000  0.4436620000000  0.5140020000000 1.0
C      1  0.5619080000000  0.5449120000000  0.4555680000000 1.0
C      1  0.5601640000000  0.5245800000000  0.5124510000000 1.0
C      1  0.5091920000000  0.5617210000000  0.4218470000000 1.0
C      1  0.4980270000000  0.5870570000000  0.4416680000000 1.0
C      1  0.4301450000000  0.3834720000000  0.5140890000000 1.0
C      1  0.5825620000000  0.5021510000000  0.4705620000000 1.0
C      1  0.4330250000000  0.4756250000000  0.5113970000000 1.0
C      1  0.5743650000000  0.4748210000000  0.5208310000000 1.0
C      1  0.5486110000000  0.4934580000000  0.5107260000000 1.0
C      1  0.4336410000000  0.5198380000000  0.5118290000000 1.0
C      1  0.4262480000000  0.4728230000000  0.4287230000000 1.0
C      1  0.5572830000000  0.4256570000000  0.5586190000000 1.0
C      1  0.5121590000000  0.5656760000000  0.4609520000000 1.0
C      1  0.4553560000000  0.5736410000000  0.4595230000000 1.0
C      1  0.5559970000000  0.4755160000000  0.5456150000000 1.0
C      1  0.5078920000000  0.4385710000000  0.5845810000000 1.0
C      1  0.5097600000000  0.4556740000000  0.4387660000000 1.0
C      1  0.4115610000000  0.5456070000000  0.5145380000000 1.0
C      1  0.5285230000000  0.5765820000000  0.5548230000000 1.0
C      1  0.5233490000000  0.4117690000000  0.4955100000000 1.0
C      1  0.5658380000000  0.4524070000000  0.5682440000000 1.0
C      1  0.5162550000000  0.5263400000000  0.5999300000000 1.0
C      1  0.4945890000000  0.5575880000000  0.4843920000000 1.0
C      1  0.4063970000000  0.5514600000000  0.5448930000000 1.0
C      1  0.4683710000000  0.4791100000000  0.4627940000000 1.0
C      1  0.5419100000000  0.5255290000000  0.5594640000000 1.0
C      1  0.4135640000000  0.4977410000000  0.4973460000000 1.0
C      1  0.5858600000000  0.5277850000000  0.5346120000000 1.0
C      1  0.5721260000000  0.5453180000000  0.4882230000000 1.0
C      1  0.4849630000000  0.4243570000000  0.5417240000000 1.0
C      1  0.4822730000000  0.4779430000000  0.5409060000000 1.0
C      1  0.4892510000000  0.5023690000000  0.4487360000000 1.0
C      1  0.5099240000000  0.4197910000000  0.4564030000000 1.0
C      1  0.5231960000000  0.5536090000000  0.5799360000000 1.0
C      1  0.5413820000000  0.4625830000000  0.5019420000000 1.0
C      1  0.5186190000000  0.5483280000000  0.5286840000000 1.0
C      1  0.4585490000000  0.4481340000000  0.4979400000000 1.0
C      1  0.5235900000000  0.5403650000000  0.4452240000000 1.0
C      1  0.5192920000000  0.4924020000000  0.5986230000000 1.0
C      1  0.4560110000000  0.4859600000000  0.4338880000000 1.0
C      1  0.5600970000000  0.5878630000000  0.4769640000000 1.0
C      1  0.4922980000000  0.5327610000000  0.5372250000000 1.0
C      1  0.5562520000000  0.4559380000000  0.4746030000000 1.0
C      1  0.4525420000000  0.5346380000000  0.4675420000000 1.0
C      1  0.5076320000000  0.3881780000000  0.5085550000000 1.0
C      1  0.5620230000000  0.4231860000000  0.5267410000000 1.0
C      1  0.4933310000000  0.5256000000000  0.4885860000000 1.0
C      1  0.4439990000000  0.5113790000000  0.5422970000000 1.0
C      1  0.4754490000000  0.5318540000000  0.4471320000000 1.0
C      1  0.4651090000000  0.5148660000000  0.5766690000000 1.0
C      1  0.5281660000000  0.4467340000000  0.4112090000000 1.0
C      1  0.4953750000000  0.4457210000000  0.4028220000000 1.0
C      1  0.5527310000000  0.5546340000000  0.5620860000000 1.0
C      1  0.4984090000000  0.5699520000000  0.5136990000000 1.0
C      1  0.5457410000000  0.5714990000000  0.4587780000000 1.0
C      1  0.4797230000000  0.5935310000000  0.5599360000000 1.0
C      1  0.4516330000000  0.4294040000000  0.5438080000000 1.0
C      1  0.4469800000000  0.4482240000000  0.4246830000000 1.0
C      1  0.4774710000000  0.4291140000000  0.5046220000000 1.0
C      1  0.4170990000000  0.4407300000000  0.5017050000000 1.0
C      1  0.4506560000000  0.4825010000000  0.5364410000000 1.0
C      1  0.5021600000000  0.4342120000000  0.4928590000000 1.0
C      1  0.4593220000000  0.5476700000000  0.5689770000000 1.0
C      1  0.5031740000000  0.5883400000000  0.5419540000000 1.0
C      1  0.4771970000000  0.5950490000000  0.5201540000000 1.0
C      1  0.4078290000000  0.4687300000000  0.4527440000000 1.0
C      1  0.4569410000000  0.5781290000000  0.5536760000000 1.0
C      1  0.5472020000000  0.4847000000000  0.4586300000000 1.0
C      1  0.4689760000000  0.4743500000000  0.4925550000000 1.0
C      1  0.4556850000000  0.5529900000000  0.5153980000000 1.0
C      1  0.5982680000000  0.5304920000000  0.5042230000000 1.0
C      1  0.5781730000000  0.4810830000000  0.5783880000000 1.0
C      1  0.4753410000000  0.5617200000000  0.4426480000000 1.0
C      1  0.5445790000000  0.4748010000000  0.5838880000000 1.0
C      1  0.3819180000000  0.4650340000000  0.4478910000000 1.0
C      1  0.4861210000000  0.4758530000000  0.4272130000000 1.0
C      1  0.5785670000000  0.5546360000000  0.5502130000000 1.0
C      1  0.5248670000000  0.4807250000000  0.4118610000000 1.0
C      1  0.4524640000000  0.4049340000000  0.5241100000000 1.0
C      1  0.5253940000000  0.5327690000000  0.4786310000000 1.0
C      1  0.4874300000000  0.5370200000000  0.5850980000000 1.0
C      1  0.5688500000000  0.5749950000000  0.5016630000000 1.0
C      1  0.4090520000000  0.5223490000000  0.5807270000000 1.0
C      1  0.4610940000000  0.5210020000000  0.4924400000000 1.0
C      1  0.5276380000000  0.5203070000000  0.5163330000000 1.0
C      1  0.4316450000000  0.5595230000000  0.4734530000000 1.0
C      1  0.5509550000000  0.5105840000000  0.4766740000000 1.0
C      1  0.5292330000000  0.4218380000000  0.5702500000000 1.0
C      1  0.4589730000000  0.4472650000000  0.4553560000000 1.0
C      1  0.5730040000000  0.4845810000000  0.4360130000000 1.0
C      1  0.5864280000000  0.5351230000000  0.4367940000000 1.0
C      1  0.5328290000000  0.4976620000000  0.5481880000000 1.0
C      1  0.5874520000000  0.5050430000000  0.5557180000000 1.0
C      1  0.4945960000000  0.4794400000000  0.5030710000000 1.0
C      1  0.4858560000000  0.4513310000000  0.5618810000000 1.0
C      1  0.4316840000000  0.4110380000000  0.4978320000000 1.0
C      1  0.4531780000000  0.5116350000000  0.3901780000000 1.0
C      1  0.4657130000000  0.5707370000000  0.4907880000000 1.0
C      1  0.5099770000000  0.4866080000000  0.5680540000000 1.0
C      1  0.5333720000000  0.4333580000000  0.5176210000000 1.0
C      1  0.4466040000000  0.4582600000000  0.5595630000000 1.0
C      1  0.5011770000000  0.6020830000000  0.4722650000000 1.0
C      1  0.4235800000000  0.5697750000000  0.4999120000000 1.0
C      1  0.5814050000000  0.4642000000000  0.4580250000000 1.0
C      1  0.4449900000000  0.5847440000000  0.5219710000000 1.0
C      1  0.4669960000000  0.5296230000000  0.5314480000000 1.0
C      1  0.6007390000000  0.4680310000000  0.5006860000000 1.0
C      1  0.4811810000000  0.5292900000000  0.3854680000000 1.0
C      1  0.4658920000000  0.4634370000000  0.5867860000000 1.0
C      1  0.4952950000000  0.4785650000000  0.3956960000000 1.0
C      1  0.5063810000000  0.4959000000000  0.5268170000000 1.0
C      1  0.5620930000000  0.5084120000000  0.5731740000000 1.0
C      1  0.4372290000000  0.5528180000000  0.5443420000000 1.0
C      1  0.5414390000000  0.4163270000000  0.4694920000000 1.0
C      1  0.4332180000000  0.5153100000000  0.5717710000000 1.0
C      1  0.3945380000000  0.5410290000000  0.5666820000000 1.0
C      1  0.5280330000000  0.4596660000000  0.5577160000000 1.0
C      1  0.5326630000000  0.5438680000000  0.4066270000000 1.0
C      1  0.4843930000000  0.4264990000000  0.4487350000000 1.0
C      1  0.5196340000000  0.4871130000000  0.4451270000000 1.0
C      1  0.5453530000000  0.5692840000000  0.5257460000000 1.0
C      1  0.5017120000000  0.5445800000000  0.3946490000000 1.0
C      1  0.4168930000000  0.4685580000000  0.4818880000000 1.0
C      1  0.5495020000000  0.4984980000000  0.4212290000000 1.0
C      1  0.5225170000000  0.5908960000000  0.4896590000000 1.0
C      1  0.5325710000000  0.5620120000000  0.4948210000000 1.0
C      1  0.4285360000000  0.4497430000000  0.5316340000000 1.0
END
