TITL C-2782238-9940-545 -0.0043021730195356 125000 -787.813074680906 0 0 138 (C1) n - 1
REM
REM in /home/nfs/bkarasulu/CARBON/AIRSS/Generating-Clusters/REBO/Higher-Symm/SD-CG/HFTN-CG
REM
REM
REM
REM
REM
REM ./C.cell (12c818d87b63d06a65506943cc24bca4)
REM
REM compiler GCC version 9.2.1 20190827 (Red Hat 9.2.1-1)
REM options -cpp -mtune=generic -march=x86-64 -g -O0 -fpre-include=/usr/include/finclude/math-vector-fortran.h
REM seed 1404756831 -89495766 1494168141 -1224102614 1100136065 -1656071923 -425077472 718752372 -1686381047 2135298687 842399375 1473309292 -737780442 679465648 51508390 1212213665 645297616 -619543042 2000817369 1047535150 -521196066 -659521465 -2028587093 1636416813 1891099258 956567862 2002198841 2147032064 -115025447 -116547842 -302839494 -739554901 1596306655
REM
CELL 1.54180   50.00000   50.00000   50.00000   90.00000   90.00000   90.00000
LATT -1
SFAC C  
C      1  0.5328490000000  0.5173100000000  0.4561080000000 1.0
C      1  0.5401620000000  0.5153710000000  0.5408270000000 1.0
C      1  0.5422240000000  0.4598100000000  0.5049950000000 1.0
C      1  0.4508620000000  0.4284960000000  0.4801110000000 1.0
C      1  0.4418170000000  0.5451640000000  0.4500530000000 1.0
C      1  0.4418770000000  0.5158400000000  0.5727550000000 1.0
C      1  0.4666320000000  0.4464490000000  0.4350090000000 1.0
C      1  0.4624320000000  0.5761920000000  0.4887860000000 1.0
C      1  0.4692030000000  0.4732730000000  0.5795880000000 1.0
C      1  0.4073660000000  0.5456610000000  0.5068560000000 1.0
C      1  0.4181090000000  0.4599960000000  0.5457660000000 1.0
C      1  0.4128800000000  0.4720310000000  0.4462140000000 1.0
C      1  0.5523990000000  0.4491150000000  0.4557980000000 1.0
C      1  0.5461160000000  0.5580280000000  0.4664290000000 1.0
C      1  0.5560470000000  0.5027910000000  0.5752990000000 1.0
C      1  0.5414270000000  0.5850940000000  0.4859570000000 1.0
C      1  0.5501050000000  0.4718060000000  0.5877830000000 1.0
C      1  0.5451850000000  0.4534610000000  0.4227650000000 1.0
C      1  0.4657650000000  0.5220700000000  0.4471410000000 1.0
C      1  0.4730980000000  0.5331720000000  0.5471550000000 1.0
C      1  0.4830210000000  0.4483870000000  0.5042550000000 1.0
C      1  0.4222120000000  0.5128880000000  0.4145960000000 1.0
C      1  0.4191410000000  0.5677290000000  0.5508070000000 1.0
C      1  0.4409400000000  0.4158850000000  0.5334600000000 1.0
C      1  0.5132960000000  0.5051930000000  0.3947690000000 1.0
C      1  0.5108640000000  0.5868570000000  0.5566240000000 1.0
C      1  0.5184840000000  0.4122400000000  0.5535240000000 1.0
C      1  0.4832150000000  0.5338330000000  0.4829280000000 1.0
C      1  0.4906800000000  0.4974330000000  0.5489730000000 1.0
C      1  0.4925800000000  0.4632140000000  0.4686730000000 1.0
C      1  0.5081870000000  0.4014460000000  0.5267280000000 1.0
C      1  0.4993750000000  0.5283500000000  0.3934630000000 1.0
C      1  0.5041150000000  0.5709940000000  0.5776290000000 1.0
C      1  0.5756400000000  0.4974970000000  0.4370170000000 1.0
C      1  0.5696640000000  0.5567170000000  0.5209940000000 1.0
C      1  0.5749290000000  0.4640880000000  0.5430150000000 1.0
C      1  0.5305950000000  0.5476550000000  0.4949080000000 1.0
C      1  0.5416160000000  0.4849930000000  0.5499550000000 1.0
C      1  0.5365340000000  0.4776300000000  0.4588490000000 1.0
C      1  0.5138400000000  0.5852490000000  0.4980690000000 1.0
C      1  0.5215380000000  0.4618420000000  0.5818920000000 1.0
C      1  0.5141790000000  0.4569130000000  0.4152250000000 1.0
C      1  0.4740490000000  0.4847710000000  0.4064080000000 1.0
C      1  0.4792860000000  0.5806120000000  0.5329010000000 1.0
C      1  0.4885660000000  0.4386800000000  0.5544330000000 1.0
C      1  0.5716330000000  0.4680720000000  0.4349260000000 1.0
C      1  0.5664210000000  0.5658710000000  0.4929180000000 1.0
C      1  0.5761370000000  0.4762240000000  0.5681560000000 1.0
C      1  0.5641470000000  0.5184660000000  0.4552080000000 1.0
C      1  0.5599600000000  0.5327380000000  0.5357500000000 1.0
C      1  0.5708000000000  0.4644020000000  0.5123970000000 1.0
C      1  0.4270470000000  0.4582320000000  0.4685990000000 1.0
C      1  0.4192850000000  0.5391830000000  0.4823620000000 1.0
C      1  0.4250310000000  0.4861760000000  0.5526390000000 1.0
C      1  0.5395440000000  0.4267230000000  0.4698480000000 1.0
C      1  0.5278920000000  0.5582310000000  0.4425390000000 1.0
C      1  0.5378950000000  0.5241920000000  0.5849280000000 1.0
C      1  0.5048570000000  0.4907330000000  0.5773690000000 1.0
C      1  0.5052510000000  0.4466680000000  0.4439920000000 1.0
C      1  0.4987350000000  0.5622270000000  0.4799980000000 1.0
C      1  0.6082250000000  0.5006130000000  0.4750790000000 1.0
C      1  0.6096760000000  0.5397800000000  0.5058110000000 1.0
C      1  0.6084670000000  0.4998980000000  0.5356200000000 1.0
C      1  0.4219150000000  0.4972470000000  0.4617410000000 1.0
C      1  0.4221650000000  0.5308630000000  0.5306940000000 1.0
C      1  0.4309110000000  0.4532490000000  0.5180150000000 1.0
C      1  0.4822520000000  0.5879080000000  0.5055720000000 1.0
C      1  0.4905730000000  0.4535540000000  0.5773810000000 1.0
C      1  0.4825360000000  0.4584830000000  0.4134290000000 1.0
C      1  0.5034190000000  0.4503630000000  0.5297150000000 1.0
C      1  0.4783450000000  0.5074750000000  0.4203140000000 1.0
C      1  0.4896100000000  0.5560290000000  0.5418910000000 1.0
C      1  0.5253250000000  0.5385010000000  0.4231950000000 1.0
C      1  0.5358020000000  0.5474990000000  0.5710160000000 1.0
C      1  0.5450420000000  0.4210370000000  0.4958340000000 1.0
C      1  0.4801420000000  0.5260400000000  0.5747820000000 1.0
C      1  0.4895620000000  0.4216530000000  0.4840330000000 1.0
C      1  0.4783290000000  0.5521200000000  0.4364550000000 1.0
C      1  0.5186340000000  0.5874560000000  0.5310370000000 1.0
C      1  0.5280830000000  0.4371830000000  0.5596490000000 1.0
C      1  0.5252720000000  0.4861680000000  0.4096300000000 1.0
C      1  0.4917970000000  0.3969910000000  0.5042150000000 1.0
C      1  0.4855910000000  0.5473110000000  0.4068250000000 1.0
C      1  0.4949730000000  0.5470350000000  0.5871330000000 1.0
C      1  0.4293880000000  0.4867520000000  0.4231650000000 1.0
C      1  0.4207240000000  0.5699490000000  0.5233790000000 1.0
C      1  0.4388860000000  0.4364880000000  0.5532430000000 1.0
C      1  0.4664180000000  0.5007820000000  0.5876920000000 1.0
C      1  0.4710020000000  0.4257900000000  0.4552360000000 1.0
C      1  0.4620200000000  0.5704820000000  0.4604120000000 1.0
C      1  0.4604200000000  0.4682820000000  0.5154450000000 1.0
C      1  0.4539540000000  0.4993900000000  0.4689330000000 1.0
C      1  0.4534310000000  0.5259180000000  0.5225390000000 1.0
C      1  0.4457060000000  0.5560050000000  0.5080110000000 1.0
C      1  0.4575540000000  0.4631800000000  0.5491640000000 1.0
C      1  0.4523760000000  0.4762530000000  0.4436290000000 1.0
C      1  0.5377620000000  0.5624270000000  0.5205820000000 1.0
C      1  0.5426920000000  0.4543470000000  0.5386110000000 1.0
C      1  0.5419270000000  0.4946780000000  0.4323610000000 1.0
C      1  0.5011190000000  0.5149810000000  0.4642590000000 1.0
C      1  0.5089550000000  0.5204060000000  0.5336930000000 1.0
C      1  0.5149150000000  0.4516140000000  0.4917070000000 1.0
C      1  0.5020070000000  0.5656400000000  0.4515700000000 1.0
C      1  0.5133820000000  0.5119660000000  0.5925920000000 1.0
C      1  0.5125370000000  0.4248490000000  0.4621800000000 1.0
C      1  0.5084800000000  0.5258620000000  0.5019180000000 1.0
C      1  0.5129420000000  0.4801550000000  0.5320320000000 1.0
C      1  0.5121790000000  0.4880240000000  0.4758150000000 1.0
C      1  0.4533730000000  0.5379110000000  0.4816500000000 1.0
C      1  0.4575370000000  0.4964090000000  0.5492220000000 1.0
C      1  0.4609720000000  0.4603130000000  0.4719630000000 1.0
C      1  0.4088150000000  0.5091850000000  0.5513520000000 1.0
C      1  0.4140500000000  0.4520200000000  0.4915800000000 1.0
C      1  0.4100470000000  0.5233150000000  0.4604900000000 1.0
C      1  0.5205780000000  0.5499820000000  0.5445600000000 1.0
C      1  0.5227310000000  0.4275160000000  0.5169190000000 1.0
C      1  0.5047980000000  0.5171790000000  0.4319700000000 1.0
C      1  0.4401550000000  0.4248010000000  0.5048820000000 1.0
C      1  0.4171460000000  0.5342110000000  0.4331730000000 1.0
C      1  0.4210280000000  0.5383810000000  0.5638610000000 1.0
C      1  0.6668120000000  0.4945790000000  0.5050480000000 1.0
C      1  0.7440660000000  0.4742260000000  0.5044970000000 1.0
C      1  0.4240570000000  0.5041470000000  0.5010470000000 1.0
C      1  0.4562130000000  0.4981110000000  0.5029040000000 1.0
C      1  0.6412920000000  0.5013020000000  0.5052300000000 1.0
C      1  0.5209510000000  0.4949940000000  0.5052530000000 1.0
C      1  0.2925440000000  0.5212250000000  0.4921000000000 1.0
C      1  0.3452430000000  0.5143820000000  0.4956850000000 1.0
C      1  0.3715920000000  0.5109600000000  0.4974770000000 1.0
C      1  0.6086700000000  0.5098970000000  0.5054620000000 1.0
C      1  0.3979410000000  0.5075390000000  0.4992700000000 1.0
C      1  0.2666140000000  0.5245930000000  0.4903360000000 1.0
C      1  0.5518530000000  0.4989430000000  0.5055600000000 1.0
C      1  0.6925630000000  0.4877940000000  0.5048640000000 1.0
C      1  0.7183150000000  0.4810100000000  0.5046810000000 1.0
C      1  0.5755450000000  0.5035110000000  0.5055190000000 1.0
C      1  0.3188940000000  0.5178040000000  0.4938920000000 1.0
C      1  0.7694080000000  0.4675490000000  0.5043170000000 1.0
END
