TITL C-2782229-3092-177 -0.000929077234922509 125000 -293.428604027911 0 0 53 (C1) n - 1
REM
REM in /home/nfs/bkarasulu/CARBON/AIRSS/Generating-Clusters/REBO/Higher-Symm/SD-CG/HFTN-CG
REM
REM
REM
REM
REM
REM ./C.cell (12c818d87b63d06a65506943cc24bca4)
REM
REM compiler GCC version 9.2.1 20190827 (Red Hat 9.2.1-1)
REM options -cpp -mtune=generic -march=x86-64 -g -O0 -fpre-include=/usr/include/finclude/math-vector-fortran.h
REM seed -2064020830 603768671 58147977 1219276000 -1788502339 -1536010771 321547103 103645088 1235081363 -1544978375 -1564522950 1208972992 1862089222 2099079939 -893883494 1879855066 24888723 -466382785 -1041144743 1714610706 1174134851 987199127 -1209811488 -121696692 1126511823 534219915 2049968416 297445258 1273125978 34815828 2064619492 2133515106 -1703012417
REM
CELL 1.54180   50.00000   50.00000   50.00000   90.00000   90.00000   90.00000
LATT -1
SFAC C  
C      1  0.5172770000000  0.5355230000000  0.4521120000000 1.0
C      1  0.5450130000000  0.4946200000000  0.4455060000000 1.0
C      1  0.5089830000000  0.4536870000000  0.4373280000000 1.0
C      1  0.4705020000000  0.4884590000000  0.4534820000000 1.0
C      1  0.4704980000000  0.5251800000000  0.4381480000000 1.0
C      1  0.5235480000000  0.4651490000000  0.5408680000000 1.0
C      1  0.5440820000000  0.5085320000000  0.5520630000000 1.0
C      1  0.5060010000000  0.5408160000000  0.5568720000000 1.0
C      1  0.4604930000000  0.5168510000000  0.5436430000000 1.0
C      1  0.4749580000000  0.4816950000000  0.5552500000000 1.0
C      1  0.5236870000000  0.5140740000000  0.4787930000000 1.0
C      1  0.5276790000000  0.4858600000000  0.4715110000000 1.0
C      1  0.5046710000000  0.4710310000000  0.4646070000000 1.0
C      1  0.4760090000000  0.5069420000000  0.4815900000000 1.0
C      1  0.4985370000000  0.5310620000000  0.4871050000000 1.0
C      1  0.5337400000000  0.4874030000000  0.5162690000000 1.0
C      1  0.5235420000000  0.5150270000000  0.5249610000000 1.0
C      1  0.4952970000000  0.5099250000000  0.5294390000000 1.0
C      1  0.4602590000000  0.4958130000000  0.5175190000000 1.0
C      1  0.5098570000000  0.4711550000000  0.5040170000000 1.0
C      1  0.5522130000000  0.4639300000000  0.4740470000000 1.0
C      1  0.4800610000000  0.4550880000000  0.4813060000000 1.0
C      1  0.4311290000000  0.5110290000000  0.4781270000000 1.0
C      1  0.4780750000000  0.5561550000000  0.4759460000000 1.0
C      1  0.5514330000000  0.5318820000000  0.4817920000000 1.0
C      1  0.5464620000000  0.5378300000000  0.5208910000000 1.0
C      1  0.4773630000000  0.5538260000000  0.5154030000000 1.0
C      1  0.4230560000000  0.5006200000000  0.5297190000000 1.0
C      1  0.4816500000000  0.4483380000000  0.5204530000000 1.0
C      1  0.5573520000000  0.4578740000000  0.5276440000000 1.0
C      1  0.4996330000000  0.5684800000000  0.4993720000000 1.0
C      1  0.5581860000000  0.5090080000000  0.5061200000000 1.0
C      1  0.5369290000000  0.4505480000000  0.5013220000000 1.0
C      1  0.4586460000000  0.4644550000000  0.5033680000000 1.0
C      1  0.4310770000000  0.5241870000000  0.5080180000000 1.0
C      1  0.5050990000000  0.4386180000000  0.4978310000000 1.0
C      1  0.5670720000000  0.4765030000000  0.5009040000000 1.0
C      1  0.5261790000000  0.5495850000000  0.4966030000000 1.0
C      1  0.4594980000000  0.5340320000000  0.4944070000000 1.0
C      1  0.4325960000000  0.4855110000000  0.5004640000000 1.0
C      1  0.4420770000000  0.4899340000000  0.5523140000000 1.0
C      1  0.4788780000000  0.5440170000000  0.5412770000000 1.0
C      1  0.5350390000000  0.5400420000000  0.5531950000000 1.0
C      1  0.5507820000000  0.4810460000000  0.5517080000000 1.0
C      1  0.4930000000000  0.4629190000000  0.5424270000000 1.0
C      1  0.4466500000000  0.5130020000000  0.4554410000000 1.0
C      1  0.4762530000000  0.4555120000000  0.4471520000000 1.0
C      1  0.5398430000000  0.4620110000000  0.4421300000000 1.0
C      1  0.5480660000000  0.5232450000000  0.4488200000000 1.0
C      1  0.4898000000000  0.5428370000000  0.4499670000000 1.0
C      1  0.4825140000000  0.5007920000000  0.4238860000000 1.0
C      1  0.4887200000000  0.5118660000000  0.5623640000000 1.0
C      1  0.4888580000000  0.4904390000000  0.5053730000000 1.0
END
