TITL C-2782230-7391-152 -0.000501713507525741 125000 -482.407208771443 0 0 82 (C1) n - 1
REM
REM in /home/nfs/bkarasulu/CARBON/AIRSS/Generating-Clusters/REBO/Higher-Symm/SD-CG/HFTN-CG
REM
REM
REM
REM
REM
REM ./C.cell (12c818d87b63d06a65506943cc24bca4)
REM
REM compiler GCC version 9.2.1 20190827 (Red Hat 9.2.1-1)
REM options -cpp -mtune=generic -march=x86-64 -g -O0 -fpre-include=/usr/include/finclude/math-vector-fortran.h
REM seed -1147873243 -824319303 -1236351608 -72394475 -369333508 1602516172 -551145332 1499106287 -11611057 -1947542205 2042176905 -371246722 2057461501 -712845990 -2096446057 2127156160 -717359440 251225686 -1965833144 1542287275 -612455974 1924112246 -1287207293 1739932016 -222186229 -2101523560 -1314628470 1894887878 2023856474 -835908320 -281283920 108619023 2117443582
REM
CELL 1.54180   50.00000   50.00000   50.00000   90.00000   90.00000   90.00000
LATT -1
SFAC C  
C      1  0.4803180000000  0.5729290000000  0.5269550000000 1.0
C      1  0.5245270000000  0.5541090000000  0.5056380000000 1.0
C      1  0.4893920000000  0.5721710000000  0.4720650000000 1.0
C      1  0.5115840000000  0.5702950000000  0.5294530000000 1.0
C      1  0.4689320000000  0.5728690000000  0.4967090000000 1.0
C      1  0.5198870000000  0.5677760000000  0.4790810000000 1.0
C      1  0.4695710000000  0.5343580000000  0.5672990000000 1.0
C      1  0.5693910000000  0.5273190000000  0.4982460000000 1.0
C      1  0.4647870000000  0.5336020000000  0.4389100000000 1.0
C      1  0.5419470000000  0.5372900000000  0.5617930000000 1.0
C      1  0.4287680000000  0.5333680000000  0.4971800000000 1.0
C      1  0.5409660000000  0.5370470000000  0.4386790000000 1.0
C      1  0.5474840000000  0.5615250000000  0.4609340000000 1.0
C      1  0.4396610000000  0.5612690000000  0.4832420000000 1.0
C      1  0.5176450000000  0.5610310000000  0.5617110000000 1.0
C      1  0.4598260000000  0.5596920000000  0.4601610000000 1.0
C      1  0.5690600000000  0.5562840000000  0.4811180000000 1.0
C      1  0.4864920000000  0.5617040000000  0.5590200000000 1.0
C      1  0.5167040000000  0.4859770000000  0.4605370000000 1.0
C      1  0.4379480000000  0.4802160000000  0.4769910000000 1.0
C      1  0.5115090000000  0.4874730000000  0.5424380000000 1.0
C      1  0.4634480000000  0.4795620000000  0.4596100000000 1.0
C      1  0.5359260000000  0.4877080000000  0.4823550000000 1.0
C      1  0.4906530000000  0.4824600000000  0.5650450000000 1.0
C      1  0.5578650000000  0.4476580000000  0.5550480000000 1.0
C      1  0.5152840000000  0.4430740000000  0.4225330000000 1.0
C      1  0.4266930000000  0.4433110000000  0.5285990000000 1.0
C      1  0.4402320000000  0.4445050000000  0.5522260000000 1.0
C      1  0.4876890000000  0.4410290000000  0.4212030000000 1.0
C      1  0.5708880000000  0.4535390000000  0.5316200000000 1.0
C      1  0.5384710000000  0.4984450000000  0.4294890000000 1.0
C      1  0.4228920000000  0.4946590000000  0.5041280000000 1.0
C      1  0.5408980000000  0.4979870000000  0.5671690000000 1.0
C      1  0.4660840000000  0.4967070000000  0.4242610000000 1.0
C      1  0.5825100000000  0.4900270000000  0.5002230000000 1.0
C      1  0.4603430000000  0.4958790000000  0.5703650000000 1.0
C      1  0.4893100000000  0.5121830000000  0.5802360000000 1.0
C      1  0.5622300000000  0.5024590000000  0.4770390000000 1.0
C      1  0.4470400000000  0.5082660000000  0.4501700000000 1.0
C      1  0.5198780000000  0.5176140000000  0.5787220000000 1.0
C      1  0.4251510000000  0.5115500000000  0.4742560000000 1.0
C      1  0.5598450000000  0.5110630000000  0.4477720000000 1.0
C      1  0.4659770000000  0.4639620000000  0.4310690000000 1.0
C      1  0.4638950000000  0.4628580000000  0.5673320000000 1.0
C      1  0.5847630000000  0.4618650000000  0.5044420000000 1.0
C      1  0.5290190000000  0.4698840000000  0.4358120000000 1.0
C      1  0.5326520000000  0.4687750000000  0.5604150000000 1.0
C      1  0.4248900000000  0.4615040000000  0.5008300000000 1.0
C      1  0.4493990000000  0.5156860000000  0.5471430000000 1.0
C      1  0.5738400000000  0.5082700000000  0.5247790000000 1.0
C      1  0.4895140000000  0.5170080000000  0.4222990000000 1.0
C      1  0.5603360000000  0.5120260000000  0.5484060000000 1.0
C      1  0.4367130000000  0.5153420000000  0.5249790000000 1.0
C      1  0.5166260000000  0.5185260000000  0.4235370000000 1.0
C      1  0.4691530000000  0.4306760000000  0.4990790000000 1.0
C      1  0.5153620000000  0.4297820000000  0.5286370000000 1.0
C      1  0.5145240000000  0.4327900000000  0.4758000000000 1.0
C      1  0.5286070000000  0.4414440000000  0.5029850000000 1.0
C      1  0.4853950000000  0.4318050000000  0.5287400000000 1.0
C      1  0.4860570000000  0.4292530000000  0.4737300000000 1.0
C      1  0.4747680000000  0.5051560000000  0.5181190000000 1.0
C      1  0.5152700000000  0.5247610000000  0.5034640000000 1.0
C      1  0.4773490000000  0.5200900000000  0.4733870000000 1.0
C      1  0.5032930000000  0.5063790000000  0.5231640000000 1.0
C      1  0.4620010000000  0.5109530000000  0.4943480000000 1.0
C      1  0.5047590000000  0.5207690000000  0.4769140000000 1.0
C      1  0.4700100000000  0.4326910000000  0.5544950000000 1.0
C      1  0.5590610000000  0.4416960000000  0.5041320000000 1.0
C      1  0.4738590000000  0.4360680000000  0.4494120000000 1.0
C      1  0.5284560000000  0.4363160000000  0.5529290000000 1.0
C      1  0.4388950000000  0.4311990000000  0.5011170000000 1.0
C      1  0.5276870000000  0.4399100000000  0.4519130000000 1.0
C      1  0.5435580000000  0.5621870000000  0.5395970000000 1.0
C      1  0.5168510000000  0.5591920000000  0.4462460000000 1.0
C      1  0.4460590000000  0.5558830000000  0.5159470000000 1.0
C      1  0.4564120000000  0.5556210000000  0.5444520000000 1.0
C      1  0.4869200000000  0.5594120000000  0.4401880000000 1.0
C      1  0.5561890000000  0.5544980000000  0.5116870000000 1.0
C      1  0.4772680000000  0.4592600000000  0.5126990000000 1.0
C      1  0.5225980000000  0.4723850000000  0.5028750000000 1.0
C      1  0.4905860000000  0.4824550000000  0.4714460000000 1.0
C      1  0.4941470000000  0.4759290000000  0.4989360000000 1.0
END
