TITL C-2782238-9940-965 0.000248097269457718 125000 -404.17482964113 0 0 70 (C5) n - 1
REM
REM in /home/nfs/bkarasulu/CARBON/AIRSS/Generating-Clusters/REBO/Higher-Symm/SD-CG/HFTN-CG
REM
REM
REM
REM
REM
REM ./C.cell (12c818d87b63d06a65506943cc24bca4)
REM
REM compiler GCC version 9.2.1 20190827 (Red Hat 9.2.1-1)
REM options -cpp -mtune=generic -march=x86-64 -g -O0 -fpre-include=/usr/include/finclude/math-vector-fortran.h
REM seed 1655881298 1522351788 1211216080 913178806 1114431737 2038746246 1611281868 2003896162 122695766 2062064088 -2042172164 76435427 -223639473 -1578869813 -271040842 128344116 -450162392 1833911409 -78456265 1107534691 -1863736521 -1793751283 -1929089653 1610106000 -609667257 1711086310 180454157 1431799323 1023577391 1758054037 739970310 -948481628 -1100593023
REM
CELL 1.54180   50.00000   50.00000   50.00000   90.00000   90.00000   90.00000
LATT -1
SFAC C  
C      1  0.4325740000000  0.4520630000000  0.5357090000000 1.0
C      1  0.4324590000000  0.4511670000000  0.4655460000000 1.0
C      1  0.4322750000000  0.5176440000000  0.4428700000000 1.0
C      1  0.4322670000000  0.5598220000000  0.4991050000000 1.0
C      1  0.4322920000000  0.5193770000000  0.5565890000000 1.0
C      1  0.4854050000000  0.4751500000000  0.4615300000000 1.0
C      1  0.4853770000000  0.5289450000000  0.4644340000000 1.0
C      1  0.4853840000000  0.5427980000000  0.5165120000000 1.0
C      1  0.4854030000000  0.4975340000000  0.5458040000000 1.0
C      1  0.4854240000000  0.4558240000000  0.5117910000000 1.0
C      1  0.5384840000000  0.5628510000000  0.5340280000000 1.0
C      1  0.5385030000000  0.4869400000000  0.5701580000000 1.0
C      1  0.5380610000000  0.4290620000000  0.5100230000000 1.0
C      1  0.5384150000000  0.4691600000000  0.4355230000000 1.0
C      1  0.5384380000000  0.5518580000000  0.4507390000000 1.0
C      1  0.5204850000000  0.5578110000000  0.5536950000000 1.0
C      1  0.5197110000000  0.4661500000000  0.5713100000000 1.0
C      1  0.5203190000000  0.4215670000000  0.4909020000000 1.0
C      1  0.5204180000000  0.4847910000000  0.4225620000000 1.0
C      1  0.5204190000000  0.5689940000000  0.4615980000000 1.0
C      1  0.4902770000000  0.5586580000000  0.4679570000000 1.0
C      1  0.4903230000000  0.5486220000000  0.5458550000000 1.0
C      1  0.4901120000000  0.4713410000000  0.5605940000000 1.0
C      1  0.4902730000000  0.4338110000000  0.4915420000000 1.0
C      1  0.4902820000000  0.4876690000000  0.4343520000000 1.0
C      1  0.4617990000000  0.5178930000000  0.4798230000000 1.0
C      1  0.4617910000000  0.5247560000000  0.5107800000000 1.0
C      1  0.4617750000000  0.4974360000000  0.5268810000000 1.0
C      1  0.4617860000000  0.4736860000000  0.5058710000000 1.0
C      1  0.4617990000000  0.4863250000000  0.4767740000000 1.0
C      1  0.4821530000000  0.5194300000000  0.4348210000000 1.0
C      1  0.4821440000000  0.5680200000000  0.4983120000000 1.0
C      1  0.4821700000000  0.5226620000000  0.5641470000000 1.0
C      1  0.4824670000000  0.4460760000000  0.5412770000000 1.0
C      1  0.4823390000000  0.4440520000000  0.4614430000000 1.0
C      1  0.5100610000000  0.5260230000000  0.5070050000000 1.0
C      1  0.5100300000000  0.5013810000000  0.5268570000000 1.0
C      1  0.5100710000000  0.4749770000000  0.5095210000000 1.0
C      1  0.5100950000000  0.4831880000000  0.4790290000000 1.0
C      1  0.5100820000000  0.5147560000000  0.4774370000000 1.0
C      1  0.5160670000000  0.4418520000000  0.4662550000000 1.0
C      1  0.5159090000000  0.5143650000000  0.4343610000000 1.0
C      1  0.5159010000000  0.5668540000000  0.4933670000000 1.0
C      1  0.5159320000000  0.5269270000000  0.5614400000000 1.0
C      1  0.5162690000000  0.4489820000000  0.5448890000000 1.0
C      1  0.4295330000000  0.5283770000000  0.5008550000000 1.0
C      1  0.4295110000000  0.5079920000000  0.5272240000000 1.0
C      1  0.4294980000000  0.4766300000000  0.5159770000000 1.0
C      1  0.4295300000000  0.4776050000000  0.4826800000000 1.0
C      1  0.4295460000000  0.5095900000000  0.4733160000000 1.0
C      1  0.4522990000000  0.4388260000000  0.4565780000000 1.0
C      1  0.4521230000000  0.5223640000000  0.4283670000000 1.0
C      1  0.4521180000000  0.5750680000000  0.4991110000000 1.0
C      1  0.4521430000000  0.5240900000000  0.5710860000000 1.0
C      1  0.4524170000000  0.4397040000000  0.5446380000000 1.0
C      1  0.5355900000000  0.5452510000000  0.5080010000000 1.0
C      1  0.5355720000000  0.5062980000000  0.5454070000000 1.0
C      1  0.5355590000000  0.4589940000000  0.5200810000000 1.0
C      1  0.5355520000000  0.4680810000000  0.4669230000000 1.0
C      1  0.5355690000000  0.5216620000000  0.4594200000000 1.0
C      1  0.5858800000000  0.4611900000000  0.5204500000000 1.0
C      1  0.5859060000000  0.4685250000000  0.4693750000000 1.0
C      1  0.5859050000000  0.5193320000000  0.4605330000000 1.0
C      1  0.5859240000000  0.5434630000000  0.5061180000000 1.0
C      1  0.5859210000000  0.5075690000000  0.5431690000000 1.0
C      1  0.5599590000000  0.5120180000000  0.4757230000000 1.0
C      1  0.5599750000000  0.5267620000000  0.5038650000000 1.0
C      1  0.5599920000000  0.5045580000000  0.5265630000000 1.0
C      1  0.5599890000000  0.4761070000000  0.5124660000000 1.0
C      1  0.5599690000000  0.4806920000000  0.4810600000000 1.0
END
