TITL C-2782234-8014-219 0.000290608469604281 125000 -529.805082417587 0 0 91 (C1) n - 1
REM
REM in /home/nfs/bkarasulu/CARBON/AIRSS/Generating-Clusters/REBO/Higher-Symm/SD-CG/HFTN-CG
REM
REM
REM
REM
REM
REM ./C.cell (12c818d87b63d06a65506943cc24bca4)
REM
REM compiler GCC version 9.2.1 20190827 (Red Hat 9.2.1-1)
REM options -cpp -mtune=generic -march=x86-64 -g -O0 -fpre-include=/usr/include/finclude/math-vector-fortran.h
REM seed 277918904 921507652 -576097878 -1612237681 -349669278 1717048176 -1126497602 408414681 -1822833914 1041412891 201950926 -1576484148 1472239242 86535836 532278404 -709318836 1485926770 -529850239 1795603516 226102279 107000465 -1247829596 1683512950 329405549 1823528486 1768291392 -972310709 -28813912 470594863 -664588993 486517629 -873474710 -797804250
REM
CELL 1.54180   50.00000   50.00000   50.00000   90.00000   90.00000   90.00000
LATT -1
SFAC C  
C      1  0.4763100000000  0.5653950000000  0.4614270000000 1.0
C      1  0.4866700000000  0.4431340000000  0.5353410000000 1.0
C      1  0.5268690000000  0.5595830000000  0.5348210000000 1.0
C      1  0.5239430000000  0.4428720000000  0.4679260000000 1.0
C      1  0.4828110000000  0.4685260000000  0.5541340000000 1.0
C      1  0.4791250000000  0.5394760000000  0.4445600000000 1.0
C      1  0.5186770000000  0.5365950000000  0.5560030000000 1.0
C      1  0.5239720000000  0.4624870000000  0.4427560000000 1.0
C      1  0.5086610000000  0.4132640000000  0.5154890000000 1.0
C      1  0.5043240000000  0.5861850000000  0.4804980000000 1.0
C      1  0.4949640000000  0.4168770000000  0.4788830000000 1.0
C      1  0.4960000000000  0.5859910000000  0.5188080000000 1.0
C      1  0.5071020000000  0.5180240000000  0.4109530000000 1.0
C      1  0.5081760000000  0.4823450000000  0.5816680000000 1.0
C      1  0.4963730000000  0.4826470000000  0.4071310000000 1.0
C      1  0.4948520000000  0.5190630000000  0.5857610000000 1.0
C      1  0.5249550000000  0.5879240000000  0.5054900000000 1.0
C      1  0.5247610000000  0.4089200000000  0.4887670000000 1.0
C      1  0.4746280000000  0.5867240000000  0.4948080000000 1.0
C      1  0.4782010000000  0.4165740000000  0.5067730000000 1.0
C      1  0.5248850000000  0.5093190000000  0.5845600000000 1.0
C      1  0.5280080000000  0.4925520000000  0.4064740000000 1.0
C      1  0.4776160000000  0.4917280000000  0.5860040000000 1.0
C      1  0.4751160000000  0.5084320000000  0.4096300000000 1.0
C      1  0.4363020000000  0.4678120000000  0.5062890000000 1.0
C      1  0.4371880000000  0.5334170000000  0.4957920000000 1.0
C      1  0.5626910000000  0.4639390000000  0.4992950000000 1.0
C      1  0.5633160000000  0.5292220000000  0.5062370000000 1.0
C      1  0.4367400000000  0.5027130000000  0.4672120000000 1.0
C      1  0.4323880000000  0.4976920000000  0.5338920000000 1.0
C      1  0.5633860000000  0.4930730000000  0.4686070000000 1.0
C      1  0.5623450000000  0.5001330000000  0.5341240000000 1.0
C      1  0.4948020000000  0.4371000000000  0.4527630000000 1.0
C      1  0.4968690000000  0.5682870000000  0.5456100000000 1.0
C      1  0.5160210000000  0.4314610000000  0.5391150000000 1.0
C      1  0.5082490000000  0.5651600000000  0.4539970000000 1.0
C      1  0.4950840000000  0.4614900000000  0.4287230000000 1.0
C      1  0.4877610000000  0.5425810000000  0.5661270000000 1.0
C      1  0.5086650000000  0.5382460000000  0.4328500000000 1.0
C      1  0.5136110000000  0.4574970000000  0.5611280000000 1.0
C      1  0.5334670000000  0.5319480000000  0.5191520000000 1.0
C      1  0.5311670000000  0.4612810000000  0.4928910000000 1.0
C      1  0.4678950000000  0.5402570000000  0.4828680000000 1.0
C      1  0.4688530000000  0.4656450000000  0.5168640000000 1.0
C      1  0.5304680000000  0.5086400000000  0.5403920000000 1.0
C      1  0.5328710000000  0.4817520000000  0.4687860000000 1.0
C      1  0.4645210000000  0.4908970000000  0.5361990000000 1.0
C      1  0.4668370000000  0.5147680000000  0.4641990000000 1.0
C      1  0.5492340000000  0.5780930000000  0.5220810000000 1.0
C      1  0.5477540000000  0.4213280000000  0.4723620000000 1.0
C      1  0.4500560000000  0.5754670000000  0.4768620000000 1.0
C      1  0.4582020000000  0.4287170000000  0.5274570000000 1.0
C      1  0.5456390000000  0.5276370000000  0.5719840000000 1.0
C      1  0.5450240000000  0.4756740000000  0.4228230000000 1.0
C      1  0.4559600000000  0.4743730000000  0.5714890000000 1.0
C      1  0.4570880000000  0.5244760000000  0.4266780000000 1.0
C      1  0.5633770000000  0.4483530000000  0.4705480000000 1.0
C      1  0.5658850000000  0.5524160000000  0.5300170000000 1.0
C      1  0.4367270000000  0.4477150000000  0.5321430000000 1.0
C      1  0.4323290000000  0.5513610000000  0.4688630000000 1.0
C      1  0.5633160000000  0.4679640000000  0.4471830000000 1.0
C      1  0.5641000000000  0.5283520000000  0.5492500000000 1.0
C      1  0.4341840000000  0.5295520000000  0.4471030000000 1.0
C      1  0.4343080000000  0.4705020000000  0.5522500000000 1.0
C      1  0.4723970000000  0.5534930000000  0.5309200000000 1.0
C      1  0.4656860000000  0.4438490000000  0.4690230000000 1.0
C      1  0.5297920000000  0.5561570000000  0.4772140000000 1.0
C      1  0.5455230000000  0.4403710000000  0.5444050000000 1.0
C      1  0.4586270000000  0.5349460000000  0.5558990000000 1.0
C      1  0.4729640000000  0.4700380000000  0.4485580000000 1.0
C      1  0.5462180000000  0.4627850000000  0.5677460000000 1.0
C      1  0.5279360000000  0.5304260000000  0.4561800000000 1.0
C      1  0.4823120000000  0.5150570000000  0.5296680000000 1.0
C      1  0.4863890000000  0.4928650000000  0.4669560000000 1.0
C      1  0.5145550000000  0.5057470000000  0.4721200000000 1.0
C      1  0.5075160000000  0.4917250000000  0.5334140000000 1.0
C      1  0.4869220000000  0.5381290000000  0.5057390000000 1.0
C      1  0.4813190000000  0.4660870000000  0.4873560000000 1.0
C      1  0.5077400000000  0.4682330000000  0.5087870000000 1.0
C      1  0.5148210000000  0.5318570000000  0.4942410000000 1.0
C      1  0.5672900000000  0.4733820000000  0.5477600000000 1.0
C      1  0.5597460000000  0.5209130000000  0.4562630000000 1.0
C      1  0.4421200000000  0.4737860000000  0.4571380000000 1.0
C      1  0.4313330000000  0.5259940000000  0.5459200000000 1.0
C      1  0.5587290000000  0.5422770000000  0.4785980000000 1.0
C      1  0.5680700000000  0.4514610000000  0.5261980000000 1.0
C      1  0.4359100000000  0.4528610000000  0.4793290000000 1.0
C      1  0.4399720000000  0.5463840000000  0.5235890000000 1.0
C      1  0.5690890000000  0.4969970000000  0.5013480000000 1.0
C      1  0.4299960000000  0.5006420000000  0.5000850000000 1.0
C      1  0.4943450000000  0.4990560000000  0.5037750000000 1.0
END
