TITL C-2782236-320-426 0.00230757945282147 125000 -380.778688678916 0 0 69 (C2) n - 1
REM
REM in /home/nfs/bkarasulu/CARBON/AIRSS/Generating-Clusters/REBO/Higher-Symm/SD-CG/HFTN-CG
REM
REM
REM
REM
REM
REM ./C.cell (12c818d87b63d06a65506943cc24bca4)
REM
REM compiler GCC version 9.2.1 20190827 (Red Hat 9.2.1-1)
REM options -cpp -mtune=generic -march=x86-64 -g -O0 -fpre-include=/usr/include/finclude/math-vector-fortran.h
REM seed -939963196 -212833158 -9706111 116401774 -677061573 -385966664 1062609247 -1792526434 -1351353410 7714834 36692808 -1547080036 1631379500 -315129637 1778800340 -1900100733 -189483816 -109939249 750646127 -1734753789 1734732386 -34218668 1042981257 1391173087 -1801640774 355816056 383678759 -761186924 -822252918 -940286829 -1693538378 -1403407582 286198457
REM
CELL 1.54180   50.00000   50.00000   50.00000   90.00000   90.00000   90.00000
LATT -1
SFAC C  
C      1  0.5433710000000  0.4451790000000  0.4649690000000 1.0
C      1  0.5373440000000  0.4691030000000  0.5495190000000 1.0
C      1  0.5433660000000  0.5538990000000  0.5344940000000 1.0
C      1  0.5373470000000  0.5299750000000  0.4499440000000 1.0
C      1  0.4602160000000  0.4473820000000  0.4664960000000 1.0
C      1  0.4522870000000  0.4626460000000  0.5518040000000 1.0
C      1  0.4602110000000  0.5516940000000  0.5329610000000 1.0
C      1  0.4522900000000  0.5364290000000  0.4476520000000 1.0
C      1  0.5752070000000  0.5017290000000  0.4801790000000 1.0
C      1  0.5755590000000  0.4752450000000  0.4973610000000 1.0
C      1  0.5752060000000  0.4973500000000  0.5192870000000 1.0
C      1  0.5755580000000  0.5238340000000  0.5021050000000 1.0
C      1  0.4231470000000  0.5028570000000  0.4800920000000 1.0
C      1  0.4223280000000  0.4766020000000  0.4957860000000 1.0
C      1  0.4231450000000  0.4962170000000  0.5193610000000 1.0
C      1  0.4223270000000  0.5224720000000  0.5036670000000 1.0
C      1  0.4535270000000  0.4438220000000  0.5232410000000 1.0
C      1  0.4563970000000  0.5229470000000  0.5512060000000 1.0
C      1  0.4535280000000  0.5552530000000  0.4762150000000 1.0
C      1  0.4564020000000  0.4761280000000  0.4482500000000 1.0
C      1  0.5356740000000  0.4471750000000  0.5233430000000 1.0
C      1  0.5432510000000  0.5243110000000  0.5515770000000 1.0
C      1  0.5356740000000  0.5519030000000  0.4761200000000 1.0
C      1  0.5432560000000  0.4747680000000  0.4478870000000 1.0
C      1  0.5239980000000  0.5238230000000  0.5169870000000 1.0
C      1  0.5244090000000  0.5145680000000  0.4844330000000 1.0
C      1  0.5240010000000  0.4752550000000  0.4824750000000 1.0
C      1  0.5244080000000  0.4845100000000  0.5150290000000 1.0
C      1  0.4741550000000  0.5184400000000  0.5159260000000 1.0
C      1  0.4729940000000  0.5225340000000  0.4784000000000 1.0
C      1  0.4741570000000  0.4806360000000  0.4835310000000 1.0
C      1  0.4729930000000  0.4765420000000  0.5210580000000 1.0
C      1  0.4840570000000  0.4260120000000  0.4781530000000 1.0
C      1  0.4779160000000  0.4793430000000  0.5650060000000 1.0
C      1  0.4840520000000  0.5730640000000  0.5213050000000 1.0
C      1  0.4779210000000  0.5197330000000  0.4344520000000 1.0
C      1  0.5179250000000  0.4274720000000  0.4759340000000 1.0
C      1  0.5107250000000  0.4818630000000  0.5666860000000 1.0
C      1  0.5179210000000  0.5716060000000  0.5235270000000 1.0
C      1  0.5107300000000  0.5172140000000  0.4327750000000 1.0
C      1  0.5167670000000  0.4528300000000  0.4451140000000 1.0
C      1  0.5140080000000  0.4438910000000  0.5497290000000 1.0
C      1  0.5167610000000  0.5462470000000  0.5543470000000 1.0
C      1  0.5140110000000  0.5551870000000  0.4497320000000 1.0
C      1  0.4829670000000  0.4553440000000  0.4419900000000 1.0
C      1  0.4808300000000  0.4456110000000  0.5448190000000 1.0
C      1  0.4829600000000  0.5437320000000  0.5574680000000 1.0
C      1  0.4808320000000  0.5534650000000  0.4546390000000 1.0
C      1  0.4818990000000  0.5526880000000  0.4939770000000 1.0
C      1  0.4843770000000  0.4939820000000  0.4528350000000 1.0
C      1  0.4819010000000  0.4463890000000  0.5054810000000 1.0
C      1  0.4843730000000  0.5050940000000  0.5466240000000 1.0
C      1  0.5117620000000  0.5619920000000  0.4952720000000 1.0
C      1  0.5147680000000  0.4915880000000  0.4533020000000 1.0
C      1  0.5117640000000  0.4370860000000  0.5041890000000 1.0
C      1  0.5147640000000  0.5074890000000  0.5461590000000 1.0
C      1  0.4473780000000  0.5379560000000  0.5053230000000 1.0
C      1  0.4477770000000  0.5059940000000  0.4623480000000 1.0
C      1  0.4473800000000  0.4611190000000  0.4941320000000 1.0
C      1  0.4477740000000  0.4930810000000  0.5371070000000 1.0
C      1  0.5502080000000  0.5410970000000  0.5039050000000 1.0
C      1  0.5502850000000  0.5037630000000  0.4646170000000 1.0
C      1  0.5502100000000  0.4579820000000  0.4955590000000 1.0
C      1  0.5502820000000  0.4953150000000  0.5348470000000 1.0
C      1  0.4972100000000  0.5376870000000  0.5274950000000 1.0
C      1  0.5024780000000  0.5300480000000  0.4690250000000 1.0
C      1  0.5024760000000  0.4690290000000  0.5304350000000 1.0
C      1  0.4972140000000  0.4613900000000  0.4719650000000 1.0
C      1  0.4974520000000  0.4995380000000  0.4997300000000 1.0
END
