TITL C-2782239-8622-36 -0.00220362770575088 125000 -696.121674208521 0 0 119 (C1) n - 1
REM
REM in /home/nfs/bkarasulu/CARBON/AIRSS/Generating-Clusters/REBO/Higher-Symm/SD-CG/HFTN-CG
REM
REM
REM
REM
REM
REM ./C.cell (12c818d87b63d06a65506943cc24bca4)
REM
REM compiler GCC version 9.2.1 20190827 (Red Hat 9.2.1-1)
REM options -cpp -mtune=generic -march=x86-64 -g -O0 -fpre-include=/usr/include/finclude/math-vector-fortran.h
REM seed 1549977503 2042326916 -1888821993 -1146158909 577183391 -945196726 428800222 842110441 1803925192 -58925990 -793044297 -1257974357 -1912994037 -907741601 1777566683 1589508913 -1852791058 2035716307 -1445963071 27810034 1378535214 2035561322 -1191208370 -338270800 1659799304 -299330149 1868709750 1336366845 1310587186 1165324390 64031813 -913646571 1332360028
REM
CELL 1.54180   50.00000   50.00000   50.00000   90.00000   90.00000   90.00000
LATT -1
SFAC C  
C      1  0.4962100000000  0.5374030000000  0.4843400000000 1.0
C      1  0.5035290000000  0.4646200000000  0.5162730000000 1.0
C      1  0.5224780000000  0.4842370000000  0.4316700000000 1.0
C      1  0.4821920000000  0.5218780000000  0.5673840000000 1.0
C      1  0.4486710000000  0.5648580000000  0.5244710000000 1.0
C      1  0.5521350000000  0.4325400000000  0.4687610000000 1.0
C      1  0.4738790000000  0.4906810000000  0.5101280000000 1.0
C      1  0.5238600000000  0.5144460000000  0.5018920000000 1.0
C      1  0.5166880000000  0.5031940000000  0.5921760000000 1.0
C      1  0.4847610000000  0.4957770000000  0.4129270000000 1.0
C      1  0.5593600000000  0.5618900000000  0.5402580000000 1.0
C      1  0.4397930000000  0.4349500000000  0.4641360000000 1.0
C      1  0.4221280000000  0.5235500000000  0.5345390000000 1.0
C      1  0.5777090000000  0.4697050000000  0.4417730000000 1.0
C      1  0.4149470000000  0.4731680000000  0.5176200000000 1.0
C      1  0.5843020000000  0.5228280000000  0.4833660000000 1.0
C      1  0.5003490000000  0.4641780000000  0.4765550000000 1.0
C      1  0.4895600000000  0.5331210000000  0.5234620000000 1.0
C      1  0.3989210000000  0.5768940000000  0.4673320000000 1.0
C      1  0.6041830000000  0.4205630000000  0.5228850000000 1.0
C      1  0.4928170000000  0.5599570000000  0.5688790000000 1.0
C      1  0.5085530000000  0.4397570000000  0.4347050000000 1.0
C      1  0.4680160000000  0.5283240000000  0.4983890000000 1.0
C      1  0.5264330000000  0.4736260000000  0.4936970000000 1.0
C      1  0.4679650000000  0.4300400000000  0.4580380000000 1.0
C      1  0.5317220000000  0.5673010000000  0.5474960000000 1.0
C      1  0.3993250000000  0.5229460000000  0.5104610000000 1.0
C      1  0.5894570000000  0.4723760000000  0.4720900000000 1.0
C      1  0.5178500000000  0.5448210000000  0.5083820000000 1.0
C      1  0.4759680000000  0.4629450000000  0.4968740000000 1.0
C      1  0.3848590000000  0.4417790000000  0.4953730000000 1.0
C      1  0.6119310000000  0.5534020000000  0.5080170000000 1.0
C      1  0.5088760000000  0.5815240000000  0.5263320000000 1.0
C      1  0.4898280000000  0.4151070000000  0.4800430000000 1.0
C      1  0.5207980000000  0.5517960000000  0.5712170000000 1.0
C      1  0.4797150000000  0.4465560000000  0.4372150000000 1.0
C      1  0.5281370000000  0.5708900000000  0.4487730000000 1.0
C      1  0.4760500000000  0.4333940000000  0.5524000000000 1.0
C      1  0.5610670000000  0.4935100000000  0.4274800000000 1.0
C      1  0.4395690000000  0.5074820000000  0.5802340000000 1.0
C      1  0.4749260000000  0.4146360000000  0.5061160000000 1.0
C      1  0.5260120000000  0.5936350000000  0.5019260000000 1.0
C      1  0.4435150000000  0.5134870000000  0.4799980000000 1.0
C      1  0.5679010000000  0.4854080000000  0.5161570000000 1.0
C      1  0.5255260000000  0.4210560000000  0.4850820000000 1.0
C      1  0.4760450000000  0.5811610000000  0.5155220000000 1.0
C      1  0.4182280000000  0.4748800000000  0.5457570000000 1.0
C      1  0.5843850000000  0.5203200000000  0.4537840000000 1.0
C      1  0.4687190000000  0.5789220000000  0.4827540000000 1.0
C      1  0.5351230000000  0.4256670000000  0.5173740000000 1.0
C      1  0.5646440000000  0.5604520000000  0.5125070000000 1.0
C      1  0.4332630000000  0.4375370000000  0.4915360000000 1.0
C      1  0.5080670000000  0.4378120000000  0.5288650000000 1.0
C      1  0.4963460000000  0.5660910000000  0.4724630000000 1.0
C      1  0.5783710000000  0.4617090000000  0.5233650000000 1.0
C      1  0.4265270000000  0.5369120000000  0.4680070000000 1.0
C      1  0.4491870000000  0.5109590000000  0.5191060000000 1.0
C      1  0.5441350000000  0.4919470000000  0.4761650000000 1.0
C      1  0.4100100000000  0.4497920000000  0.5018370000000 1.0
C      1  0.5865910000000  0.5457010000000  0.5008780000000 1.0
C      1  0.5238800000000  0.4754810000000  0.5886650000000 1.0
C      1  0.4831230000000  0.5238550000000  0.4170870000000 1.0
C      1  0.5176000000000  0.5559960000000  0.4268560000000 1.0
C      1  0.4867830000000  0.4458510000000  0.5758970000000 1.0
C      1  0.4677010000000  0.4831310000000  0.5408310000000 1.0
C      1  0.5365880000000  0.5229670000000  0.4712550000000 1.0
C      1  0.4395990000000  0.4758410000000  0.4294890000000 1.0
C      1  0.5587140000000  0.5213250000000  0.5753890000000 1.0
C      1  0.4225620000000  0.4993120000000  0.5028760000000 1.0
C      1  0.5729560000000  0.4935300000000  0.4876180000000 1.0
C      1  0.4914630000000  0.5075780000000  0.5417240000000 1.0
C      1  0.5130480000000  0.4914900000000  0.4607500000000 1.0
C      1  0.4576470000000  0.4405410000000  0.5074950000000 1.0
C      1  0.5390790000000  0.5644120000000  0.4984590000000 1.0
C      1  0.5149330000000  0.4880740000000  0.5351960000000 1.0
C      1  0.4883400000000  0.5116350000000  0.4639250000000 1.0
C      1  0.5306170000000  0.4564700000000  0.4297380000000 1.0
C      1  0.4556560000000  0.5321410000000  0.5664160000000 1.0
C      1  0.5316950000000  0.5266950000000  0.5830380000000 1.0
C      1  0.4707430000000  0.4762140000000  0.4317840000000 1.0
C      1  0.5343640000000  0.5346620000000  0.4195890000000 1.0
C      1  0.4672640000000  0.4636690000000  0.5869390000000 1.0
C      1  0.4642040000000  0.5320800000000  0.4513000000000 1.0
C      1  0.5387080000000  0.4722680000000  0.5514440000000 1.0
C      1  0.5770190000000  0.4870030000000  0.5846810000000 1.0
C      1  0.4259020000000  0.5123300000000  0.4204910000000 1.0
C      1  0.4857880000000  0.5601050000000  0.5385990000000 1.0
C      1  0.5065090000000  0.4377100000000  0.4653490000000 1.0
C      1  0.4991410000000  0.4853650000000  0.3916210000000 1.0
C      1  0.4885740000000  0.5077360000000  0.5912830000000 1.0
C      1  0.4896320000000  0.5501250000000  0.4265960000000 1.0
C      1  0.5152970000000  0.4511600000000  0.5757880000000 1.0
C      1  0.5972460000000  0.4979400000000  0.4428350000000 1.0
C      1  0.4170340000000  0.5034420000000  0.5572700000000 1.0
C      1  0.4440760000000  0.5445930000000  0.5433930000000 1.0
C      1  0.5542590000000  0.4489100000000  0.4448530000000 1.0
C      1  0.5328540000000  0.4405000000000  0.5485090000000 1.0
C      1  0.4715370000000  0.5629510000000  0.4524350000000 1.0
C      1  0.5579010000000  0.4800460000000  0.5681540000000 1.0
C      1  0.4448480000000  0.5221000000000  0.4357360000000 1.0
C      1  0.5426500000000  0.5017370000000  0.5247230000000 1.0
C      1  0.4598510000000  0.4933460000000  0.4591350000000 1.0
C      1  0.5639170000000  0.5120390000000  0.5450000000000 1.0
C      1  0.4267700000000  0.4849990000000  0.4578870000000 1.0
C      1  0.4173810000000  0.5610970000000  0.4795310000000 1.0
C      1  0.5863830000000  0.4374520000000  0.5111570000000 1.0
C      1  0.5350240000000  0.5049160000000  0.4140410000000 1.0
C      1  0.4647990000000  0.4921520000000  0.5967520000000 1.0
C      1  0.5546460000000  0.5230420000000  0.4435440000000 1.0
C      1  0.4464790000000  0.4778690000000  0.5644470000000 1.0
C      1  0.4251370000000  0.4537200000000  0.4477860000000 1.0
C      1  0.5727680000000  0.5413470000000  0.5548290000000 1.0
C      1  0.5394600000000  0.5538450000000  0.4701760000000 1.0
C      1  0.4600890000000  0.4516390000000  0.5369420000000 1.0
C      1  0.4878850000000  0.4143330000000  0.5323730000000 1.0
C      1  0.5185480000000  0.5877740000000  0.4733640000000 1.0
C      1  0.5746990000000  0.4319180000000  0.4860060000000 1.0
C      1  0.4287580000000  0.5675910000000  0.5044760000000 1.0
C      1  0.4986620000000  0.5013070000000  0.5011510000000 1.0
END
