TITL C-2782228-2999-429 -0.00345877714794181 125000 -808.970958071337 0 0 140 (C1) n - 1
REM
REM in /home/nfs/bkarasulu/CARBON/AIRSS/Generating-Clusters/REBO/Higher-Symm/SD-CG/HFTN-CG
REM
REM
REM
REM
REM
REM ./C.cell (12c818d87b63d06a65506943cc24bca4)
REM
REM compiler GCC version 9.2.1 20190827 (Red Hat 9.2.1-1)
REM options -cpp -mtune=generic -march=x86-64 -g -O0 -fpre-include=/usr/include/finclude/math-vector-fortran.h
REM seed 929928156 -1941588805 128174352 1953713733 340087935 858181782 1985831026 1800715547 -990811543 992995584 145000944 2139636486 603707237 1383921446 -1279519369 784117586 2123294729 359657055 -807438317 278456593 -795634433 615256377 -590623071 1128369699 488286371 -1159332212 -1616019112 -1188156199 409181331 -1158403052 1771498094 631099355 -503924091
REM
CELL 1.54180   50.00000   50.00000   50.00000   90.00000   90.00000   90.00000
LATT -1
SFAC C  
C      1  0.4864360000000  0.4269270000000  0.4867580000000 1.0
C      1  0.4763440000000  0.4909810000000  0.4059980000000 1.0
C      1  0.4215560000000  0.4750640000000  0.4817840000000 1.0
C      1  0.5252850000000  0.5802200000000  0.4858270000000 1.0
C      1  0.5173890000000  0.4352870000000  0.5103970000000 1.0
C      1  0.4939230000000  0.5838110000000  0.5101280000000 1.0
C      1  0.5161150000000  0.5224310000000  0.4229300000000 1.0
C      1  0.5121360000000  0.4784720000000  0.5831610000000 1.0
C      1  0.4724470000000  0.5199210000000  0.5831190000000 1.0
C      1  0.5857890000000  0.5071160000000  0.4931900000000 1.0
C      1  0.5795460000000  0.4787690000000  0.5204480000000 1.0
C      1  0.4177960000000  0.5114830000000  0.5191870000000 1.0
C      1  0.4862600000000  0.4241430000000  0.5188520000000 1.0
C      1  0.4847230000000  0.4907610000000  0.5946290000000 1.0
C      1  0.4234180000000  0.4802200000000  0.5145050000000 1.0
C      1  0.5243700000000  0.5932400000000  0.5148940000000 1.0
C      1  0.5173820000000  0.4362270000000  0.4786950000000 1.0
C      1  0.4933060000000  0.5794480000000  0.4772880000000 1.0
C      1  0.5023150000000  0.5195540000000  0.5731870000000 1.0
C      1  0.5084470000000  0.4911810000000  0.4148500000000 1.0
C      1  0.4848630000000  0.5233010000000  0.4138430000000 1.0
C      1  0.5917890000000  0.5082400000000  0.5246610000000 1.0
C      1  0.5781530000000  0.4749210000000  0.4873760000000 1.0
C      1  0.4131860000000  0.5068000000000  0.4865570000000 1.0
C      1  0.4775710000000  0.4938210000000  0.4394890000000 1.0
C      1  0.4555840000000  0.4721750000000  0.4852850000000 1.0
C      1  0.4853640000000  0.4598380000000  0.4794020000000 1.0
C      1  0.5182410000000  0.5250710000000  0.4569670000000 1.0
C      1  0.5112120000000  0.4828370000000  0.5490280000000 1.0
C      1  0.4695070000000  0.5153610000000  0.5489580000000 1.0
C      1  0.5534380000000  0.5058470000000  0.4859180000000 1.0
C      1  0.5464090000000  0.4767800000000  0.5122680000000 1.0
C      1  0.4511310000000  0.5083330000000  0.5258680000000 1.0
C      1  0.5193500000000  0.5466860000000  0.4833170000000 1.0
C      1  0.5163700000000  0.4660400000000  0.5241180000000 1.0
C      1  0.4859370000000  0.5512780000000  0.5042930000000 1.0
C      1  0.4810800000000  0.4881450000000  0.5609450000000 1.0
C      1  0.4569060000000  0.4756230000000  0.5187100000000 1.0
C      1  0.4849310000000  0.4579580000000  0.5131830000000 1.0
C      1  0.5026930000000  0.5147770000000  0.5404720000000 1.0
C      1  0.5098840000000  0.4928770000000  0.4490090000000 1.0
C      1  0.4852760000000  0.5248730000000  0.4479940000000 1.0
C      1  0.5365210000000  0.5097830000000  0.5132990000000 1.0
C      1  0.5450170000000  0.4732940000000  0.4793670000000 1.0
C      1  0.4466580000000  0.5040670000000  0.4925320000000 1.0
C      1  0.5117210000000  0.5305910000000  0.5126080000000 1.0
C      1  0.5160970000000  0.4684530000000  0.4675200000000 1.0
C      1  0.4876630000000  0.5468010000000  0.4703050000000 1.0
C      1  0.5217510000000  0.4067940000000  0.5249680000000 1.0
C      1  0.5373030000000  0.5320670000000  0.4025430000000 1.0
C      1  0.3993020000000  0.5339300000000  0.5279340000000 1.0
C      1  0.4745710000000  0.6000170000000  0.5272600000000 1.0
C      1  0.4771990000000  0.4030200000000  0.4697800000000 1.0
C      1  0.5394880000000  0.5992680000000  0.4657400000000 1.0
C      1  0.4497850000000  0.4798280000000  0.3976950000000 1.0
C      1  0.4536410000000  0.5337090000000  0.6028910000000 1.0
C      1  0.5390850000000  0.4818220000000  0.5969440000000 1.0
C      1  0.5983390000000  0.4569390000000  0.5322010000000 1.0
C      1  0.6023110000000  0.5270690000000  0.4772420000000 1.0
C      1  0.4039620000000  0.4522910000000  0.4715450000000 1.0
C      1  0.5288960000000  0.4095880000000  0.4658010000000 1.0
C      1  0.5216090000000  0.5180560000000  0.5921820000000 1.0
C      1  0.4001420000000  0.5311490000000  0.4741720000000 1.0
C      1  0.4795940000000  0.6014160000000  0.4608010000000 1.0
C      1  0.4797720000000  0.4031170000000  0.5390320000000 1.0
C      1  0.5326980000000  0.6057750000000  0.5368780000000 1.0
C      1  0.4639040000000  0.4755900000000  0.6109660000000 1.0
C      1  0.4572920000000  0.5252570000000  0.3982430000000 1.0
C      1  0.5312700000000  0.4799070000000  0.3980270000000 1.0
C      1  0.5993760000000  0.4577540000000  0.4733600000000 1.0
C      1  0.5998480000000  0.5303720000000  0.5367450000000 1.0
C      1  0.4041710000000  0.4611830000000  0.5294820000000 1.0
C      1  0.5641310000000  0.5627280000000  0.5296380000000 1.0
C      1  0.5243230000000  0.5664550000000  0.5622200000000 1.0
C      1  0.5530040000000  0.5256630000000  0.5587010000000 1.0
C      1  0.4448650000000  0.4391170000000  0.5317050000000 1.0
C      1  0.4414140000000  0.5574010000000  0.4760380000000 1.0
C      1  0.5600760000000  0.4346280000000  0.4664980000000 1.0
C      1  0.4797870000000  0.4401940000000  0.5678990000000 1.0
C      1  0.4726370000000  0.5632820000000  0.4356700000000 1.0
C      1  0.5266300000000  0.4368430000000  0.4291610000000 1.0
C      1  0.4415800000000  0.4740820000000  0.5683310000000 1.0
C      1  0.4411760000000  0.5226430000000  0.4424690000000 1.0
C      1  0.5558610000000  0.4773830000000  0.4388060000000 1.0
C      1  0.5659780000000  0.5597190000000  0.4752880000000 1.0
C      1  0.5287990000000  0.5638170000000  0.4380030000000 1.0
C      1  0.5618850000000  0.5259410000000  0.4405790000000 1.0
C      1  0.4460440000000  0.4336960000000  0.4756640000000 1.0
C      1  0.4382970000000  0.5590680000000  0.5244340000000 1.0
C      1  0.5599750000000  0.4336820000000  0.5222130000000 1.0
C      1  0.4758460000000  0.4351550000000  0.4353760000000 1.0
C      1  0.4701980000000  0.5652480000000  0.5604140000000 1.0
C      1  0.5280950000000  0.4362740000000  0.5603420000000 1.0
C      1  0.4433490000000  0.4740550000000  0.4456180000000 1.0
C      1  0.4315210000000  0.5289370000000  0.5636060000000 1.0
C      1  0.5555820000000  0.4775190000000  0.5524010000000 1.0
C      1  0.5879840000000  0.4317250000000  0.5285730000000 1.0
C      1  0.5355410000000  0.5917520000000  0.4395990000000 1.0
C      1  0.4287530000000  0.5366230000000  0.5913230000000 1.0
C      1  0.4098860000000  0.5588900000000  0.5238290000000 1.0
C      1  0.4180830000000  0.4286720000000  0.4703810000000 1.0
C      1  0.5935090000000  0.5523360000000  0.4721160000000 1.0
C      1  0.4760730000000  0.4074010000000  0.4426570000000 1.0
C      1  0.4671890000000  0.5926380000000  0.5524220000000 1.0
C      1  0.5246580000000  0.4091990000000  0.5521740000000 1.0
C      1  0.5609220000000  0.4789280000000  0.5806670000000 1.0
C      1  0.5626710000000  0.5284240000000  0.4123240000000 1.0
C      1  0.4330910000000  0.4738270000000  0.4186550000000 1.0
C      1  0.5885070000000  0.4351570000000  0.4622450000000 1.0
C      1  0.5293540000000  0.5945820000000  0.5617310000000 1.0
C      1  0.4356790000000  0.5210930000000  0.4145940000000 1.0
C      1  0.4128470000000  0.5553760000000  0.4759180000000 1.0
C      1  0.4164960000000  0.4376850000000  0.5363710000000 1.0
C      1  0.5911580000000  0.5562900000000  0.5364930000000 1.0
C      1  0.4779530000000  0.4118010000000  0.5648810000000 1.0
C      1  0.4679240000000  0.5915800000000  0.4379860000000 1.0
C      1  0.5288180000000  0.4095560000000  0.4382350000000 1.0
C      1  0.5558270000000  0.4801280000000  0.4102450000000 1.0
C      1  0.5480860000000  0.5206750000000  0.5860440000000 1.0
C      1  0.4411960000000  0.4693310000000  0.5967950000000 1.0
C      1  0.4998480000000  0.4452390000000  0.4234290000000 1.0
C      1  0.4516090000000  0.4365410000000  0.5037750000000 1.0
C      1  0.5010750000000  0.5580720000000  0.4325520000000 1.0
C      1  0.5062560000000  0.4501680000000  0.5717570000000 1.0
C      1  0.4972300000000  0.5584030000000  0.5666540000000 1.0
C      1  0.5581650000000  0.5012990000000  0.4540660000000 1.0
C      1  0.4324060000000  0.5001250000000  0.5600860000000 1.0
C      1  0.5590520000000  0.5666510000000  0.5020080000000 1.0
C      1  0.5536640000000  0.4308920000000  0.4943700000000 1.0
C      1  0.4543300000000  0.5571920000000  0.5013160000000 1.0
C      1  0.4432080000000  0.4996060000000  0.4589840000000 1.0
C      1  0.5511900000000  0.5036150000000  0.5412130000000 1.0
C      1  0.4483860000000  0.5491280000000  0.5495990000000 1.0
C      1  0.5473710000000  0.4503540000000  0.5437310000000 1.0
C      1  0.5498270000000  0.5492480000000  0.4532940000000 1.0
C      1  0.4574800000000  0.4493310000000  0.4527320000000 1.0
C      1  0.4527220000000  0.5477700000000  0.4510330000000 1.0
C      1  0.5459670000000  0.4511170000000  0.4462100000000 1.0
C      1  0.4578580000000  0.4540170000000  0.5538560000000 1.0
C      1  0.5453930000000  0.5516320000000  0.5489440000000 1.0
END
