TITL C-2782227-3064-1171 0.000292448500672029 125000 -142.809804961233 0 0 27 (C1) n - 1
REM
REM in /home/nfs/bkarasulu/CARBON/AIRSS/Generating-Clusters/REBO/Higher-Symm/SD-CG/HFTN-CG
REM
REM
REM
REM
REM
REM ./C.cell (12c818d87b63d06a65506943cc24bca4)
REM
REM compiler GCC version 9.2.1 20190827 (Red Hat 9.2.1-1)
REM options -cpp -mtune=generic -march=x86-64 -g -O0 -fpre-include=/usr/include/finclude/math-vector-fortran.h
REM seed 1270346758 608595984 -354763676 1773032055 -1156046558 -1476667500 -1098363316 1547535298 -330951859 197739091 -687415162 1973319893 -3860606 1177905278 77843781 58155489 -1252031589 959717727 -1457990878 1958064365 -703913827 -1947031783 -1979442532 66166306 90710485 -1684020757 1934974601 -966475562 1211457592 -789551267 1119018654 -2055181259 898444436
REM
CELL 1.54180   50.00000   50.00000   50.00000   90.00000   90.00000   90.00000
LATT -1
SFAC C  
C      1  0.4682360000000  0.5715310000000  0.4643610000000 1.0
C      1  0.4500770000000  0.4618930000000  0.3787700000000 1.0
C      1  0.5170990000000  0.3961130000000  0.4867610000000 1.0
C      1  0.5164170000000  0.4438050000000  0.4848740000000 1.0
C      1  0.4805730000000  0.5499310000000  0.4750370000000 1.0
C      1  0.4724970000000  0.4676790000000  0.5089640000000 1.0
C      1  0.5117070000000  0.4990880000000  0.4991160000000 1.0
C      1  0.5074500000000  0.4179830000000  0.4457410000000 1.0
C      1  0.5312830000000  0.4885090000000  0.5902410000000 1.0
C      1  0.5192920000000  0.5000870000000  0.5688800000000 1.0
C      1  0.4977750000000  0.5211810000000  0.4889640000000 1.0
C      1  0.5428820000000  0.4773110000000  0.6109020000000 1.0
C      1  0.5032810000000  0.5656450000000  0.5249140000000 1.0
C      1  0.4995570000000  0.5926710000000  0.5246820000000 1.0
C      1  0.5011630000000  0.4976810000000  0.5424200000000 1.0
C      1  0.5148160000000  0.5535480000000  0.5480100000000 1.0
C      1  0.4734690000000  0.5059780000000  0.4406140000000 1.0
C      1  0.4811440000000  0.5204420000000  0.4609060000000 1.0
C      1  0.4577910000000  0.4764310000000  0.3991650000000 1.0
C      1  0.5271770000000  0.5692460000000  0.5665730000000 1.0
C      1  0.4962980000000  0.5502430000000  0.5036730000000 1.0
C      1  0.5324310000000  0.4862440000000  0.5202600000000 1.0
C      1  0.4656300000000  0.4912040000000  0.4198900000000 1.0
C      1  0.5136180000000  0.4189690000000  0.4722910000000 1.0
C      1  0.4865910000000  0.4824300000000  0.5254130000000 1.0
C      1  0.5191270000000  0.4678520000000  0.4970570000000 1.0
C      1  0.5126180000000  0.5263040000000  0.5515210000000 1.0
END
