TITL C-2782240-8521-395 0.00591680211763726 125000 -230.183369240508 0 0 43 (C1) n - 1
REM
REM in /home/nfs/bkarasulu/CARBON/AIRSS/Generating-Clusters/REBO/Higher-Symm/SD-CG/HFTN-CG
REM
REM
REM
REM
REM
REM ./C.cell (12c818d87b63d06a65506943cc24bca4)
REM
REM compiler GCC version 9.2.1 20190827 (Red Hat 9.2.1-1)
REM options -cpp -mtune=generic -march=x86-64 -g -O0 -fpre-include=/usr/include/finclude/math-vector-fortran.h
REM seed -440572252 1808406083 326190422 -450313071 -1927605331 -592562027 -20004907 925797747 -1060827014 1670743994 195527742 1546526939 407066134 810102282 -434907909 2062558720 -4570927 -1194248835 -408437099 1631617838 -233976469 -153812558 -498661539 904029828 1422286917 -1004070769 -323135283 -127893731 450910228 -1685544855 -132932071 -293068465 433288772
REM
CELL 1.54180   50.00000   50.00000   50.00000   90.00000   90.00000   90.00000
LATT -1
SFAC C  
C      1  0.4552650000000  0.5097130000000  0.4565320000000 1.0
C      1  0.5432010000000  0.4836740000000  0.4415040000000 1.0
C      1  0.4548500000000  0.5191300000000  0.5564240000000 1.0
C      1  0.5420550000000  0.4823150000000  0.5508750000000 1.0
C      1  0.5403490000000  0.5096750000000  0.4522480000000 1.0
C      1  0.4605970000000  0.4799680000000  0.4514580000000 1.0
C      1  0.5426030000000  0.5124240000000  0.5482150000000 1.0
C      1  0.4533130000000  0.4897970000000  0.5495330000000 1.0
C      1  0.5179770000000  0.4810990000000  0.5194880000000 1.0
C      1  0.4781650000000  0.5269810000000  0.5254110000000 1.0
C      1  0.5417310000000  0.4595830000000  0.4649470000000 1.0
C      1  0.4767720000000  0.5255410000000  0.4856480000000 1.0
C      1  0.4761080000000  0.4786140000000  0.5193580000000 1.0
C      1  0.5178690000000  0.5291370000000  0.5224580000000 1.0
C      1  0.4866450000000  0.4817920000000  0.4812820000000 1.0
C      1  0.5189100000000  0.5211690000000  0.4836110000000 1.0
C      1  0.5240850000000  0.4403250000000  0.4798790000000 1.0
C      1  0.4804780000000  0.5580890000000  0.4813490000000 1.0
C      1  0.5134640000000  0.4535800000000  0.5094720000000 1.0
C      1  0.4844590000000  0.5542510000000  0.5151810000000 1.0
C      1  0.4910490000000  0.4482450000000  0.4770530000000 1.0
C      1  0.5134710000000  0.5507870000000  0.4881720000000 1.0
C      1  0.4800510000000  0.4493350000000  0.5090990000000 1.0
C      1  0.5174760000000  0.5620760000000  0.5202680000000 1.0
C      1  0.5111070000000  0.4765900000000  0.5522530000000 1.0
C      1  0.4851870000000  0.5260200000000  0.5580660000000 1.0
C      1  0.5168770000000  0.4668840000000  0.4416710000000 1.0
C      1  0.4830760000000  0.5234600000000  0.4528700000000 1.0
C      1  0.4824180000000  0.4776660000000  0.5513180000000 1.0
C      1  0.5139550000000  0.5243460000000  0.5545230000000 1.0
C      1  0.4912950000000  0.4751340000000  0.4479860000000 1.0
C      1  0.5112990000000  0.5200160000000  0.4518410000000 1.0
C      1  0.4529150000000  0.4818950000000  0.4847810000000 1.0
C      1  0.5501590000000  0.5099550000000  0.4844020000000 1.0
C      1  0.4441810000000  0.4862500000000  0.5168150000000 1.0
C      1  0.5485770000000  0.5205500000000  0.5156500000000 1.0
C      1  0.5563930000000  0.4774920000000  0.4867700000000 1.0
C      1  0.4460910000000  0.5149150000000  0.4892670000000 1.0
C      1  0.5492420000000  0.4876840000000  0.5175350000000 1.0
C      1  0.4462950000000  0.5188790000000  0.5230950000000 1.0
C      1  0.4992930000000  0.5807870000000  0.4983830000000 1.0
C      1  0.5006430000000  0.4235560000000  0.4988460000000 1.0
C      1  0.4970660000000  0.5047110000000  0.5054710000000 1.0
END
