TITL C-2782238-9940-389 0.950388483152123 125000 -725.918109136934 0 0 127 (C1) n - 1
REM
REM in /home/nfs/bkarasulu/CARBON/AIRSS/Generating-Clusters/REBO/Higher-Symm/SD-CG/HFTN-CG
REM
REM
REM
REM
REM
REM ./C.cell (12c818d87b63d06a65506943cc24bca4)
REM
REM compiler GCC version 9.2.1 20190827 (Red Hat 9.2.1-1)
REM options -cpp -mtune=generic -march=x86-64 -g -O0 -fpre-include=/usr/include/finclude/math-vector-fortran.h
REM seed 1029964719 -259792998 2048943853 -538335797 -983732028 -1842240164 705567364 2014098305 150580823 -1177620317 -1092145121 491086976 -456584080 -1141866906 -1521203023 1005726718 331724021 -1810072030 327026912 -2104077953 -384687681 569796571 -2058899303 -1410011879 -504965710 289919643 1136712148 -38003350 1289623296 -19544200 -271510733 2126631893 794708196
REM
CELL 1.54180   50.00000   50.00000   50.00000   90.00000   90.00000   90.00000
LATT -1
SFAC C  
C      1  0.4878930000000  0.5424420000000  0.6107410000000 1.0
C      1  0.4689410000000  0.5245980000000  0.5987450000000 1.0
C      1  0.4624300000000  0.5006630000000  0.6132420000000 1.0
C      1  0.4735250000000  0.4756530000000  0.6050380000000 1.0
C      1  0.5010210000000  0.4633540000000  0.6144080000000 1.0
C      1  0.5303660000000  0.4707650000000  0.6071390000000 1.0
C      1  0.5398590000000  0.4966580000000  0.6138920000000 1.0
C      1  0.5364640000000  0.5201230000000  0.5986770000000 1.0
C      1  0.5142700000000  0.5422100000000  0.6005010000000 1.0
C      1  0.4689200000000  0.5314450000000  0.4461280000000 1.0
C      1  0.4404020000000  0.5191600000000  0.4304880000000 1.0
C      1  0.4366240000000  0.4693970000000  0.4301130000000 1.0
C      1  0.4858040000000  0.4427740000000  0.4308590000000 1.0
C      1  0.5192620000000  0.4389190000000  0.4330610000000 1.0
C      1  0.5534930000000  0.4750210000000  0.4371510000000 1.0
C      1  0.5534590000000  0.5089450000000  0.4337660000000 1.0
C      1  0.5301620000000  0.5352080000000  0.4513800000000 1.0
C      1  0.5012510000000  0.5398650000000  0.4387590000000 1.0
C      1  0.5478140000000  0.4182510000000  0.4687890000000 1.0
C      1  0.5899460000000  0.4755420000000  0.4688330000000 1.0
C      1  0.5840550000000  0.5477600000000  0.4562590000000 1.0
C      1  0.5365290000000  0.5760030000000  0.4719550000000 1.0
C      1  0.4757260000000  0.6148250000000  0.4707750000000 1.0
C      1  0.4333370000000  0.5565200000000  0.4612160000000 1.0
C      1  0.4015780000000  0.4936960000000  0.4583820000000 1.0
C      1  0.4280590000000  0.4354500000000  0.4643410000000 1.0
C      1  0.4906420000000  0.4034320000000  0.4609990000000 1.0
C      1  0.5020640000000  0.4618070000000  0.5810370000000 1.0
C      1  0.5344260000000  0.4629270000000  0.5753800000000 1.0
C      1  0.5475160000000  0.4862030000000  0.5611050000000 1.0
C      1  0.5377180000000  0.5160760000000  0.5651680000000 1.0
C      1  0.5155890000000  0.5381630000000  0.5702920000000 1.0
C      1  0.4918990000000  0.5350800000000  0.5559360000000 1.0
C      1  0.4707660000000  0.5215090000000  0.5695770000000 1.0
C      1  0.4641580000000  0.4953050000000  0.5597620000000 1.0
C      1  0.4741790000000  0.4727680000000  0.5737430000000 1.0
C      1  0.4480140000000  0.5874480000000  0.5056980000000 1.0
C      1  0.4080250000000  0.5257320000000  0.5011420000000 1.0
C      1  0.3923880000000  0.4665880000000  0.5054010000000 1.0
C      1  0.4557010000000  0.3940050000000  0.4966460000000 1.0
C      1  0.5088260000000  0.4145230000000  0.5106790000000 1.0
C      1  0.5690760000000  0.4323950000000  0.5077730000000 1.0
C      1  0.5925810000000  0.5140770000000  0.5022820000000 1.0
C      1  0.5900110000000  0.5753630000000  0.4992240000000 1.0
C      1  0.5058260000000  0.6083400000000  0.5085280000000 1.0
C      1  0.5734710000000  0.5631100000000  0.5237310000000 1.0
C      1  0.5144670000000  0.5864310000000  0.5279940000000 1.0
C      1  0.4588440000000  0.5707980000000  0.5269790000000 1.0
C      1  0.4223470000000  0.5205520000000  0.5260650000000 1.0
C      1  0.4179000000000  0.4637510000000  0.5240390000000 1.0
C      1  0.4550740000000  0.4128220000000  0.5209410000000 1.0
C      1  0.5142750000000  0.4203060000000  0.5436510000000 1.0
C      1  0.5690510000000  0.4404300000000  0.5396490000000 1.0
C      1  0.5874450000000  0.4994600000000  0.5295770000000 1.0
C      1  0.3980410000000  0.5183360000000  0.4720860000000 1.0
C      1  0.4134840000000  0.4447210000000  0.4892060000000 1.0
C      1  0.4649960000000  0.4056440000000  0.4728370000000 1.0
C      1  0.5338130000000  0.4028530000000  0.4910800000000 1.0
C      1  0.5844350000000  0.4571240000000  0.4917190000000 1.0
C      1  0.5936950000000  0.5287540000000  0.4742570000000 1.0
C      1  0.5571760000000  0.5835430000000  0.4936000000000 1.0
C      1  0.4967610000000  0.5993870000000  0.4831600000000 1.0
C      1  0.4386000000000  0.5781800000000  0.4763700000000 1.0
C      1  0.4578430000000  0.4774850000000  0.4072970000000 1.0
C      1  0.4824960000000  0.4641960000000  0.4077470000000 1.0
C      1  0.5138560000000  0.4625300000000  0.4109690000000 1.0
C      1  0.5346900000000  0.4807670000000  0.4125510000000 1.0
C      1  0.5378300000000  0.5086680000000  0.4047030000000 1.0
C      1  0.5231800000000  0.5290010000000  0.3931380000000 1.0
C      1  0.5011170000000  0.5391400000000  0.4065940000000 1.0
C      1  0.4743840000000  0.5280340000000  0.4122720000000 1.0
C      1  0.4562850000000  0.5057420000000  0.4043640000000 1.0
C      1  0.4973430000000  0.5429700000000  0.4721420000000 1.0
C      1  0.4692190000000  0.5287600000000  0.4803400000000 1.0
C      1  0.4489280000000  0.5047710000000  0.4679420000000 1.0
C      1  0.4549990000000  0.4802640000000  0.4560310000000 1.0
C      1  0.4748080000000  0.4554270000000  0.4583900000000 1.0
C      1  0.5080400000000  0.4499470000000  0.4632390000000 1.0
C      1  0.5368690000000  0.4677640000000  0.4653690000000 1.0
C      1  0.5449480000000  0.5009850000000  0.4660460000000 1.0
C      1  0.5230450000000  0.5220900000000  0.4814820000000 1.0
C      1  0.5728370000000  0.5300250000000  0.5307880000000 1.0
C      1  0.5466310000000  0.5793190000000  0.5238010000000 1.0
C      1  0.4923120000000  0.5678630000000  0.5331250000000 1.0
C      1  0.4473070000000  0.5432300000000  0.5272010000000 1.0
C      1  0.4342400000000  0.4930010000000  0.5282360000000 1.0
C      1  0.4300700000000  0.4356850000000  0.5170410000000 1.0
C      1  0.4819480000000  0.4165840000000  0.5314140000000 1.0
C      1  0.5371310000000  0.4365980000000  0.5283200000000 1.0
C      1  0.5800170000000  0.4676600000000  0.5223280000000 1.0
C      1  0.4358200000000  0.5506380000000  0.4345910000000 1.0
C      1  0.4222310000000  0.4957840000000  0.4392200000000 1.0
C      1  0.4215010000000  0.4444360000000  0.4392800000000 1.0
C      1  0.4906930000000  0.4110500000000  0.4343650000000 1.0
C      1  0.5401650000000  0.4182000000000  0.4423290000000 1.0
C      1  0.5826310000000  0.4667320000000  0.4433000000000 1.0
C      1  0.5719860000000  0.5345770000000  0.4339830000000 1.0
C      1  0.5454840000000  0.5577420000000  0.4527540000000 1.0
C      1  0.4802800000000  0.6342920000000  0.4524470000000 1.0
C      1  0.5761020000000  0.5014210000000  0.4761210000000 1.0
C      1  0.5788980000000  0.5722770000000  0.4692080000000 1.0
C      1  0.5082450000000  0.5742020000000  0.4759460000000 1.0
C      1  0.4501430000000  0.6076930000000  0.4806950000000 1.0
C      1  0.4284240000000  0.5309330000000  0.4749340000000 1.0
C      1  0.3977730000000  0.4712360000000  0.4744200000000 1.0
C      1  0.4555110000000  0.4318560000000  0.4681220000000 1.0
C      1  0.5089560000000  0.4211590000000  0.4777530000000 1.0
C      1  0.5550860000000  0.4460570000000  0.4798810000000 1.0
C      1  0.5048490000000  0.4679770000000  0.5078770000000 1.0
C      1  0.5294280000000  0.4635330000000  0.5166720000000 1.0
C      1  0.5509480000000  0.4820990000000  0.5280080000000 1.0
C      1  0.5455960000000  0.5142430000000  0.5328420000000 1.0
C      1  0.5214200000000  0.5221610000000  0.5120880000000 1.0
C      1  0.4946540000000  0.5359760000000  0.5244690000000 1.0
C      1  0.4684470000000  0.5254630000000  0.5110410000000 1.0
C      1  0.4620050000000  0.4959040000000  0.5171670000000 1.0
C      1  0.4801970000000  0.4777540000000  0.5104900000000 1.0
C      1  0.4267520000000  0.4126240000000  0.5395870000000 1.0
C      1  0.4890100000000  0.4172640000000  0.5633330000000 1.0
C      1  0.5431760000000  0.4377210000000  0.5614760000000 1.0
C      1  0.5776680000000  0.4863250000000  0.5574260000000 1.0
C      1  0.5867500000000  0.5503910000000  0.5521290000000 1.0
C      1  0.5379450000000  0.5936700000000  0.5514480000000 1.0
C      1  0.4726190000000  0.5783860000000  0.5569370000000 1.0
C      1  0.4269410000000  0.5399330000000  0.5528510000000 1.0
C      1  0.4244670000000  0.4750250000000  0.5554320000000 1.0
C      1  0.5085490000000  0.4993650000000  0.5323480000000 1.0
END
