TITL C-2782227-3064-59 0.00117617068922036 125000 -425.72283174519 0 0 74 (Ci) n - 1
REM
REM in /home/nfs/bkarasulu/CARBON/AIRSS/Generating-Clusters/REBO/Higher-Symm/SD-CG/HFTN-CG
REM
REM
REM
REM
REM
REM ./C.cell (12c818d87b63d06a65506943cc24bca4)
REM
REM compiler GCC version 9.2.1 20190827 (Red Hat 9.2.1-1)
REM options -cpp -mtune=generic -march=x86-64 -g -O0 -fpre-include=/usr/include/finclude/math-vector-fortran.h
REM seed -1226849198 1622113386 -2081192076 -135509279 1566569630 1262045119 570234365 789773675 1218734613 746913039 675025220 956651838 -1575170202 1256923230 2055394374 -951107147 -1629493107 -840285765 1498109522 -295519586 1508615398 268433805 618888505 -1520377105 -1263136050 -1524336810 919150100 1737212273 -1434560903 1277004870 1590539376 -1716821205 48506467
REM
CELL 1.54180   50.00000   50.00000   50.00000   90.00000   90.00000   90.00000
LATT -1
SFAC C  
C      1  0.5137940000000  0.6090170000000  0.4794130000000 1.0
C      1  0.4843170000000  0.6086110000000  0.4899700000000 1.0
C      1  0.4885550000000  0.6078900000000  0.5209490000000 1.0
C      1  0.5183820000000  0.6072920000000  0.5105950000000 1.0
C      1  0.5110910000000  0.3947100000000  0.4784150000000 1.0
C      1  0.4812640000000  0.3953090000000  0.4887690000000 1.0
C      1  0.4858520000000  0.3935830000000  0.5199510000000 1.0
C      1  0.5153280000000  0.3939900000000  0.5093940000000 1.0
C      1  0.4538310000000  0.4590450000000  0.4450510000000 1.0
C      1  0.4465400000000  0.4550050000000  0.5502050000000 1.0
C      1  0.5415790000000  0.4534220000000  0.5576820000000 1.0
C      1  0.5547250000000  0.4575660000000  0.4532200000000 1.0
C      1  0.4580670000000  0.5491780000000  0.4416820000000 1.0
C      1  0.4449210000000  0.5450350000000  0.5461440000000 1.0
C      1  0.5458140000000  0.5435560000000  0.5543130000000 1.0
C      1  0.5531060000000  0.5475960000000  0.4491580000000 1.0
C      1  0.4376250000000  0.5135470000000  0.5470880000000 1.0
C      1  0.5416500000000  0.5125810000000  0.5620350000000 1.0
C      1  0.5616770000000  0.5162870000000  0.4509990000000 1.0
C      1  0.4587910000000  0.5172940000000  0.4352130000000 1.0
C      1  0.4379690000000  0.4863130000000  0.5483650000000 1.0
C      1  0.5408540000000  0.4853060000000  0.5641510000000 1.0
C      1  0.5620210000000  0.4890540000000  0.4522760000000 1.0
C      1  0.4579960000000  0.4900200000000  0.4373290000000 1.0
C      1  0.5113920000000  0.4693110000000  0.5601960000000 1.0
C      1  0.5570770000000  0.4749340000000  0.4824680000000 1.0
C      1  0.4863990000000  0.4747600000000  0.4444490000000 1.0
C      1  0.4441280000000  0.4698150000000  0.5197290000000 1.0
C      1  0.5132460000000  0.5278400000000  0.5549150000000 1.0
C      1  0.5555180000000  0.5327850000000  0.4796350000000 1.0
C      1  0.4882530000000  0.5332890000000  0.4391680000000 1.0
C      1  0.4425680000000  0.5276660000000  0.5168960000000 1.0
C      1  0.5114290000000  0.5176620000000  0.4828510000000 1.0
C      1  0.4788800000000  0.5148460000000  0.4731820000000 1.0
C      1  0.4794420000000  0.5161610000000  0.5066390000000 1.0
C      1  0.5113970000000  0.5173560000000  0.5163650000000 1.0
C      1  0.5202040000000  0.4864390000000  0.4927240000000 1.0
C      1  0.4882490000000  0.4852450000000  0.4829990000000 1.0
C      1  0.4882170000000  0.4849390000000  0.5165130000000 1.0
C      1  0.5207660000000  0.4877540000000  0.5261820000000 1.0
C      1  0.5157470000000  0.5469120000000  0.5286040000000 1.0
C      1  0.5251360000000  0.5463280000000  0.4774460000000 1.0
C      1  0.4859620000000  0.5476810000000  0.4700000000000 1.0
C      1  0.4705710000000  0.5466080000000  0.5157710000000 1.0
C      1  0.5136830000000  0.4549200000000  0.5293640000000 1.0
C      1  0.5290750000000  0.4559920000000  0.4835930000000 1.0
C      1  0.4838990000000  0.4556890000000  0.4707600000000 1.0
C      1  0.4745100000000  0.4562720000000  0.5219170000000 1.0
C      1  0.5394200000000  0.5668810000000  0.5356580000000 1.0
C      1  0.5316490000000  0.5682330000000  0.4540460000000 1.0
C      1  0.4627420000000  0.5698970000000  0.4630950000000 1.0
C      1  0.4639780000000  0.5672140000000  0.5402550000000 1.0
C      1  0.5369040000000  0.4327030000000  0.5362690000000 1.0
C      1  0.5356670000000  0.4353870000000  0.4591080000000 1.0
C      1  0.4602260000000  0.4357190000000  0.4637060000000 1.0
C      1  0.4679970000000  0.4343680000000  0.5453170000000 1.0
C      1  0.4891330000000  0.5123490000000  0.5627700000000 1.0
C      1  0.5637660000000  0.5178040000000  0.5042750000000 1.0
C      1  0.5116820000000  0.5151450000000  0.4337500000000 1.0
C      1  0.4352620000000  0.5098360000000  0.4938960000000 1.0
C      1  0.4879630000000  0.4874560000000  0.5656130000000 1.0
C      1  0.5643830000000  0.4927640000000  0.5054680000000 1.0
C      1  0.5105120000000  0.4902520000000  0.4365940000000 1.0
C      1  0.4358800000000  0.4847960000000  0.4950880000000 1.0
C      1  0.4619040000000  0.4103410000000  0.4747280000000 1.0
C      1  0.4750570000000  0.4079430000000  0.5412710000000 1.0
C      1  0.5349840000000  0.4079600000000  0.5240460000000 1.0
C      1  0.5252360000000  0.4098830000000  0.4598400000000 1.0
C      1  0.4646620000000  0.5946400000000  0.4753180000000 1.0
C      1  0.4744100000000  0.5927180000000  0.5395240000000 1.0
C      1  0.5377420000000  0.5922600000000  0.5246350000000 1.0
C      1  0.5245890000000  0.5946580000000  0.4580920000000 1.0
C      1  0.4995830000000  0.4506630000000  0.4995660000000 1.0
C      1  0.5000620000000  0.5519370000000  0.4997970000000 1.0
END
