TITL C-2782235-7892-1224 -0.00249975662191349 125000 -521.251498342992 0 0 89 (C1) n - 1
REM
REM in /home/nfs/bkarasulu/CARBON/AIRSS/Generating-Clusters/REBO/Higher-Symm/SD-CG/HFTN-CG
REM
REM
REM
REM
REM
REM ./C.cell (12c818d87b63d06a65506943cc24bca4)
REM
REM compiler GCC version 9.2.1 20190827 (Red Hat 9.2.1-1)
REM options -cpp -mtune=generic -march=x86-64 -g -O0 -fpre-include=/usr/include/finclude/math-vector-fortran.h
REM seed -1224165549 -712135549 -1436516493 -2014448183 995180871 1443821868 -59092734 -94979798 913446640 531618616 1039604896 -1783693488 -923859571 2019777398 559424907 -1816123654 192151368 -265955563 -1554817105 6573670 -1518630827 -2060573488 -919721300 -422874659 333744243 1619022366 -501175014 -181611491 748802725 -1695234612 344774232 1325908112 1508082578
REM
CELL 1.54180   50.00000   50.00000   50.00000   90.00000   90.00000   90.00000
LATT -1
SFAC C  
C      1  0.4669620000000  0.5562450000000  0.4450670000000 1.0
C      1  0.4572090000000  0.4264550000000  0.4703260000000 1.0
C      1  0.4288610000000  0.5494110000000  0.5248850000000 1.0
C      1  0.5776780000000  0.4789330000000  0.4676010000000 1.0
C      1  0.4863120000000  0.5786810000000  0.4856760000000 1.0
C      1  0.4778770000000  0.4772170000000  0.4836630000000 1.0
C      1  0.5161870000000  0.4143420000000  0.4849560000000 1.0
C      1  0.5600480000000  0.4999330000000  0.5555130000000 1.0
C      1  0.5527020000000  0.5434420000000  0.5384240000000 1.0
C      1  0.4902500000000  0.4601310000000  0.5787780000000 1.0
C      1  0.4454800000000  0.5019320000000  0.4512500000000 1.0
C      1  0.5338600000000  0.4771050000000  0.4883500000000 1.0
C      1  0.4559930000000  0.5106800000000  0.4826010000000 1.0
C      1  0.4456420000000  0.4348120000000  0.4907350000000 1.0
C      1  0.4782960000000  0.5644980000000  0.5126300000000 1.0
C      1  0.4237960000000  0.4998110000000  0.4778320000000 1.0
C      1  0.4646300000000  0.4229700000000  0.5392170000000 1.0
C      1  0.4552830000000  0.4498480000000  0.5382160000000 1.0
C      1  0.5144060000000  0.4344540000000  0.5079450000000 1.0
C      1  0.5604770000000  0.5275320000000  0.5602620000000 1.0
C      1  0.4753900000000  0.4943890000000  0.5453660000000 1.0
C      1  0.4528390000000  0.4925900000000  0.5115350000000 1.0
C      1  0.4777330000000  0.4441800000000  0.4538860000000 1.0
C      1  0.5225350000000  0.5552920000000  0.4360680000000 1.0
C      1  0.5076650000000  0.3979150000000  0.5439740000000 1.0
C      1  0.4940380000000  0.4857760000000  0.4560640000000 1.0
C      1  0.5578340000000  0.5567010000000  0.4785560000000 1.0
C      1  0.4833260000000  0.4732270000000  0.4274320000000 1.0
C      1  0.4944640000000  0.5509230000000  0.4344630000000 1.0
C      1  0.5214820000000  0.5375010000000  0.5863950000000 1.0
C      1  0.5147970000000  0.4667710000000  0.5117150000000 1.0
C      1  0.5329760000000  0.5713380000000  0.4602240000000 1.0
C      1  0.4398830000000  0.5693740000000  0.4817010000000 1.0
C      1  0.5591870000000  0.4453360000000  0.4925900000000 1.0
C      1  0.4344020000000  0.5020680000000  0.5336280000000 1.0
C      1  0.5370860000000  0.4832860000000  0.4271750000000 1.0
C      1  0.4121400000000  0.5281980000000  0.4838230000000 1.0
C      1  0.5389960000000  0.5196890000000  0.4631630000000 1.0
C      1  0.5788030000000  0.4878300000000  0.5144300000000 1.0
C      1  0.4850570000000  0.5139910000000  0.4696670000000 1.0
C      1  0.4066990000000  0.5384350000000  0.5098470000000 1.0
C      1  0.5435910000000  0.4507140000000  0.5167550000000 1.0
C      1  0.5179030000000  0.4337950000000  0.4612320000000 1.0
C      1  0.4949760000000  0.4479480000000  0.4828160000000 1.0
C      1  0.4850070000000  0.4999800000000  0.5070420000000 1.0
C      1  0.5578920000000  0.4730010000000  0.5344850000000 1.0
C      1  0.4266820000000  0.5469900000000  0.4678410000000 1.0
C      1  0.5018840000000  0.4747640000000  0.5367670000000 1.0
C      1  0.5741640000000  0.5164540000000  0.5054540000000 1.0
C      1  0.4133920000000  0.4873580000000  0.5436150000000 1.0
C      1  0.4412660000000  0.5298990000000  0.5417020000000 1.0
C      1  0.5104470000000  0.5867720000000  0.4768400000000 1.0
C      1  0.4994830000000  0.5662210000000  0.5362680000000 1.0
C      1  0.4870310000000  0.5222740000000  0.4387020000000 1.0
C      1  0.5365010000000  0.5303180000000  0.4360050000000 1.0
C      1  0.5403950000000  0.5086010000000  0.4173600000000 1.0
C      1  0.5237910000000  0.5551060000000  0.5316580000000 1.0
C      1  0.5141390000000  0.5033700000000  0.5478150000000 1.0
C      1  0.4696690000000  0.5202560000000  0.5382870000000 1.0
C      1  0.4939610000000  0.5724820000000  0.5632320000000 1.0
C      1  0.5560000000000  0.4945940000000  0.4604250000000 1.0
C      1  0.5501490000000  0.5372950000000  0.5853580000000 1.0
C      1  0.5450240000000  0.4520860000000  0.4674390000000 1.0
C      1  0.4681970000000  0.4676650000000  0.5571040000000 1.0
C      1  0.4483140000000  0.4604850000000  0.5101640000000 1.0
C      1  0.5252320000000  0.5504540000000  0.4844940000000 1.0
C      1  0.5003830000000  0.4455880000000  0.4294870000000 1.0
C      1  0.4924300000000  0.4210770000000  0.5450600000000 1.0
C      1  0.5188580000000  0.4710450000000  0.5794860000000 1.0
C      1  0.5220560000000  0.3760370000000  0.5429490000000 1.0
C      1  0.5020500000000  0.4469180000000  0.5524810000000 1.0
C      1  0.5398540000000  0.5362930000000  0.5090990000000 1.0
C      1  0.5056290000000  0.5611540000000  0.5855350000000 1.0
C      1  0.5758140000000  0.5412280000000  0.4916430000000 1.0
C      1  0.5441720000000  0.5035720000000  0.5022400000000 1.0
C      1  0.4456710000000  0.5356770000000  0.4481580000000 1.0
C      1  0.5231030000000  0.4836610000000  0.4577240000000 1.0
C      1  0.4463800000000  0.5660890000000  0.5098970000000 1.0
C      1  0.5116040000000  0.5159940000000  0.5708060000000 1.0
C      1  0.4878190000000  0.5032050000000  0.4194490000000 1.0
C      1  0.4578580000000  0.4711590000000  0.4475830000000 1.0
C      1  0.4644760000000  0.5755010000000  0.4670510000000 1.0
C      1  0.5410430000000  0.4765000000000  0.5639810000000 1.0
C      1  0.5320930000000  0.4517470000000  0.4358810000000 1.0
C      1  0.4846540000000  0.5330910000000  0.5158130000000 1.0
C      1  0.4444840000000  0.4727390000000  0.4783090000000 1.0
C      1  0.5124790000000  0.5204060000000  0.4847110000000 1.0
C      1  0.5883350000000  0.4726730000000  0.4922400000000 1.0
C      1  0.5143790000000  0.5065260000000  0.5159360000000 1.0
END
