TITL C-2782235-7892-891 -0.00533377828249495 125000 -558.758045543407 0 0 100 (C1) n - 1
REM
REM in /home/nfs/bkarasulu/CARBON/AIRSS/Generating-Clusters/REBO/Higher-Symm/SD-CG/HFTN-CG
REM
REM
REM
REM
REM
REM ./C.cell (12c818d87b63d06a65506943cc24bca4)
REM
REM compiler GCC version 9.2.1 20190827 (Red Hat 9.2.1-1)
REM options -cpp -mtune=generic -march=x86-64 -g -O0 -fpre-include=/usr/include/finclude/math-vector-fortran.h
REM seed 1057899880 -1679838810 1560480097 -1612182611 474695091 818878477 -1201681908 2012613254 611720004 1845618245 2014192324 271804238 501980441 488457486 1208456036 -410290001 -1237010029 -1533662794 827448534 -2143623959 -391240046 1890953848 228692659 1786197972 1742150179 -1710368938 962390902 674626293 -1955117830 302079260 1907530500 2140573842 -1187710959
REM
CELL 1.54180   50.00000   50.00000   50.00000   90.00000   90.00000   90.00000
LATT -1
SFAC C  
C      1  0.4901820000000  0.5914390000000  0.4728800000000 1.0
C      1  0.4854320000000  0.4854320000000  0.5894990000000 1.0
C      1  0.4879450000000  0.4331710000000  0.4390460000000 1.0
C      1  0.5396190000000  0.4617600000000  0.5556460000000 1.0
C      1  0.5633810000000  0.4921140000000  0.4639040000000 1.0
C      1  0.5603370000000  0.5344930000000  0.5136010000000 1.0
C      1  0.4392540000000  0.5765900000000  0.5115040000000 1.0
C      1  0.4409640000000  0.4634710000000  0.5520420000000 1.0
C      1  0.4389400000000  0.4757110000000  0.4318670000000 1.0
C      1  0.4636820000000  0.5583800000000  0.5209380000000 1.0
C      1  0.4673770000000  0.4516610000000  0.5361100000000 1.0
C      1  0.4634820000000  0.4942850000000  0.4408230000000 1.0
C      1  0.4984610000000  0.4882520000000  0.5263710000000 1.0
C      1  0.5038200000000  0.4860500000000  0.4743310000000 1.0
C      1  0.5033000000000  0.5334010000000  0.4975400000000 1.0
C      1  0.5391780000000  0.4441880000000  0.4316680000000 1.0
C      1  0.5406710000000  0.5861170000000  0.4799220000000 1.0
C      1  0.5425030000000  0.4773610000000  0.5921870000000 1.0
C      1  0.5317080000000  0.4745880000000  0.4275600000000 1.0
C      1  0.5317910000000  0.5800210000000  0.5098090000000 1.0
C      1  0.5512180000000  0.4473430000000  0.5823490000000 1.0
C      1  0.5030740000000  0.4264110000000  0.5049720000000 1.0
C      1  0.5016820000000  0.5341040000000  0.4305630000000 1.0
C      1  0.4992060000000  0.5412840000000  0.5591000000000 1.0
C      1  0.4631330000000  0.5246140000000  0.4262000000000 1.0
C      1  0.4625260000000  0.5553810000000  0.5526030000000 1.0
C      1  0.4666300000000  0.4241730000000  0.5207990000000 1.0
C      1  0.4960920000000  0.4243400000000  0.5377860000000 1.0
C      1  0.4901120000000  0.5081070000000  0.4148110000000 1.0
C      1  0.4915310000000  0.5705500000000  0.5466110000000 1.0
C      1  0.4322580000000  0.5022980000000  0.4844510000000 1.0
C      1  0.4335380000000  0.5162940000000  0.5128690000000 1.0
C      1  0.4327540000000  0.4660030000000  0.5011950000000 1.0
C      1  0.5183810000000  0.4900120000000  0.5945870000000 1.0
C      1  0.5196060000000  0.4271390000000  0.4417530000000 1.0
C      1  0.5204380000000  0.5884420000000  0.4607290000000 1.0
C      1  0.5709270000000  0.5382190000000  0.4758180000000 1.0
C      1  0.5809340000000  0.4967210000000  0.5509400000000 1.0
C      1  0.5773380000000  0.4566860000000  0.4724770000000 1.0
C      1  0.4610320000000  0.5369590000000  0.4744410000000 1.0
C      1  0.4568830000000  0.5032120000000  0.5339860000000 1.0
C      1  0.4576510000000  0.4660740000000  0.4808270000000 1.0
C      1  0.5035130000000  0.5614230000000  0.4846430000000 1.0
C      1  0.5004260000000  0.4843700000000  0.5593580000000 1.0
C      1  0.5017890000000  0.4600040000000  0.4559670000000 1.0
C      1  0.5786760000000  0.5229550000000  0.5588390000000 1.0
C      1  0.5787840000000  0.4267230000000  0.4809610000000 1.0
C      1  0.5759460000000  0.5481870000000  0.4459660000000 1.0
C      1  0.4851020000000  0.5162660000000  0.5197050000000 1.0
C      1  0.4843090000000  0.4787670000000  0.4980160000000 1.0
C      1  0.4856380000000  0.5142550000000  0.4799290000000 1.0
C      1  0.4607690000000  0.4967630000000  0.4711690000000 1.0
C      1  0.4604960000000  0.5316320000000  0.5061100000000 1.0
C      1  0.4594270000000  0.4761490000000  0.5190210000000 1.0
C      1  0.5097070000000  0.5123990000000  0.5726820000000 1.0
C      1  0.5099960000000  0.4328360000000  0.4723710000000 1.0
C      1  0.5046120000000  0.5608370000000  0.4516390000000 1.0
C      1  0.5557380000000  0.5377910000000  0.5603290000000 1.0
C      1  0.5578540000000  0.4174640000000  0.4922330000000 1.0
C      1  0.5536060000000  0.5458940000000  0.4294990000000 1.0
C      1  0.4154260000000  0.4802590000000  0.4444430000000 1.0
C      1  0.4152950000000  0.5644590000000  0.5143890000000 1.0
C      1  0.4207310000000  0.4654950000000  0.5335110000000 1.0
C      1  0.4653940000000  0.5890990000000  0.4955520000000 1.0
C      1  0.4659050000000  0.4621000000000  0.5744430000000 1.0
C      1  0.4648430000000  0.4556140000000  0.4308180000000 1.0
C      1  0.5413790000000  0.5229010000000  0.4688160000000 1.0
C      1  0.5330270000000  0.5085020000000  0.5265200000000 1.0
C      1  0.5488120000000  0.4642610000000  0.4883850000000 1.0
C      1  0.4627740000000  0.4955260000000  0.5658860000000 1.0
C      1  0.4664190000000  0.4428280000000  0.4627650000000 1.0
C      1  0.4674100000000  0.5676860000000  0.4689290000000 1.0
C      1  0.5668120000000  0.4774190000000  0.5681390000000 1.0
C      1  0.5606630000000  0.4664550000000  0.4443700000000 1.0
C      1  0.5572660000000  0.5620140000000  0.4959460000000 1.0
C      1  0.4113950000000  0.5374350000000  0.5181220000000 1.0
C      1  0.3998740000000  0.4664060000000  0.5098850000000 1.0
C      1  0.4118810000000  0.4928970000000  0.4688080000000 1.0
C      1  0.5285850000000  0.4756170000000  0.5326650000000 1.0
C      1  0.5326540000000  0.4917640000000  0.4771970000000 1.0
C      1  0.5314220000000  0.5247620000000  0.4997260000000 1.0
C      1  0.4783380000000  0.5950880000000  0.5265640000000 1.0
C      1  0.4818350000000  0.4326340000000  0.5680530000000 1.0
C      1  0.4771740000000  0.4772410000000  0.4074520000000 1.0
C      1  0.4953230000000  0.5693150000000  0.5131700000000 1.0
C      1  0.4969190000000  0.4561410000000  0.5499040000000 1.0
C      1  0.4951190000000  0.4818330000000  0.4355460000000 1.0
C      1  0.4737950000000  0.4252240000000  0.4874240000000 1.0
C      1  0.4745480000000  0.5527760000000  0.4398160000000 1.0
C      1  0.4698770000000  0.5259560000000  0.5673140000000 1.0
C      1  0.5849350000000  0.5176750000000  0.4990490000000 1.0
C      1  0.5808550000000  0.4918610000000  0.5209530000000 1.0
C      1  0.5853380000000  0.4861020000000  0.4876480000000 1.0
C      1  0.4516060000000  0.4048210000000  0.4999550000000 1.0
C      1  0.4454590000000  0.5281880000000  0.4517920000000 1.0
C      1  0.4470400000000  0.5461320000000  0.5791580000000 1.0
C      1  0.5335610000000  0.4372650000000  0.4943200000000 1.0
C      1  0.5318500000000  0.5334220000000  0.4413910000000 1.0
C      1  0.5287780000000  0.5266910000000  0.5503900000000 1.0
C      1  0.5514550000000  0.4835910000000  0.5121160000000 1.0
END
