TITL C-2782228-2999-476 -0.136142094488664 125000 -910.845396073642 0 0 152 (C1) n - 1
REM
REM in /home/nfs/bkarasulu/CARBON/AIRSS/Generating-Clusters/REBO/Higher-Symm/SD-CG/HFTN-CG
REM
REM
REM
REM
REM
REM ./C.cell (12c818d87b63d06a65506943cc24bca4)
REM
REM compiler GCC version 9.2.1 20190827 (Red Hat 9.2.1-1)
REM options -cpp -mtune=generic -march=x86-64 -g -O0 -fpre-include=/usr/include/finclude/math-vector-fortran.h
REM seed 2113458131 -949598017 437598979 -1246158870 1104853297 -602607821 -1028507126 1920145280 857300992 -2137382225 -784808973 -1300744409 -1387851885 -88504936 -1020051933 1004166744 -2014241035 -1930094926 -613455448 -187273949 -635855781 -458260905 749306840 -1306111637 504543389 -1793437099 1018956492 -546187099 -737666221 752166112 -320332078 -912719534 -1937304037
REM
CELL 1.54180   50.00000   50.00000   50.00000   90.00000   90.00000   90.00000
LATT -1
SFAC C  
C      1  0.3882070000000  0.5062470000000  0.4692420000000 1.0
C      1  0.6119030000000  0.4931740000000  0.5331750000000 1.0
C      1  0.4538360000000  0.4284530000000  0.5521470000000 1.0
C      1  0.5475960000000  0.5778160000000  0.4449910000000 1.0
C      1  0.4593300000000  0.4381360000000  0.4952080000000 1.0
C      1  0.5439540000000  0.5587520000000  0.5001790000000 1.0
C      1  0.5850540000000  0.5000230000000  0.5374190000000 1.0
C      1  0.4186120000000  0.5033430000000  0.4638520000000 1.0
C      1  0.4431560000000  0.5468530000000  0.5102270000000 1.0
C      1  0.5536880000000  0.4555390000000  0.4924840000000 1.0
C      1  0.5690940000000  0.5551170000000  0.4820630000000 1.0
C      1  0.4314350000000  0.4341790000000  0.5085120000000 1.0
C      1  0.4937180000000  0.5662790000000  0.4235700000000 1.0
C      1  0.5058800000000  0.4263400000000  0.5791120000000 1.0
C      1  0.5388070000000  0.4817390000000  0.5946830000000 1.0
C      1  0.4589380000000  0.5115780000000  0.3964790000000 1.0
C      1  0.6239240000000  0.4983400000000  0.5090380000000 1.0
C      1  0.3795660000000  0.4995760000000  0.4920760000000 1.0
C      1  0.4631120000000  0.4210330000000  0.4695400000000 1.0
C      1  0.5375680000000  0.5709790000000  0.5299500000000 1.0
C      1  0.4480660000000  0.4314780000000  0.4482650000000 1.0
C      1  0.5542440000000  0.5628490000000  0.5514820000000 1.0
C      1  0.4216900000000  0.4552770000000  0.4858670000000 1.0
C      1  0.5827420000000  0.5432200000000  0.5173480000000 1.0
C      1  0.5023370000000  0.4695280000000  0.4911280000000 1.0
C      1  0.4960480000000  0.5311960000000  0.5093210000000 1.0
C      1  0.5933510000000  0.4526600000000  0.4928390000000 1.0
C      1  0.4038170000000  0.5522390000000  0.5117630000000 1.0
C      1  0.4430460000000  0.4885240000000  0.4062660000000 1.0
C      1  0.5555710000000  0.5055310000000  0.5930730000000 1.0
C      1  0.4612450000000  0.4508920000000  0.5714440000000 1.0
C      1  0.5419140000000  0.5522150000000  0.4300500000000 1.0
C      1  0.5395160000000  0.5022360000000  0.4489740000000 1.0
C      1  0.4572540000000  0.5021430000000  0.5544680000000 1.0
C      1  0.5416010000000  0.5598190000000  0.5774240000000 1.0
C      1  0.4628980000000  0.4361480000000  0.4240380000000 1.0
C      1  0.5722980000000  0.5150320000000  0.5166410000000 1.0
C      1  0.4282970000000  0.4872390000000  0.4920780000000 1.0
C      1  0.5114190000000  0.5884840000000  0.5307600000000 1.0
C      1  0.4901660000000  0.4064160000000  0.4688660000000 1.0
C      1  0.5110680000000  0.5226970000000  0.4042280000000 1.0
C      1  0.4856070000000  0.4741400000000  0.5950530000000 1.0
C      1  0.3991260000000  0.4910410000000  0.5136830000000 1.0
C      1  0.6105100000000  0.5067650000000  0.4857740000000 1.0
C      1  0.5204500000000  0.4781120000000  0.4343530000000 1.0
C      1  0.4785980000000  0.5255010000000  0.5670880000000 1.0
C      1  0.5170050000000  0.5738690000000  0.5811490000000 1.0
C      1  0.4894410000000  0.4256600000000  0.4204850000000 1.0
C      1  0.5245420000000  0.5866990000000  0.4591340000000 1.0
C      1  0.4754930000000  0.4162690000000  0.5386800000000 1.0
C      1  0.5492720000000  0.4613670000000  0.5794770000000 1.0
C      1  0.4438320000000  0.5351320000000  0.4023090000000 1.0
C      1  0.4949720000000  0.5560870000000  0.5860490000000 1.0
C      1  0.5077310000000  0.4465150000000  0.4139100000000 1.0
C      1  0.4426830000000  0.5101860000000  0.5260760000000 1.0
C      1  0.5560890000000  0.4908760000000  0.4734120000000 1.0
C      1  0.4945140000000  0.5085710000000  0.5422180000000 1.0
C      1  0.5023790000000  0.4932040000000  0.4590950000000 1.0
C      1  0.5369820000000  0.5314240000000  0.5906860000000 1.0
C      1  0.4631480000000  0.4653420000000  0.4159190000000 1.0
C      1  0.5887620000000  0.4738860000000  0.4487110000000 1.0
C      1  0.4127470000000  0.5241350000000  0.5531750000000 1.0
C      1  0.4789400000000  0.5070500000000  0.4425920000000 1.0
C      1  0.5174990000000  0.4944200000000  0.5581230000000 1.0
C      1  0.4877030000000  0.4453700000000  0.5887050000000 1.0
C      1  0.5138490000000  0.5480430000000  0.4157680000000 1.0
C      1  0.4273050000000  0.5002820000000  0.4341070000000 1.0
C      1  0.5688140000000  0.5003800000000  0.5635210000000 1.0
C      1  0.4808090000000  0.4676910000000  0.4575730000000 1.0
C      1  0.5171490000000  0.5334390000000  0.5430860000000 1.0
C      1  0.5596510000000  0.4702580000000  0.4369880000000 1.0
C      1  0.4403590000000  0.5367210000000  0.5648050000000 1.0
C      1  0.4580420000000  0.4985740000000  0.4679390000000 1.0
C      1  0.5398900000000  0.5015040000000  0.5356390000000 1.0
C      1  0.5478000000000  0.4188180000000  0.4779510000000 1.0
C      1  0.4523740000000  0.5836520000000  0.5223860000000 1.0
C      1  0.4989200000000  0.5839920000000  0.5026680000000 1.0
C      1  0.5024050000000  0.4138480000000  0.4957400000000 1.0
C      1  0.4189680000000  0.5522640000000  0.4418550000000 1.0
C      1  0.5843030000000  0.4414350000000  0.5472640000000 1.0
C      1  0.5932550000000  0.5316920000000  0.4871010000000 1.0
C      1  0.4103560000000  0.4627520000000  0.5175300000000 1.0
C      1  0.4813340000000  0.4236000000000  0.5121780000000 1.0
C      1  0.5208160000000  0.5768480000000  0.4855260000000 1.0
C      1  0.5724860000000  0.4220120000000  0.5362290000000 1.0
C      1  0.4262700000000  0.5718350000000  0.4593050000000 1.0
C      1  0.4016900000000  0.5090560000000  0.5374010000000 1.0
C      1  0.6040860000000  0.4884390000000  0.4653290000000 1.0
C      1  0.4579640000000  0.5388360000000  0.5357500000000 1.0
C      1  0.5409050000000  0.4626400000000  0.4648750000000 1.0
C      1  0.5046470000000  0.3794610000000  0.4538280000000 1.0
C      1  0.4863350000000  0.5985900000000  0.5500410000000 1.0
C      1  0.4354270000000  0.4732430000000  0.5714360000000 1.0
C      1  0.5641070000000  0.5300790000000  0.4347000000000 1.0
C      1  0.5355920000000  0.4478760000000  0.4285820000000 1.0
C      1  0.4664760000000  0.5575000000000  0.5696570000000 1.0
C      1  0.3881220000000  0.4629360000000  0.4208010000000 1.0
C      1  0.6242010000000  0.5651420000000  0.5738010000000 1.0
C      1  0.4872150000000  0.5467140000000  0.5343670000000 1.0
C      1  0.5113710000000  0.4550640000000  0.4655000000000 1.0
C      1  0.4059490000000  0.4549340000000  0.4382640000000 1.0
C      1  0.6032340000000  0.5606110000000  0.5587470000000 1.0
C      1  0.4963540000000  0.4069160000000  0.5552820000000 1.0
C      1  0.5018770000000  0.5908150000000  0.4429460000000 1.0
C      1  0.5042110000000  0.5237830000000  0.5895590000000 1.0
C      1  0.4935090000000  0.4760090000000  0.4135490000000 1.0
C      1  0.4411780000000  0.5225840000000  0.4788010000000 1.0
C      1  0.5548940000000  0.4762160000000  0.5266820000000 1.0
C      1  0.4881520000000  0.5000650000000  0.5126530000000 1.0
C      1  0.5128630000000  0.5004480000000  0.4891910000000 1.0
C      1  0.5058830000000  0.5374380000000  0.4634580000000 1.0
C      1  0.4910300000000  0.4683010000000  0.5367860000000 1.0
C      1  0.4727220000000  0.5799100000000  0.4453820000000 1.0
C      1  0.5263540000000  0.4161880000000  0.5547510000000 1.0
C      1  0.4248540000000  0.4464470000000  0.4567830000000 1.0
C      1  0.5809290000000  0.5557920000000  0.5427330000000 1.0
C      1  0.4602590000000  0.4853130000000  0.5915630000000 1.0
C      1  0.5338900000000  0.5077200000000  0.3992990000000 1.0
C      1  0.5396530000000  0.4251480000000  0.4510590000000 1.0
C      1  0.4642590000000  0.5817820000000  0.5488320000000 1.0
C      1  0.4264000000000  0.5313160000000  0.4248080000000 1.0
C      1  0.5691190000000  0.4674930000000  0.5543140000000 1.0
C      1  0.4239080000000  0.5737330000000  0.5167630000000 1.0
C      1  0.5753420000000  0.4298110000000  0.4864540000000 1.0
C      1  0.5561380000000  0.5000670000000  0.4207380000000 1.0
C      1  0.4364820000000  0.5064580000000  0.5798990000000 1.0
C      1  0.4589520000000  0.4910650000000  0.5068670000000 1.0
C      1  0.5451970000000  0.5077760000000  0.4970260000000 1.0
C      1  0.5704890000000  0.5771520000000  0.4599640000000 1.0
C      1  0.4306230000000  0.4353490000000  0.5383710000000 1.0
C      1  0.4888310000000  0.5414290000000  0.4845570000000 1.0
C      1  0.5072660000000  0.4590670000000  0.5164130000000 1.0
C      1  0.5768980000000  0.5312870000000  0.4582020000000 1.0
C      1  0.4185260000000  0.4603580000000  0.5489180000000 1.0
C      1  0.5357310000000  0.4508470000000  0.5183230000000 1.0
C      1  0.4601110000000  0.5484220000000  0.4833630000000 1.0
C      1  0.4620080000000  0.4679240000000  0.4840090000000 1.0
C      1  0.5362820000000  0.5313150000000  0.5177900000000 1.0
C      1  0.4972100000000  0.4041940000000  0.4361530000000 1.0
C      1  0.5132970000000  0.5958850000000  0.5641310000000 1.0
C      1  0.4515290000000  0.4779810000000  0.4432440000000 1.0
C      1  0.5443210000000  0.5240210000000  0.5599200000000 1.0
C      1  0.5750090000000  0.4795650000000  0.4994630000000 1.0
C      1  0.4198400000000  0.5239040000000  0.5050530000000 1.0
C      1  0.4557290000000  0.5758640000000  0.4692940000000 1.0
C      1  0.5419530000000  0.4223800000000  0.5303220000000 1.0
C      1  0.5095040000000  0.4910030000000  0.5893720000000 1.0
C      1  0.4859160000000  0.5074950000000  0.4109070000000 1.0
C      1  0.5268960000000  0.5298120000000  0.4491720000000 1.0
C      1  0.4709530000000  0.4750700000000  0.5532280000000 1.0
C      1  0.5298380000000  0.4156530000000  0.5002490000000 1.0
C      1  0.4703670000000  0.5837220000000  0.4990410000000 1.0
END
