TITL C-2782226-7400-744 -7.69255099690125e-05 125000 -1034.51427414779 0 0 180 (C1) n - 1
REM
REM in /home/nfs/bkarasulu/CARBON/AIRSS/Generating-Clusters/REBO/Higher-Symm/SD-CG/HFTN-CG
REM
REM
REM
REM
REM
REM ./C.cell (12c818d87b63d06a65506943cc24bca4)
REM
REM compiler GCC version 9.2.1 20190827 (Red Hat 9.2.1-1)
REM options -cpp -mtune=generic -march=x86-64 -g -O0 -fpre-include=/usr/include/finclude/math-vector-fortran.h
REM seed -641121288 -486505491 1883293763 -451739532 1413215851 -1172252537 1246272871 1796827958 -83787926 234273087 1281830022 727551941 1398306792 -999486142 249883644 -1724463981 -936865343 -567337037 1783113340 405570433 1583241278 -581580620 -36353122 1584601180 -1367711151 1657403062 1980258638 -416642882 -1101337935 487168039 868249803 250704229 1187034301
REM
CELL 1.54180   50.00000   50.00000   50.00000   90.00000   90.00000   90.00000
LATT -1
SFAC C  
C      1  0.5309630000000  0.4849050000000  0.4482010000000 1.0
C      1  0.4843680000000  0.4481180000000  0.5311830000000 1.0
C      1  0.4483860000000  0.5312920000000  0.4845090000000 1.0
C      1  0.4698730000000  0.4840470000000  0.5509640000000 1.0
C      1  0.4674260000000  0.5142140000000  0.4486690000000 1.0
C      1  0.5310990000000  0.5148450000000  0.5522370000000 1.0
C      1  0.5154400000000  0.4481640000000  0.4686740000000 1.0
C      1  0.5157670000000  0.5504110000000  0.5306720000000 1.0
C      1  0.4855300000000  0.5528790000000  0.4667180000000 1.0
C      1  0.5498070000000  0.5309880000000  0.5164290000000 1.0
C      1  0.5510680000000  0.4681650000000  0.4850260000000 1.0
C      1  0.4494630000000  0.4677920000000  0.5151510000000 1.0
C      1  0.4135890000000  0.4962130000000  0.4424980000000 1.0
C      1  0.4969870000000  0.4433470000000  0.4147800000000 1.0
C      1  0.4428470000000  0.4153010000000  0.4950330000000 1.0
C      1  0.5839490000000  0.4963930000000  0.5566080000000 1.0
C      1  0.5838140000000  0.5037490000000  0.4446230000000 1.0
C      1  0.4169460000000  0.5037910000000  0.5581710000000 1.0
C      1  0.5043480000000  0.4438510000000  0.5840130000000 1.0
C      1  0.5037370000000  0.5572330000000  0.4144310000000 1.0
C      1  0.4967290000000  0.5561990000000  0.5853680000000 1.0
C      1  0.5562970000000  0.4142910000000  0.5045320000000 1.0
C      1  0.5570260000000  0.5844240000000  0.4966320000000 1.0
C      1  0.4434880000000  0.5853000000000  0.5031090000000 1.0
C      1  0.5255250000000  0.4981970000000  0.5256490000000 1.0
C      1  0.4933670000000  0.5290280000000  0.5300000000000 1.0
C      1  0.5242230000000  0.5254670000000  0.4990290000000 1.0
C      1  0.4711850000000  0.4945420000000  0.4725310000000 1.0
C      1  0.4712030000000  0.5028590000000  0.5273140000000 1.0
C      1  0.5257260000000  0.5018560000000  0.4740700000000 1.0
C      1  0.5009600000000  0.5253900000000  0.4737390000000 1.0
C      1  0.5013060000000  0.4738060000000  0.5258400000000 1.0
C      1  0.4988880000000  0.4748100000000  0.4732650000000 1.0
C      1  0.4748560000000  0.5251330000000  0.5015320000000 1.0
C      1  0.4752010000000  0.4718270000000  0.4980950000000 1.0
C      1  0.5292830000000  0.4702360000000  0.5066450000000 1.0
C      1  0.4841400000000  0.5945560000000  0.5408690000000 1.0
C      1  0.5941480000000  0.5413530000000  0.4854550000000 1.0
C      1  0.5428900000000  0.4852540000000  0.5971560000000 1.0
C      1  0.5142380000000  0.5978320000000  0.4571220000000 1.0
C      1  0.5150620000000  0.4044090000000  0.5416120000000 1.0
C      1  0.4853760000000  0.4037470000000  0.4579280000000 1.0
C      1  0.4046900000000  0.5416260000000  0.5149230000000 1.0
C      1  0.4043040000000  0.4584850000000  0.4848820000000 1.0
C      1  0.5948620000000  0.4581760000000  0.5160340000000 1.0
C      1  0.4581600000000  0.4847710000000  0.4036690000000 1.0
C      1  0.4592780000000  0.5150100000000  0.5967530000000 1.0
C      1  0.5416620000000  0.5155270000000  0.4049510000000 1.0
C      1  0.5537560000000  0.5200330000000  0.4653100000000 1.0
C      1  0.5245240000000  0.4669510000000  0.5503920000000 1.0
C      1  0.4657210000000  0.5548690000000  0.5162850000000 1.0
C      1  0.4537790000000  0.5307520000000  0.5349780000000 1.0
C      1  0.4426260000000  0.4784460000000  0.4631930000000 1.0
C      1  0.5529080000000  0.4802810000000  0.5371970000000 1.0
C      1  0.4816570000000  0.4644570000000  0.4450290000000 1.0
C      1  0.4762890000000  0.5349630000000  0.5585520000000 1.0
C      1  0.5178120000000  0.5372410000000  0.4460820000000 1.0
C      1  0.5346660000000  0.5467420000000  0.4741300000000 1.0
C      1  0.5353280000000  0.4423450000000  0.5233270000000 1.0
C      1  0.4640580000000  0.4553200000000  0.4711730000000 1.0
C      1  0.4438480000000  0.5622800000000  0.4706210000000 1.0
C      1  0.5617830000000  0.4706150000000  0.4440820000000 1.0
C      1  0.4708960000000  0.4441210000000  0.5624150000000 1.0
C      1  0.5550300000000  0.5621690000000  0.5296250000000 1.0
C      1  0.5557630000000  0.4369260000000  0.4717740000000 1.0
C      1  0.4437140000000  0.4368040000000  0.5286080000000 1.0
C      1  0.4389480000000  0.4705820000000  0.5570970000000 1.0
C      1  0.4367470000000  0.5285800000000  0.4436740000000 1.0
C      1  0.5617220000000  0.5294120000000  0.5568920000000 1.0
C      1  0.5294650000000  0.4437020000000  0.4377840000000 1.0
C      1  0.5288520000000  0.5553160000000  0.5619120000000 1.0
C      1  0.4705390000000  0.5577360000000  0.4363890000000 1.0
C      1  0.4660240000000  0.5617580000000  0.5763300000000 1.0
C      1  0.5550130000000  0.5712920000000  0.4677360000000 1.0
C      1  0.5735080000000  0.4660530000000  0.5591820000000 1.0
C      1  0.5336750000000  0.5596880000000  0.4263790000000 1.0
C      1  0.5337950000000  0.4430210000000  0.5714320000000 1.0
C      1  0.4666920000000  0.4412450000000  0.4258180000000 1.0
C      1  0.4429500000000  0.5729220000000  0.5332630000000 1.0
C      1  0.4450720000000  0.4296880000000  0.4666340000000 1.0
C      1  0.5616620000000  0.4245520000000  0.5350760000000 1.0
C      1  0.4245750000000  0.4656970000000  0.4378890000000 1.0
C      1  0.4297120000000  0.5327880000000  0.5577840000000 1.0
C      1  0.5730240000000  0.5340030000000  0.4409460000000 1.0
C      1  0.4984970000000  0.4841780000000  0.5641760000000 1.0
C      1  0.4863220000000  0.5667020000000  0.4942820000000 1.0
C      1  0.5639480000000  0.4957370000000  0.4853840000000 1.0
C      1  0.5038840000000  0.4856920000000  0.4341070000000 1.0
C      1  0.5031330000000  0.5157840000000  0.5664440000000 1.0
C      1  0.4949380000000  0.5158020000000  0.4352250000000 1.0
C      1  0.5167660000000  0.5643390000000  0.5027490000000 1.0
C      1  0.5167870000000  0.4339640000000  0.4959770000000 1.0
C      1  0.4871010000000  0.4313420000000  0.5051710000000 1.0
C      1  0.4333770000000  0.4944440000000  0.5129210000000 1.0
C      1  0.4338990000000  0.5039250000000  0.4831580000000 1.0
C      1  0.5639060000000  0.5035640000000  0.5160340000000 1.0
C      1  0.5917260000000  0.4867720000000  0.5256570000000 1.0
C      1  0.4877560000000  0.5251690000000  0.5953850000000 1.0
C      1  0.5260840000000  0.5922970000000  0.4857710000000 1.0
C      1  0.4053490000000  0.4870310000000  0.4741910000000 1.0
C      1  0.4104420000000  0.5133130000000  0.5270210000000 1.0
C      1  0.5917000000000  0.5128380000000  0.4755790000000 1.0
C      1  0.5130650000000  0.5258560000000  0.4080780000000 1.0
C      1  0.5143320000000  0.4746630000000  0.5927390000000 1.0
C      1  0.4869140000000  0.4744170000000  0.4067570000000 1.0
C      1  0.4747890000000  0.5934120000000  0.5122700000000 1.0
C      1  0.4739330000000  0.4082200000000  0.4863450000000 1.0
C      1  0.5250880000000  0.4053710000000  0.5130210000000 1.0
C      1  0.5119630000000  0.6079830000000  0.5110830000000 1.0
C      1  0.6074370000000  0.5122130000000  0.5122900000000 1.0
C      1  0.5137870000000  0.5112630000000  0.6087770000000 1.0
C      1  0.4888450000000  0.6074300000000  0.4864430000000 1.0
C      1  0.4874880000000  0.3919080000000  0.5115890000000 1.0
C      1  0.5108950000000  0.3920650000000  0.4869280000000 1.0
C      1  0.3932410000000  0.5130160000000  0.4894390000000 1.0
C      1  0.3938950000000  0.4885550000000  0.5128360000000 1.0
C      1  0.6073860000000  0.4875460000000  0.4889020000000 1.0
C      1  0.4877910000000  0.5118220000000  0.3927330000000 1.0
C      1  0.4892520000000  0.4876750000000  0.6090520000000 1.0
C      1  0.5126890000000  0.4889440000000  0.3927910000000 1.0
C      1  0.5864190000000  0.4358550000000  0.4671160000000 1.0
C      1  0.4372360000000  0.4656770000000  0.5878700000000 1.0
C      1  0.4645620000000  0.5882870000000  0.4353690000000 1.0
C      1  0.4131280000000  0.4362720000000  0.5342970000000 1.0
C      1  0.4131100000000  0.5636340000000  0.4651870000000 1.0
C      1  0.5858040000000  0.5637300000000  0.5346350000000 1.0
C      1  0.5639860000000  0.4661400000000  0.4133620000000 1.0
C      1  0.5644490000000  0.5348530000000  0.5874650000000 1.0
C      1  0.4362200000000  0.5344150000000  0.4130450000000 1.0
C      1  0.5327490000000  0.5860480000000  0.5632600000000 1.0
C      1  0.5349810000000  0.4130730000000  0.4363970000000 1.0
C      1  0.4655890000000  0.4133690000000  0.5633200000000 1.0
C      1  0.5397130000000  0.5833640000000  0.4443130000000 1.0
C      1  0.5840590000000  0.4431200000000  0.5415680000000 1.0
C      1  0.4447030000000  0.5396070000000  0.5831160000000 1.0
C      1  0.4593110000000  0.5837500000000  0.5572670000000 1.0
C      1  0.4605280000000  0.4173260000000  0.4432590000000 1.0
C      1  0.5397110000000  0.4181190000000  0.5561390000000 1.0
C      1  0.4188840000000  0.4443580000000  0.4601200000000 1.0
C      1  0.4196170000000  0.5552670000000  0.5394610000000 1.0
C      1  0.5807690000000  0.5563560000000  0.4609120000000 1.0
C      1  0.5561040000000  0.5408130000000  0.4173310000000 1.0
C      1  0.5566780000000  0.4597850000000  0.5835460000000 1.0
C      1  0.4435560000000  0.4591270000000  0.4155450000000 1.0
C      1  0.4768810000000  0.4613860000000  0.5902730000000 1.0
C      1  0.4607700000000  0.5906310000000  0.4750950000000 1.0
C      1  0.5892740000000  0.4755130000000  0.4619610000000 1.0
C      1  0.5244420000000  0.4613690000000  0.4099860000000 1.0
C      1  0.5248440000000  0.5387840000000  0.5907920000000 1.0
C      1  0.4757100000000  0.5395580000000  0.4094400000000 1.0
C      1  0.5387070000000  0.5902600000000  0.5235790000000 1.0
C      1  0.5396030000000  0.4081030000000  0.4760280000000 1.0
C      1  0.4598220000000  0.4087490000000  0.5235810000000 1.0
C      1  0.4108740000000  0.4757510000000  0.5401410000000 1.0
C      1  0.4083120000000  0.5242390000000  0.4603310000000 1.0
C      1  0.5892310000000  0.5241600000000  0.5391390000000 1.0
C      1  0.3956370000000  0.4553470000000  0.5176380000000 1.0
C      1  0.4546610000000  0.5174190000000  0.3952450000000 1.0
C      1  0.5178140000000  0.3948400000000  0.4541470000000 1.0
C      1  0.6037050000000  0.4544940000000  0.4839850000000 1.0
C      1  0.6037700000000  0.5454190000000  0.5175610000000 1.0
C      1  0.3950080000000  0.5457710000000  0.4825760000000 1.0
C      1  0.5465970000000  0.5178820000000  0.6060910000000 1.0
C      1  0.5457100000000  0.4832200000000  0.3955170000000 1.0
C      1  0.4558530000000  0.4825960000000  0.6058080000000 1.0
C      1  0.4825370000000  0.3956580000000  0.5448310000000 1.0
C      1  0.4814930000000  0.6063570000000  0.4536970000000 1.0
C      1  0.5158520000000  0.6030730000000  0.5444730000000 1.0
C      1  0.5005590000000  0.4300320000000  0.5537790000000 1.0
C      1  0.4294710000000  0.5546010000000  0.5004150000000 1.0
C      1  0.5537300000000  0.5007610000000  0.4303490000000 1.0
C      1  0.4995780000000  0.4291360000000  0.4453470000000 1.0
C      1  0.4982280000000  0.5684580000000  0.5536480000000 1.0
C      1  0.5002450000000  0.5726490000000  0.4439100000000 1.0
C      1  0.5687100000000  0.5529270000000  0.5002500000000 1.0
C      1  0.5692720000000  0.4453800000000  0.5018890000000 1.0
C      1  0.4297770000000  0.4461130000000  0.4994050000000 1.0
C      1  0.4481820000000  0.5000510000000  0.5708750000000 1.0
C      1  0.4447820000000  0.4989220000000  0.4290940000000 1.0
C      1  0.5544780000000  0.4996360000000  0.5716330000000 1.0
END
