TITL C-2782231-7322-719 -2.13696469183165e-09 125000 -117.264000892873 0 0 20 (Oh) n - 1
REM
REM in /home/nfs/bkarasulu/CARBON/AIRSS/Generating-Clusters/REBO/Higher-Symm/SD-CG/HFTN-CG
REM
REM
REM
REM
REM
REM ./C.cell (12c818d87b63d06a65506943cc24bca4)
REM
REM compiler GCC version 9.2.1 20190827 (Red Hat 9.2.1-1)
REM options -cpp -mtune=generic -march=x86-64 -g -O0 -fpre-include=/usr/include/finclude/math-vector-fortran.h
REM seed 448144996 1272928347 1672908006 316821795 -1627710206 -1879688189 1765914617 -195306826 -1109185789 -1853539122 -1488114051 1260899777 288344721 -1584422714 -1522453075 -994988634 1039013229 1742233899 -1854102406 800873076 532429989 -428489478 -475263426 -1070889964 1228346938 -1359076870 1576491008 789232333 -80004252 381819117 869420640 1702500691 595155733
REM
CELL 1.54180   50.00000   50.00000   50.00000   90.00000   90.00000   90.00000
LATT -1
SFAC C  
C      1  0.5345260000000  0.4658120000000  0.5001290000000 1.0
C      1  0.4659380000000  0.5001110000000  0.5344180000000 1.0
C      1  0.5002310000000  0.4658160000000  0.5344210000000 1.0
C      1  0.5002340000000  0.5344030000000  0.5344180000000 1.0
C      1  0.5345290000000  0.5344000000000  0.5001260000000 1.0
C      1  0.4659380000000  0.4658160000000  0.5001260000000 1.0
C      1  0.4659410000000  0.5344030000000  0.5001230000000 1.0
C      1  0.5345290000000  0.5001050000000  0.4658340000000 1.0
C      1  0.5002370000000  0.5344000000000  0.4658300000000 1.0
C      1  0.5002340000000  0.4658120000000  0.4658340000000 1.0
C      1  0.4659410000000  0.5001080000000  0.4658300000000 1.0
C      1  0.5345260000000  0.5001080000000  0.5344210000000 1.0
C      1  0.4743570000000  0.5259860000000  0.5260000000000 1.0
C      1  0.5261120000000  0.5259820000000  0.4742500000000 1.0
C      1  0.5261080000000  0.4742320000000  0.5260040000000 1.0
C      1  0.5261100000000  0.4742290000000  0.4742520000000 1.0
C      1  0.4743600000000  0.5259840000000  0.4742470000000 1.0
C      1  0.4743550000000  0.4742340000000  0.5260020000000 1.0
C      1  0.4743570000000  0.4742320000000  0.4742500000000 1.0
C      1  0.5261100000000  0.5259840000000  0.5260020000000 1.0
END
