TITL C-2782232-2968-138 0.000427173270200687 125000 -1008.47844373107 0 0 172 (C1) n - 1
REM
REM in /home/nfs/bkarasulu/CARBON/AIRSS/Generating-Clusters/REBO/Higher-Symm/SD-CG/HFTN-CG
REM
REM
REM
REM
REM
REM ./C.cell (12c818d87b63d06a65506943cc24bca4)
REM
REM compiler GCC version 9.2.1 20190827 (Red Hat 9.2.1-1)
REM options -cpp -mtune=generic -march=x86-64 -g -O0 -fpre-include=/usr/include/finclude/math-vector-fortran.h
REM seed -1215188862 -1152546111 -1924912058 134429009 1139225158 -1739615998 1796880864 201730610 1194720012 710418276 -1756393861 -1299469739 -1500117304 1459754908 -778259958 290677804 422049347 985903456 -2008249306 1421186100 -680610939 -1221056001 -1437410951 -792138276 -1796434263 -1421453865 1852248973 -1509708933 -1815140013 792578867 -952339656 -1033634919 -263483674
REM
CELL 1.54180   50.00000   50.00000   50.00000   90.00000   90.00000   90.00000
LATT -1
SFAC C  
C      1  0.5136420000000  0.5945200000000  0.4746620000000 1.0
C      1  0.4865750000000  0.5964170000000  0.5279580000000 1.0
C      1  0.5200150000000  0.4072220000000  0.4739470000000 1.0
C      1  0.4856380000000  0.4070600000000  0.5240500000000 1.0
C      1  0.4204920000000  0.5534860000000  0.4507910000000 1.0
C      1  0.5786710000000  0.5464530000000  0.5474590000000 1.0
C      1  0.4167420000000  0.4557400000000  0.4513700000000 1.0
C      1  0.5873570000000  0.4484070000000  0.5502910000000 1.0
C      1  0.5217580000000  0.4807390000000  0.3928490000000 1.0
C      1  0.4796910000000  0.4791360000000  0.6056840000000 1.0
C      1  0.5198760000000  0.5138650000000  0.3911460000000 1.0
C      1  0.4805290000000  0.5128610000000  0.6074960000000 1.0
C      1  0.5773630000000  0.4499380000000  0.5019910000000 1.0
C      1  0.4263890000000  0.4517450000000  0.5007260000000 1.0
C      1  0.5641920000000  0.5486710000000  0.4972170000000 1.0
C      1  0.4277550000000  0.5511670000000  0.4997590000000 1.0
C      1  0.4889950000000  0.5140300000000  0.3824460000000 1.0
C      1  0.5100430000000  0.5140600000000  0.6193960000000 1.0
C      1  0.4929570000000  0.4850030000000  0.3851540000000 1.0
C      1  0.5083790000000  0.4849470000000  0.6140580000000 1.0
C      1  0.6032150000000  0.5162780000000  0.4612390000000 1.0
C      1  0.3985480000000  0.5153320000000  0.5399360000000 1.0
C      1  0.6063530000000  0.4881740000000  0.4607640000000 1.0
C      1  0.3975490000000  0.4874130000000  0.5406980000000 1.0
C      1  0.4559540000000  0.5870980000000  0.5395430000000 1.0
C      1  0.5415780000000  0.5835620000000  0.4608250000000 1.0
C      1  0.4556900000000  0.4138600000000  0.5360840000000 1.0
C      1  0.5481720000000  0.4163710000000  0.4636140000000 1.0
C      1  0.5181840000000  0.5629430000000  0.5988980000000 1.0
C      1  0.4833230000000  0.5617930000000  0.4023460000000 1.0
C      1  0.5222410000000  0.4370220000000  0.5927960000000 1.0
C      1  0.4795890000000  0.4350250000000  0.4038630000000 1.0
C      1  0.5841110000000  0.5602450000000  0.4447570000000 1.0
C      1  0.4151000000000  0.5602390000000  0.5557890000000 1.0
C      1  0.5826340000000  0.4445280000000  0.4466680000000 1.0
C      1  0.4168540000000  0.4428710000000  0.5543080000000 1.0
C      1  0.5632250000000  0.5857290000000  0.4830040000000 1.0
C      1  0.4348130000000  0.5864090000000  0.5171090000000 1.0
C      1  0.5690160000000  0.4159210000000  0.4830700000000 1.0
C      1  0.4323570000000  0.4155730000000  0.5157700000000 1.0
C      1  0.5104050000000  0.5607020000000  0.3877890000000 1.0
C      1  0.4900700000000  0.5598520000000  0.6122540000000 1.0
C      1  0.5100710000000  0.4349380000000  0.3966260000000 1.0
C      1  0.4950680000000  0.4332450000000  0.6064840000000 1.0
C      1  0.4428550000000  0.5555670000000  0.4332540000000 1.0
C      1  0.5580550000000  0.5520590000000  0.5668280000000 1.0
C      1  0.4345480000000  0.4482590000000  0.4287480000000 1.0
C      1  0.5689890000000  0.4432660000000  0.5732690000000 1.0
C      1  0.4545470000000  0.4567510000000  0.4819890000000 1.0
C      1  0.5488930000000  0.4538720000000  0.5204590000000 1.0
C      1  0.4543540000000  0.5418290000000  0.4793090000000 1.0
C      1  0.5399340000000  0.5449890000000  0.5214940000000 1.0
C      1  0.5176520000000  0.4770020000000  0.5506910000000 1.0
C      1  0.4788690000000  0.4724530000000  0.4517020000000 1.0
C      1  0.5224990000000  0.5164360000000  0.5495260000000 1.0
C      1  0.4773750000000  0.5127460000000  0.4514380000000 1.0
C      1  0.4258230000000  0.5691600000000  0.4732750000000 1.0
C      1  0.5745470000000  0.5641420000000  0.5254190000000 1.0
C      1  0.4210610000000  0.4373380000000  0.4723430000000 1.0
C      1  0.5809730000000  0.4315310000000  0.5284240000000 1.0
C      1  0.5932550000000  0.4392280000000  0.4763440000000 1.0
C      1  0.4090170000000  0.4391730000000  0.5240730000000 1.0
C      1  0.5859030000000  0.5626860000000  0.4760640000000 1.0
C      1  0.4106250000000  0.5634890000000  0.5242650000000 1.0
C      1  0.4593500000000  0.5147570000000  0.4225280000000 1.0
C      1  0.5361040000000  0.5166500000000  0.5793210000000 1.0
C      1  0.4645420000000  0.4820890000000  0.4253050000000 1.0
C      1  0.5373790000000  0.4845400000000  0.5751380000000 1.0
C      1  0.4385840000000  0.5742030000000  0.5659920000000 1.0
C      1  0.5601080000000  0.5730720000000  0.4341440000000 1.0
C      1  0.4401770000000  0.4281770000000  0.5615750000000 1.0
C      1  0.5557530000000  0.4346850000000  0.4428500000000 1.0
C      1  0.3960260000000  0.4702560000000  0.5175870000000 1.0
C      1  0.6055760000000  0.4703770000000  0.4836290000000 1.0
C      1  0.3976240000000  0.5326680000000  0.5170580000000 1.0
C      1  0.5984170000000  0.5325110000000  0.4847080000000 1.0
C      1  0.5367900000000  0.4557570000000  0.4320170000000 1.0
C      1  0.4602270000000  0.4441660000000  0.5767800000000 1.0
C      1  0.5424630000000  0.5504230000000  0.4211000000000 1.0
C      1  0.4585060000000  0.5521170000000  0.5776720000000 1.0
C      1  0.5284860000000  0.5408380000000  0.3984990000000 1.0
C      1  0.4723540000000  0.5404500000000  0.5997870000000 1.0
C      1  0.5269710000000  0.4554280000000  0.4040070000000 1.0
C      1  0.4744910000000  0.4518460000000  0.5993620000000 1.0
C      1  0.5608720000000  0.5178030000000  0.4559060000000 1.0
C      1  0.4387090000000  0.5186990000000  0.5414970000000 1.0
C      1  0.5665500000000  0.4859900000000  0.4598100000000 1.0
C      1  0.4374950000000  0.4863870000000  0.5405350000000 1.0
C      1  0.4671240000000  0.4928710000000  0.5517840000000 1.0
C      1  0.5378210000000  0.4874180000000  0.4449150000000 1.0
C      1  0.4707950000000  0.5246310000000  0.5515110000000 1.0
C      1  0.5293590000000  0.5196950000000  0.4430500000000 1.0
C      1  0.4666280000000  0.4851120000000  0.4992290000000 1.0
C      1  0.5358650000000  0.4788440000000  0.4988590000000 1.0
C      1  0.4671340000000  0.5164330000000  0.4985260000000 1.0
C      1  0.5272150000000  0.5085380000000  0.4947680000000 1.0
C      1  0.4325130000000  0.4876540000000  0.4338550000000 1.0
C      1  0.5690020000000  0.4815740000000  0.5627480000000 1.0
C      1  0.4267160000000  0.5193110000000  0.4313850000000 1.0
C      1  0.5608400000000  0.5129560000000  0.5597500000000 1.0
C      1  0.5867420000000  0.5144410000000  0.5384720000000 1.0
C      1  0.4066380000000  0.5232220000000  0.4586000000000 1.0
C      1  0.5939230000000  0.4805310000000  0.5412360000000 1.0
C      1  0.4101180000000  0.4883660000000  0.4596330000000 1.0
C      1  0.5545190000000  0.4454880000000  0.5978990000000 1.0
C      1  0.4477040000000  0.4472990000000  0.4036240000000 1.0
C      1  0.5507580000000  0.5538320000000  0.5943740000000 1.0
C      1  0.4503170000000  0.5559410000000  0.4057840000000 1.0
C      1  0.5250010000000  0.5626860000000  0.4999880000000 1.0
C      1  0.4740340000000  0.5624570000000  0.4964910000000 1.0
C      1  0.5290700000000  0.4331350000000  0.5048060000000 1.0
C      1  0.4720260000000  0.4344450000000  0.4983260000000 1.0
C      1  0.4985970000000  0.4144610000000  0.4514920000000 1.0
C      1  0.5068440000000  0.4161570000000  0.5463630000000 1.0
C      1  0.5051440000000  0.5872730000000  0.4447520000000 1.0
C      1  0.4972240000000  0.5908480000000  0.5574680000000 1.0
C      1  0.4879630000000  0.4432530000000  0.4630720000000 1.0
C      1  0.4868010000000  0.4708470000000  0.5489690000000 1.0
C      1  0.4991110000000  0.5349180000000  0.4475030000000 1.0
C      1  0.5014610000000  0.5396790000000  0.5507180000000 1.0
C      1  0.4858920000000  0.5916730000000  0.4942080000000 1.0
C      1  0.5150080000000  0.5935840000000  0.5089600000000 1.0
C      1  0.4893770000000  0.4091630000000  0.4898760000000 1.0
C      1  0.5160910000000  0.4039940000000  0.5081250000000 1.0
C      1  0.4377690000000  0.4791520000000  0.5108050000000 1.0
C      1  0.5658230000000  0.4772000000000  0.4892160000000 1.0
C      1  0.4372800000000  0.5228990000000  0.5100650000000 1.0
C      1  0.5554260000000  0.5201640000000  0.4872010000000 1.0
C      1  0.4751320000000  0.4220610000000  0.4321890000000 1.0
C      1  0.5241590000000  0.4291020000000  0.5620510000000 1.0
C      1  0.4882380000000  0.5700860000000  0.4320220000000 1.0
C      1  0.5138210000000  0.5727810000000  0.5694280000000 1.0
C      1  0.4748350000000  0.4400830000000  0.5463150000000 1.0
C      1  0.5190500000000  0.4647690000000  0.4575780000000 1.0
C      1  0.4669490000000  0.5571920000000  0.5447050000000 1.0
C      1  0.5340360000000  0.5516210000000  0.4543590000000 1.0
C      1  0.5116010000000  0.5441980000000  0.4779050000000 1.0
C      1  0.4864460000000  0.5438140000000  0.5201560000000 1.0
C      1  0.5111830000000  0.4500100000000  0.4869850000000 1.0
C      1  0.4871280000000  0.4552240000000  0.5184620000000 1.0
C      1  0.5301860000000  0.4689640000000  0.5999910000000 1.0
C      1  0.4732160000000  0.4681590000000  0.3994130000000 1.0
C      1  0.5285410000000  0.5312430000000  0.6044990000000 1.0
C      1  0.4705220000000  0.5306420000000  0.3982090000000 1.0
C      1  0.4158700000000  0.5300040000000  0.5617750000000 1.0
C      1  0.5855080000000  0.5300650000000  0.4385650000000 1.0
C      1  0.4166560000000  0.4728530000000  0.5612800000000 1.0
C      1  0.5887750000000  0.4738490000000  0.4385040000000 1.0
C      1  0.5054750000000  0.5154460000000  0.5195950000000 1.0
C      1  0.4961010000000  0.5131100000000  0.4807280000000 1.0
C      1  0.5090900000000  0.4814380000000  0.5178230000000 1.0
C      1  0.4928760000000  0.4783420000000  0.4814330000000 1.0
C      1  0.4091640000000  0.5174360000000  0.4905380000000 1.0
C      1  0.5835360000000  0.5153520000000  0.5060750000000 1.0
C      1  0.4094730000000  0.4864970000000  0.4927590000000 1.0
C      1  0.5923990000000  0.4856140000000  0.5097750000000 1.0
C      1  0.5516770000000  0.5832250000000  0.5112250000000 1.0
C      1  0.4476730000000  0.5838720000000  0.4902660000000 1.0
C      1  0.5586090000000  0.4163330000000  0.5107620000000 1.0
C      1  0.4432410000000  0.4187760000000  0.4874590000000 1.0
C      1  0.4694620000000  0.5518910000000  0.4504090000000 1.0
C      1  0.5318480000000  0.5552100000000  0.5501780000000 1.0
C      1  0.4554100000000  0.4400940000000  0.4520630000000 1.0
C      1  0.5486160000000  0.4385750000000  0.5508500000000 1.0
C      1  0.4157660000000  0.5137730000000  0.5880590000000 1.0
C      1  0.5886630000000  0.5147360000000  0.4120040000000 1.0
C      1  0.4164190000000  0.4884340000000  0.5879590000000 1.0
C      1  0.5896970000000  0.4894260000000  0.4120760000000 1.0
C      1  0.5482030000000  0.5149600000000  0.5280310000000 1.0
C      1  0.4453820000000  0.5153160000000  0.4597240000000 1.0
C      1  0.5475600000000  0.4832300000000  0.5367670000000 1.0
C      1  0.4496290000000  0.4835890000000  0.4622390000000 1.0
END
