TITL C-2782226-7400-1401 -0.092460284749951 125000 -634.103961539428 0 0 107 (C1) n - 1
REM
REM in /home/nfs/bkarasulu/CARBON/AIRSS/Generating-Clusters/REBO/Higher-Symm/SD-CG/HFTN-CG
REM
REM
REM
REM
REM
REM ./C.cell (12c818d87b63d06a65506943cc24bca4)
REM
REM compiler GCC version 9.2.1 20190827 (Red Hat 9.2.1-1)
REM options -cpp -mtune=generic -march=x86-64 -g -O0 -fpre-include=/usr/include/finclude/math-vector-fortran.h
REM seed 1343624938 -490811039 -974184416 2064018692 1759745084 -1428674393 254697969 500461472 -1343693878 629701206 -867417052 -281966674 886318884 -1294313566 -1093778904 401118963 1293161844 -1306143373 1183539493 -680053272 -814317566 -1031358721 644712715 651420274 -1589386466 1870526297 1361495064 2109737468 1420156618 -1991984830 -289613709 -1006386477 824332334
REM
CELL 1.54180   50.00000   50.00000   50.00000   90.00000   90.00000   90.00000
LATT -1
SFAC C  
C      1  0.5542090000000  0.4735110000000  0.4932550000000 1.0
C      1  0.5403750000000  0.5066530000000  0.5396170000000 1.0
C      1  0.4258780000000  0.4823800000000  0.5339170000000 1.0
C      1  0.4872030000000  0.5304360000000  0.5270020000000 1.0
C      1  0.4225990000000  0.5656080000000  0.4787870000000 1.0
C      1  0.4760580000000  0.5588220000000  0.5122220000000 1.0
C      1  0.4301490000000  0.4260630000000  0.5243060000000 1.0
C      1  0.4481120000000  0.5047690000000  0.4253940000000 1.0
C      1  0.4826690000000  0.5686580000000  0.4847470000000 1.0
C      1  0.5719140000000  0.4527430000000  0.4640680000000 1.0
C      1  0.5766200000000  0.4840070000000  0.4619900000000 1.0
C      1  0.5448750000000  0.4347680000000  0.5376870000000 1.0
C      1  0.4560040000000  0.4593210000000  0.4545330000000 1.0
C      1  0.5080240000000  0.4743680000000  0.5174230000000 1.0
C      1  0.5201500000000  0.5615490000000  0.4471380000000 1.0
C      1  0.5141580000000  0.5502440000000  0.5335170000000 1.0
C      1  0.4654630000000  0.4303320000000  0.4490080000000 1.0
C      1  0.5067220000000  0.5685570000000  0.5680960000000 1.0
C      1  0.4197330000000  0.4927200000000  0.4603880000000 1.0
C      1  0.4773990000000  0.5047160000000  0.4177640000000 1.0
C      1  0.5074490000000  0.5068850000000  0.4609940000000 1.0
C      1  0.3970340000000  0.4641250000000  0.5336290000000 1.0
C      1  0.4927880000000  0.5044040000000  0.5125250000000 1.0
C      1  0.5526440000000  0.5092480000000  0.4259800000000 1.0
C      1  0.5579940000000  0.4183220000000  0.4948770000000 1.0
C      1  0.4390760000000  0.5295790000000  0.4367830000000 1.0
C      1  0.4841140000000  0.5220800000000  0.4463250000000 1.0
C      1  0.4751990000000  0.5826460000000  0.5340020000000 1.0
C      1  0.5126470000000  0.5173130000000  0.5862000000000 1.0
C      1  0.4890750000000  0.4760280000000  0.4155520000000 1.0
C      1  0.5894860000000  0.4962050000000  0.5101490000000 1.0
C      1  0.5013140000000  0.4553280000000  0.4044810000000 1.0
C      1  0.5377420000000  0.5206590000000  0.5699540000000 1.0
C      1  0.4228780000000  0.5217280000000  0.4619030000000 1.0
C      1  0.5257210000000  0.5262930000000  0.5173410000000 1.0
C      1  0.5217730000000  0.5791450000000  0.5198010000000 1.0
C      1  0.5105940000000  0.4304890000000  0.4106120000000 1.0
C      1  0.5757810000000  0.4402740000000  0.4889910000000 1.0
C      1  0.5676230000000  0.4568890000000  0.5406640000000 1.0
C      1  0.4799700000000  0.5723680000000  0.4606550000000 1.0
C      1  0.5606270000000  0.5080840000000  0.5122380000000 1.0
C      1  0.5016670000000  0.5867600000000  0.5430040000000 1.0
C      1  0.4835350000000  0.4324970000000  0.5071120000000 1.0
C      1  0.5072850000000  0.4152280000000  0.4331280000000 1.0
C      1  0.5230810000000  0.5761070000000  0.4702100000000 1.0
C      1  0.4188980000000  0.4762700000000  0.4831630000000 1.0
C      1  0.5014570000000  0.4615560000000  0.4865080000000 1.0
C      1  0.5462630000000  0.5452270000000  0.4415990000000 1.0
C      1  0.4151810000000  0.5545590000000  0.5053630000000 1.0
C      1  0.5268830000000  0.5154610000000  0.4060190000000 1.0
C      1  0.4905420000000  0.4420010000000  0.5580360000000 1.0
C      1  0.5006660000000  0.4915790000000  0.5853210000000 1.0
C      1  0.4644090000000  0.5322920000000  0.5503720000000 1.0
C      1  0.5192390000000  0.4283170000000  0.5513180000000 1.0
C      1  0.4490120000000  0.5399260000000  0.5207570000000 1.0
C      1  0.4719160000000  0.4629450000000  0.5573590000000 1.0
C      1  0.4207250000000  0.4450770000000  0.5468510000000 1.0
C      1  0.5565010000000  0.5388420000000  0.5203650000000 1.0
C      1  0.5648610000000  0.5440670000000  0.5489740000000 1.0
C      1  0.5374060000000  0.4587660000000  0.5147060000000 1.0
C      1  0.5994390000000  0.5105240000000  0.5372200000000 1.0
C      1  0.5820010000000  0.5220200000000  0.5572890000000 1.0
C      1  0.5644340000000  0.5032410000000  0.5712660000000 1.0
C      1  0.4664050000000  0.4950870000000  0.4692540000000 1.0
C      1  0.5797880000000  0.4641100000000  0.5128610000000 1.0
C      1  0.5452080000000  0.5044170000000  0.4850520000000 1.0
C      1  0.4348630000000  0.4292890000000  0.4999810000000 1.0
C      1  0.4253610000000  0.4669040000000  0.5706820000000 1.0
C      1  0.4417780000000  0.4559580000000  0.4824170000000 1.0
C      1  0.5744570000000  0.5540390000000  0.4530100000000 1.0
C      1  0.5841520000000  0.5117150000000  0.4802470000000 1.0
C      1  0.5315230000000  0.4765710000000  0.5416540000000 1.0
C      1  0.4833850000000  0.4780570000000  0.4469450000000 1.0
C      1  0.4065230000000  0.4800600000000  0.5071610000000 1.0
C      1  0.5440080000000  0.4723180000000  0.4612470000000 1.0
C      1  0.5153410000000  0.5131560000000  0.4900190000000 1.0
C      1  0.4766840000000  0.4878060000000  0.5702960000000 1.0
C      1  0.5319850000000  0.4191080000000  0.4832240000000 1.0
C      1  0.4352130000000  0.5302530000000  0.4925320000000 1.0
C      1  0.4937910000000  0.4243070000000  0.5317380000000 1.0
C      1  0.5572460000000  0.4110940000000  0.5224360000000 1.0
C      1  0.5027430000000  0.4298810000000  0.4812720000000 1.0
C      1  0.5606870000000  0.5572890000000  0.4977780000000 1.0
C      1  0.4633400000000  0.4561760000000  0.5076910000000 1.0
C      1  0.4565290000000  0.5069900000000  0.5645640000000 1.0
C      1  0.4761940000000  0.4826370000000  0.4951550000000 1.0
C      1  0.5582790000000  0.5179100000000  0.4584590000000 1.0
C      1  0.4624490000000  0.5544180000000  0.4376000000000 1.0
C      1  0.4384300000000  0.4826570000000  0.4405260000000 1.0
C      1  0.4903350000000  0.4209670000000  0.4549810000000 1.0
C      1  0.4315270000000  0.4949330000000  0.5622150000000 1.0
C      1  0.4984310000000  0.5269190000000  0.4093690000000 1.0
C      1  0.5597500000000  0.4782510000000  0.5600240000000 1.0
C      1  0.5786160000000  0.5453870000000  0.4788840000000 1.0
C      1  0.4511530000000  0.4617110000000  0.5351410000000 1.0
C      1  0.4485510000000  0.5695400000000  0.5388480000000 1.0
C      1  0.5234720000000  0.5208730000000  0.4395380000000 1.0
C      1  0.4610570000000  0.5282440000000  0.4699720000000 1.0
C      1  0.4995780000000  0.5419340000000  0.5884900000000 1.0
C      1  0.5141870000000  0.4698850000000  0.5948800000000 1.0
C      1  0.4957270000000  0.5498960000000  0.4320070000000 1.0
C      1  0.5345040000000  0.5510630000000  0.5603100000000 1.0
C      1  0.4202270000000  0.5659380000000  0.5304240000000 1.0
C      1  0.4765720000000  0.5525220000000  0.5696440000000 1.0
C      1  0.4433640000000  0.5572160000000  0.4645470000000 1.0
C      1  0.5371220000000  0.5751400000000  0.4953890000000 1.0
C      1  0.5142260000000  0.4757970000000  0.4610840000000 1.0
END
