TITL C-2782235-7892-873 0.00514633250929454 125000 -784.371458798149 0 0 138 (C5) n - 1
REM
REM in /home/nfs/bkarasulu/CARBON/AIRSS/Generating-Clusters/REBO/Higher-Symm/SD-CG/HFTN-CG
REM
REM
REM
REM
REM
REM ./C.cell (12c818d87b63d06a65506943cc24bca4)
REM
REM compiler GCC version 9.2.1 20190827 (Red Hat 9.2.1-1)
REM options -cpp -mtune=generic -march=x86-64 -g -O0 -fpre-include=/usr/include/finclude/math-vector-fortran.h
REM seed 1383877511 -1013601195 958747685 2052511199 2122790690 674623666 1514193703 -1740872467 1633168608 -720815439 -635085966 -1310332859 1184526109 -763840719 757545141 964952176 541021559 196473297 929129991 786961287 1473147626 1679449885 -150932847 1765625020 -2112341337 1335318446 774112011 -427188408 -1845923881 -2003131996 -128899641 -1524317879 -908055161
REM
CELL 1.54180   50.00000   50.00000   50.00000   90.00000   90.00000   90.00000
LATT -1
SFAC C  
C      1  0.4360360000000  0.5708050000000  0.5044170000000 1.0
C      1  0.4360350000000  0.5261590000000  0.4343720000000 1.0
C      1  0.4360360000000  0.4457460000000  0.4551880000000 1.0
C      1  0.4360370000000  0.4406940000000  0.5380980000000 1.0
C      1  0.4360380000000  0.5179850000000  0.5685230000000 1.0
C      1  0.5196300000000  0.5823360000000  0.4520540000000 1.0
C      1  0.5196300000000  0.4799240000000  0.4072230000000 1.0
C      1  0.5196320000000  0.4056400000000  0.4907690000000 1.0
C      1  0.5196340000000  0.4621430000000  0.5872350000000 1.0
C      1  0.5196330000000  0.5713470000000  0.5633070000000 1.0
C      1  0.5643580000000  0.6015710000000  0.5073460000000 1.0
C      1  0.5643560000000  0.5384550000000  0.4060160000000 1.0
C      1  0.5643570000000  0.4225800000000  0.4347300000000 1.0
C      1  0.5643600000000  0.4140810000000  0.5538060000000 1.0
C      1  0.5643600000000  0.5247040000000  0.5986860000000 1.0
C      1  0.4297100000000  0.4762690000000  0.4509950000000 1.0
C      1  0.4297120000000  0.4461380000000  0.5077730000000 1.0
C      1  0.4297120000000  0.4908260000000  0.5539740000000 1.0
C      1  0.4297120000000  0.5485760000000  0.5257500000000 1.0
C      1  0.4297100000000  0.5395790000000  0.4621050000000 1.0
C      1  0.4797830000000  0.5325200000000  0.5428950000000 1.0
C      1  0.4797820000000  0.5509240000000  0.4826720000000 1.0
C      1  0.4797810000000  0.4993360000000  0.4465600000000 1.0
C      1  0.4797820000000  0.4490500000000  0.4844630000000 1.0
C      1  0.4797840000000  0.4695590000000  0.5440020000000 1.0
C      1  0.4582360000000  0.5015950000000  0.5283280000000 1.0
C      1  0.4582360000000  0.5275130000000  0.5075830000000 1.0
C      1  0.4582350000000  0.5157930000000  0.4765230000000 1.0
C      1  0.4582350000000  0.4826320000000  0.4780720000000 1.0
C      1  0.4582360000000  0.4738570000000  0.5100890000000 1.0
C      1  0.4270640000000  0.4706110000000  0.4848530000000 1.0
C      1  0.4270650000000  0.4765910000000  0.5236170000000 1.0
C      1  0.4270650000000  0.5153050000000  0.5299080000000 1.0
C      1  0.4270640000000  0.5332520000000  0.4950330000000 1.0
C      1  0.4270640000000  0.5056300000000  0.4671870000000 1.0
C      1  0.4481390000000  0.4622260000000  0.5542100000000 1.0
C      1  0.4481390000000  0.5399620000000  0.5530230000000 1.0
C      1  0.4481370000000  0.5628550000000  0.4787250000000 1.0
C      1  0.4481370000000  0.4992680000000  0.4339930000000 1.0
C      1  0.4481380000000  0.4370760000000  0.4806450000000 1.0
C      1  0.5139820000000  0.5316290000000  0.4112190000000 1.0
C      1  0.5139830000000  0.4254180000000  0.4428300000000 1.0
C      1  0.5139850000000  0.4226610000000  0.5536110000000 1.0
C      1  0.5139850000000  0.5271680000000  0.5904660000000 1.0
C      1  0.5139830000000  0.5945140000000  0.5024630000000 1.0
C      1  0.5295180000000  0.4904630000000  0.5608450000000 1.0
C      1  0.5295170000000  0.5550000000000  0.5282180000000 1.0
C      1  0.5295150000000  0.5439130000000  0.4567570000000 1.0
C      1  0.5295150000000  0.4725240000000  0.4452190000000 1.0
C      1  0.5295170000000  0.4394900000000  0.5095490000000 1.0
C      1  0.5296160000000  0.4838260000000  0.5214600000000 1.0
C      1  0.5296160000000  0.5154920000000  0.5223600000000 1.0
C      1  0.5296150000000  0.5261330000000  0.4925210000000 1.0
C      1  0.5296150000000  0.5010440000000  0.4731800000000 1.0
C      1  0.5296150000000  0.4748960000000  0.4910650000000 1.0
C      1  0.5440280000000  0.5211710000000  0.4126890000000 1.0
C      1  0.5440290000000  0.4235850000000  0.4532300000000 1.0
C      1  0.5440310000000  0.4319860000000  0.5585680000000 1.0
C      1  0.5440310000000  0.5347650000000  0.5831290000000 1.0
C      1  0.5440290000000  0.5898840000000  0.4929700000000 1.0
C      1  0.4789620000000  0.5307040000000  0.4223270000000 1.0
C      1  0.4789630000000  0.4356960000000  0.4471420000000 1.0
C      1  0.4789650000000  0.4299380000000  0.5451690000000 1.0
C      1  0.4789650000000  0.5213870000000  0.5809370000000 1.0
C      1  0.4789630000000  0.5836640000000  0.5050170000000 1.0
C      1  0.4662820000000  0.5641720000000  0.5628280000000 1.0
C      1  0.4662790000000  0.5796620000000  0.4587300000000 1.0
C      1  0.4662790000000  0.4854460000000  0.4118300000000 1.0
C      1  0.4662810000000  0.4117270000000  0.4869420000000 1.0
C      1  0.4662820000000  0.4603820000000  0.5802640000000 1.0
C      1  0.5050390000000  0.5136680000000  0.5540390000000 1.0
C      1  0.5050370000000  0.5556970000000  0.5040460000000 1.0
C      1  0.5050360000000  0.5211390000000  0.4486250000000 1.0
C      1  0.5050370000000  0.4577510000000  0.4643660000000 1.0
C      1  0.5050380000000  0.4531340000000  0.5295150000000 1.0
C      1  0.5745000000000  0.5499230000000  0.4919290000000 1.0
C      1  0.5744990000000  0.5078330000000  0.4503720000000 1.0
C      1  0.5745000000000  0.4553030000000  0.4775600000000 1.0
C      1  0.5745010000000  0.4649270000000  0.5359200000000 1.0
C      1  0.5745010000000  0.5234060000000  0.5448010000000 1.0
C      1  0.4672090000000  0.4527260000000  0.4216020000000 1.0
C      1  0.4672110000000  0.4109100000000  0.5210800000000 1.0
C      1  0.4672120000000  0.4925970000000  0.5915900000000 1.0
C      1  0.4672110000000  0.5848990000000  0.5356900000000 1.0
C      1  0.4672090000000  0.5602570000000  0.4306320000000 1.0
C      1  0.5319110000000  0.5061590000000  0.4408290000000 1.0
C      1  0.5319120000000  0.4457090000000  0.4762030000000 1.0
C      1  0.5319130000000  0.4606720000000  0.5446260000000 1.0
C      1  0.5319130000000  0.5303690000000  0.5515390000000 1.0
C      1  0.5319110000000  0.5584820000000  0.4873890000000 1.0
C      1  0.5850980000000  0.4729270000000  0.5045670000000 1.0
C      1  0.5850980000000  0.4960590000000  0.5275040000000 1.0
C      1  0.5850980000000  0.5250220000000  0.5125930000000 1.0
C      1  0.5850970000000  0.5197900000000  0.4804390000000 1.0
C      1  0.5850970000000  0.4875940000000  0.4754790000000 1.0
C      1  0.4909860000000  0.5824020000000  0.4355500000000 1.0
C      1  0.4909860000000  0.4642470000000  0.4020610000000 1.0
C      1  0.4909890000000  0.3958860000000  0.5040840000000 1.0
C      1  0.4909900000000  0.4717910000000  0.6006260000000 1.0
C      1  0.4909890000000  0.5870640000000  0.5582700000000 1.0
C      1  0.5484610000000  0.5624500000000  0.5676130000000 1.0
C      1  0.5484590000000  0.5836830000000  0.4618460000000 1.0
C      1  0.5484580000000  0.4896540000000  0.4089680000000 1.0
C      1  0.5484600000000  0.4103070000000  0.4820550000000 1.0
C      1  0.5484620000000  0.4552970000000  0.5801030000000 1.0
C      1  0.5123340000000  0.4519360000000  0.4255240000000 1.0
C      1  0.5123360000000  0.4143970000000  0.5230430000000 1.0
C      1  0.5123370000000  0.4955420000000  0.5888800000000 1.0
C      1  0.5123360000000  0.5832320000000  0.5320510000000 1.0
C      1  0.5123340000000  0.5562820000000  0.4310920000000 1.0
C      1  0.5590270000000  0.5348660000000  0.4471330000000 1.0
C      1  0.5590270000000  0.4605760000000  0.4508490000000 1.0
C      1  0.5590290000000  0.4411530000000  0.5226510000000 1.0
C      1  0.5590300000000  0.5034390000000  0.5633120000000 1.0
C      1  0.5590280000000  0.5613570000000  0.5166390000000 1.0
C      1  0.4991720000000  0.4665310000000  0.5025390000000 1.0
C      1  0.4991730000000  0.4921520000000  0.5329610000000 1.0
C      1  0.4991730000000  0.5290030000000  0.5179960000000 1.0
C      1  0.4991720000000  0.5261570000000  0.4783240000000 1.0
C      1  0.4991720000000  0.4875470000000  0.4687710000000 1.0
C      1  0.4949550000000  0.4445210000000  0.5715960000000 1.0
C      1  0.4949550000000  0.5510280000000  0.5752340000000 1.0
C      1  0.4949530000000  0.5874000000000  0.4750640000000 1.0
C      1  0.4949520000000  0.5033720000000  0.4095180000000 1.0
C      1  0.4949530000000  0.4150690000000  0.4691780000000 1.0
C      1  0.4688410000000  0.4681270000000  0.4513870000000 1.0
C      1  0.4688420000000  0.4439960000000  0.5156370000000 1.0
C      1  0.4688430000000  0.4976450000000  0.5584410000000 1.0
C      1  0.4688420000000  0.5549320000000  0.5206450000000 1.0
C      1  0.4688400000000  0.5366890000000  0.4544820000000 1.0
C      1  0.5656000000000  0.4737820000000  0.5646940000000 1.0
C      1  0.5655990000000  0.5535070000000  0.5452710000000 1.0
C      1  0.5655980000000  0.5596710000000  0.4634470000000 1.0
C      1  0.5655970000000  0.4837570000000  0.4322990000000 1.0
C      1  0.5655990000000  0.4306740000000  0.4948730000000 1.0
C      1  0.3838250000000  0.5002770000000  0.5001200000000 1.0
C      1  0.4154130000000  0.5002780000000  0.5001200000000 1.0
C      1  0.4876830000000  0.5002780000000  0.5001180000000 1.0
END
