TITL C-2782231-7322-1209 -0.00141345879455385 125000 -700.689697170345 0 0 121 (C1) n - 1
REM
REM in /home/nfs/bkarasulu/CARBON/AIRSS/Generating-Clusters/REBO/Higher-Symm/SD-CG/HFTN-CG
REM
REM
REM
REM
REM
REM ./C.cell (12c818d87b63d06a65506943cc24bca4)
REM
REM compiler GCC version 9.2.1 20190827 (Red Hat 9.2.1-1)
REM options -cpp -mtune=generic -march=x86-64 -g -O0 -fpre-include=/usr/include/finclude/math-vector-fortran.h
REM seed -68225614 -133888076 -1277149608 -850903320 -1014914892 -1630521042 211401555 -660484394 1000826702 -1417478475 -498698410 -1534711347 -294392147 921449357 1295807470 -633581941 -747360519 905810174 -796541312 579753713 -1733752855 -2064461564 -1609824912 1581183019 1223852008 -1826956600 2116334971 1376610331 751086874 980249267 -657605692 1763767828 -1318379280
REM
CELL 1.54180   50.00000   50.00000   50.00000   90.00000   90.00000   90.00000
LATT -1
SFAC C  
C      1  0.4996910000000  0.5093970000000  0.4107920000000 1.0
C      1  0.4091000000000  0.5036650000000  0.4732470000000 1.0
C      1  0.4466130000000  0.5019960000000  0.5774000000000 1.0
C      1  0.5520820000000  0.5055070000000  0.5768730000000 1.0
C      1  0.5891220000000  0.5016560000000  0.4652940000000 1.0
C      1  0.5049970000000  0.5397640000000  0.5796330000000 1.0
C      1  0.5781640000000  0.5429500000000  0.5211770000000 1.0
C      1  0.5435790000000  0.5375960000000  0.4343690000000 1.0
C      1  0.4474160000000  0.5466960000000  0.4240830000000 1.0
C      1  0.4255180000000  0.5417070000000  0.5300250000000 1.0
C      1  0.5135000000000  0.5728940000000  0.5453970000000 1.0
C      1  0.5580370000000  0.5696950000000  0.4996330000000 1.0
C      1  0.5161220000000  0.5708740000000  0.4546900000000 1.0
C      1  0.4592740000000  0.5702990000000  0.4674090000000 1.0
C      1  0.4549420000000  0.5686790000000  0.5318380000000 1.0
C      1  0.4798370000000  0.4414510000000  0.4843070000000 1.0
C      1  0.4816740000000  0.4431580000000  0.5143900000000 1.0
C      1  0.5077530000000  0.4419280000000  0.5235260000000 1.0
C      1  0.5289690000000  0.4367860000000  0.5004810000000 1.0
C      1  0.5097300000000  0.4445380000000  0.4751710000000 1.0
C      1  0.4275230000000  0.4463340000000  0.4879640000000 1.0
C      1  0.4656960000000  0.4445030000000  0.5614350000000 1.0
C      1  0.5474190000000  0.4452360000000  0.5530350000000 1.0
C      1  0.5651860000000  0.4437250000000  0.4673710000000 1.0
C      1  0.4944870000000  0.4466840000000  0.4270350000000 1.0
C      1  0.4293690000000  0.5654600000000  0.5125340000000 1.0
C      1  0.4932570000000  0.5625890000000  0.5679810000000 1.0
C      1  0.5645720000000  0.5673300000000  0.5303110000000 1.0
C      1  0.5457450000000  0.5611220000000  0.4492120000000 1.0
C      1  0.4654230000000  0.5630130000000  0.4370750000000 1.0
C      1  0.4337220000000  0.5588750000000  0.4801980000000 1.0
C      1  0.4622220000000  0.5586070000000  0.5603130000000 1.0
C      1  0.5431790000000  0.5621840000000  0.5531900000000 1.0
C      1  0.5680010000000  0.5585180000000  0.4720370000000 1.0
C      1  0.4968380000000  0.5586400000000  0.4328840000000 1.0
C      1  0.5041770000000  0.4637700000000  0.5779090000000 1.0
C      1  0.5744350000000  0.4724610000000  0.5199360000000 1.0
C      1  0.5432220000000  0.4625810000000  0.4353860000000 1.0
C      1  0.4486970000000  0.4639180000000  0.4384770000000 1.0
C      1  0.4302550000000  0.4675190000000  0.5298600000000 1.0
C      1  0.4117400000000  0.5142450000000  0.5277940000000 1.0
C      1  0.4982900000000  0.5130120000000  0.5923160000000 1.0
C      1  0.5835420000000  0.5171340000000  0.5349310000000 1.0
C      1  0.5551240000000  0.5110980000000  0.4248450000000 1.0
C      1  0.4464620000000  0.5185130000000  0.4242920000000 1.0
C      1  0.4903010000000  0.4056320000000  0.5248790000000 1.0
C      1  0.5209950000000  0.4059540000000  0.5127660000000 1.0
C      1  0.5204760000000  0.4048160000000  0.4786290000000 1.0
C      1  0.4886040000000  0.4107680000000  0.4724920000000 1.0
C      1  0.4708820000000  0.4068290000000  0.5016480000000 1.0
C      1  0.5769400000000  0.4457210000000  0.5139930000000 1.0
C      1  0.5428440000000  0.4329400000000  0.4364920000000 1.0
C      1  0.4503340000000  0.4350810000000  0.4442230000000 1.0
C      1  0.4300050000000  0.4375970000000  0.5266370000000 1.0
C      1  0.5016850000000  0.4339900000000  0.5748820000000 1.0
C      1  0.5477990000000  0.4794750000000  0.5326060000000 1.0
C      1  0.5433760000000  0.4790370000000  0.4639670000000 1.0
C      1  0.4761140000000  0.4781580000000  0.4449980000000 1.0
C      1  0.4417000000000  0.4799580000000  0.5039700000000 1.0
C      1  0.4860280000000  0.4783970000000  0.5562290000000 1.0
C      1  0.4743910000000  0.5067110000000  0.4317040000000 1.0
C      1  0.4277980000000  0.5091990000000  0.5001060000000 1.0
C      1  0.4778340000000  0.5070570000000  0.5683390000000 1.0
C      1  0.5545090000000  0.5091640000000  0.5447720000000 1.0
C      1  0.5579700000000  0.5071400000000  0.4574110000000 1.0
C      1  0.4662520000000  0.5502890000000  0.5102430000000 1.0
C      1  0.4992580000000  0.5477930000000  0.5315410000000 1.0
C      1  0.5350260000000  0.5502860000000  0.5094680000000 1.0
C      1  0.5218160000000  0.5496770000000  0.4790500000000 1.0
C      1  0.4831620000000  0.5478970000000  0.4694150000000 1.0
C      1  0.4464570000000  0.5329450000000  0.4971840000000 1.0
C      1  0.4777460000000  0.5312520000000  0.5485590000000 1.0
C      1  0.5366550000000  0.5343770000000  0.5360140000000 1.0
C      1  0.5486890000000  0.5306460000000  0.4748980000000 1.0
C      1  0.4919520000000  0.5281100000000  0.4452350000000 1.0
C      1  0.4561580000000  0.4736100000000  0.5699390000000 1.0
C      1  0.5501360000000  0.4753470000000  0.5653180000000 1.0
C      1  0.5767830000000  0.4730160000000  0.4659270000000 1.0
C      1  0.4971150000000  0.4768690000000  0.4187970000000 1.0
C      1  0.4179770000000  0.4755700000000  0.4809850000000 1.0
C      1  0.5217350000000  0.5974080000000  0.4990160000000 1.0
C      1  0.5056440000000  0.5913790000000  0.4753410000000 1.0
C      1  0.4781660000000  0.5891910000000  0.4839270000000 1.0
C      1  0.4783380000000  0.5927020000000  0.5130300000000 1.0
C      1  0.5061300000000  0.5937090000000  0.5237570000000 1.0
C      1  0.5145090000000  0.4373160000000  0.4468330000000 1.0
C      1  0.4526340000000  0.4435050000000  0.4725870000000 1.0
C      1  0.4603800000000  0.4414920000000  0.5317520000000 1.0
C      1  0.5176540000000  0.4398930000000  0.5490720000000 1.0
C      1  0.5582880000000  0.4368400000000  0.4954950000000 1.0
C      1  0.5059920000000  0.5104260000000  0.5273810000000 1.0
C      1  0.5279010000000  0.5094980000000  0.5016650000000 1.0
C      1  0.5109680000000  0.5117610000000  0.4757660000000 1.0
C      1  0.4770570000000  0.5116960000000  0.4796920000000 1.0
C      1  0.4754550000000  0.5115920000000  0.5138660000000 1.0
C      1  0.4435890000000  0.4195320000000  0.5029650000000 1.0
C      1  0.4847880000000  0.4174060000000  0.5519310000000 1.0
C      1  0.5464580000000  0.4188640000000  0.5315550000000 1.0
C      1  0.5436520000000  0.4167130000000  0.4645180000000 1.0
C      1  0.4775800000000  0.4235900000000  0.4427890000000 1.0
C      1  0.5843660000000  0.4972180000000  0.5116540000000 1.0
C      1  0.5331400000000  0.4890480000000  0.4266670000000 1.0
C      1  0.4386940000000  0.4917180000000  0.4411990000000 1.0
C      1  0.4294370000000  0.4934740000000  0.5429070000000 1.0
C      1  0.5160920000000  0.4907510000000  0.5794920000000 1.0
C      1  0.5174380000000  0.5169490000000  0.5575980000000 1.0
C      1  0.5602180000000  0.5200180000000  0.5029190000000 1.0
C      1  0.5209360000000  0.5151200000000  0.4449040000000 1.0
C      1  0.4470790000000  0.5116480000000  0.4635700000000 1.0
C      1  0.4506470000000  0.5189760000000  0.5343310000000 1.0
C      1  0.5244590000000  0.4781650000000  0.5134380000000 1.0
C      1  0.5204420000000  0.4734840000000  0.4817940000000 1.0
C      1  0.4879660000000  0.4794780000000  0.4739440000000 1.0
C      1  0.4717370000000  0.4799940000000  0.5029590000000 1.0
C      1  0.4941900000000  0.4792330000000  0.5273490000000 1.0
C      1  0.4465890000000  0.5314670000000  0.5735850000000 1.0
C      1  0.5486890000000  0.5357370000000  0.5740390000000 1.0
C      1  0.5882000000000  0.5312400000000  0.4691210000000 1.0
C      1  0.5072880000000  0.5362380000000  0.4093420000000 1.0
C      1  0.4233250000000  0.5316570000000  0.4655040000000 1.0
C      1  0.4964420000000  0.5474180000000  0.4996250000000 1.0
END
