TITL C-2782226-7400-884 -0.00277256518031674 125000 -1149.65183415268 0 0 198 (C1) n - 1
REM
REM in /home/nfs/bkarasulu/CARBON/AIRSS/Generating-Clusters/REBO/Higher-Symm/SD-CG/HFTN-CG
REM
REM
REM
REM
REM
REM ./C.cell (12c818d87b63d06a65506943cc24bca4)
REM
REM compiler GCC version 9.2.1 20190827 (Red Hat 9.2.1-1)
REM options -cpp -mtune=generic -march=x86-64 -g -O0 -fpre-include=/usr/include/finclude/math-vector-fortran.h
REM seed 1808557389 -894133158 515520024 -187752997 1664540358 -437209138 216132273 -265997871 -495671491 -1680380379 516401047 -1856441238 -397233984 1864827377 -1436917638 -176325899 1829262716 1735830491 -756221935 2035078741 1526434982 -308062081 969168455 1209180317 1815737686 393277041 655050764 402930248 -1920696607 -1598905436 1509537742 -40976025 -746986131
REM
CELL 1.54180   50.00000   50.00000   50.00000   90.00000   90.00000   90.00000
LATT -1
SFAC C  
C      1  0.4849570000000  0.5182780000000  0.4862410000000 1.0
C      1  0.4854830000000  0.4904440000000  0.5328480000000 1.0
C      1  0.4938130000000  0.4639920000000  0.4855990000000 1.0
C      1  0.4875010000000  0.5182640000000  0.5178430000000 1.0
C      1  0.4881110000000  0.4899950000000  0.4704750000000 1.0
C      1  0.4861650000000  0.4640760000000  0.5166940000000 1.0
C      1  0.5251560000000  0.4512790000000  0.4532080000000 1.0
C      1  0.5091900000000  0.5659980000000  0.4852240000000 1.0
C      1  0.5185270000000  0.4791810000000  0.5631090000000 1.0
C      1  0.5230910000000  0.4513000000000  0.5464500000000 1.0
C      1  0.5159270000000  0.5627250000000  0.5170630000000 1.0
C      1  0.5176120000000  0.4816500000000  0.4419560000000 1.0
C      1  0.5685780000000  0.5408250000000  0.5416390000000 1.0
C      1  0.5588990000000  0.4402930000000  0.5156820000000 1.0
C      1  0.5713870000000  0.5104700000000  0.4377010000000 1.0
C      1  0.5680940000000  0.5357020000000  0.4575630000000 1.0
C      1  0.5681000000000  0.4408050000000  0.4831210000000 1.0
C      1  0.5664020000000  0.5121370000000  0.5560420000000 1.0
C      1  0.5193230000000  0.4321630000000  0.5933270000000 1.0
C      1  0.5110580000000  0.4610410000000  0.3923460000000 1.0
C      1  0.5211430000000  0.6204960000000  0.5178990000000 1.0
C      1  0.5161000000000  0.4322750000000  0.4111770000000 1.0
C      1  0.5141030000000  0.4607510000000  0.6123500000000 1.0
C      1  0.5244960000000  0.6204740000000  0.4835490000000 1.0
C      1  0.4457580000000  0.3847150000000  0.5192830000000 1.0
C      1  0.4541260000000  0.5461050000000  0.3967840000000 1.0
C      1  0.4525590000000  0.5737690000000  0.5885180000000 1.0
C      1  0.4459640000000  0.3875350000000  0.4867890000000 1.0
C      1  0.4524240000000  0.5452260000000  0.6033240000000 1.0
C      1  0.4541380000000  0.5754600000000  0.4093820000000 1.0
C      1  0.5600500000000  0.5945720000000  0.4600960000000 1.0
C      1  0.5525340000000  0.4902010000000  0.6017320000000 1.0
C      1  0.5618960000000  0.4169000000000  0.4320940000000 1.0
C      1  0.5612410000000  0.5965480000000  0.5371970000000 1.0
C      1  0.5525430000000  0.4881890000000  0.4010480000000 1.0
C      1  0.5628960000000  0.4187670000000  0.5662860000000 1.0
C      1  0.5507980000000  0.4344230000000  0.5918330000000 1.0
C      1  0.5415380000000  0.4586550000000  0.3957490000000 1.0
C      1  0.5507310000000  0.6152490000000  0.5132140000000 1.0
C      1  0.5475340000000  0.4315910000000  0.4075670000000 1.0
C      1  0.5443430000000  0.4597300000000  0.6072110000000 1.0
C      1  0.5553540000000  0.6145730000000  0.4836950000000 1.0
C      1  0.5492130000000  0.4772570000000  0.5717980000000 1.0
C      1  0.5548740000000  0.4473080000000  0.4434120000000 1.0
C      1  0.5399720000000  0.5777890000000  0.4822150000000 1.0
C      1  0.5463220000000  0.4766590000000  0.4310250000000 1.0
C      1  0.5538130000000  0.4486790000000  0.5547060000000 1.0
C      1  0.5453790000000  0.5758350000000  0.5152000000000 1.0
C      1  0.4247780000000  0.5877750000000  0.4756420000000 1.0
C      1  0.4365390000000  0.4752780000000  0.5844620000000 1.0
C      1  0.4335990000000  0.4348060000000  0.4362400000000 1.0
C      1  0.4315000000000  0.5832710000000  0.5231890000000 1.0
C      1  0.4377380000000  0.4777810000000  0.4160330000000 1.0
C      1  0.4336220000000  0.4353370000000  0.5575790000000 1.0
C      1  0.4716980000000  0.5792640000000  0.5686860000000 1.0
C      1  0.4646910000000  0.3988520000000  0.5345810000000 1.0
C      1  0.4786180000000  0.5267420000000  0.4005320000000 1.0
C      1  0.4729230000000  0.5818760000000  0.4291880000000 1.0
C      1  0.4665870000000  0.4026260000000  0.4741640000000 1.0
C      1  0.4777920000000  0.5258320000000  0.6030810000000 1.0
C      1  0.5615650000000  0.5588570000000  0.5763440000000 1.0
C      1  0.5614100000000  0.4008040000000  0.5147510000000 1.0
C      1  0.5593240000000  0.5274940000000  0.4040230000000 1.0
C      1  0.5624980000000  0.5553700000000  0.4233440000000 1.0
C      1  0.5683640000000  0.4010030000000  0.4830810000000 1.0
C      1  0.5569120000000  0.5284840000000  0.5910610000000 1.0
C      1  0.4947540000000  0.4468970000000  0.5632400000000 1.0
C      1  0.4926490000000  0.4787610000000  0.4230880000000 1.0
C      1  0.4871060000000  0.5806590000000  0.5150920000000 1.0
C      1  0.4943430000000  0.4491940000000  0.4403090000000 1.0
C      1  0.4928690000000  0.4754720000000  0.5818040000000 1.0
C      1  0.4833200000000  0.5856520000000  0.4814100000000 1.0
C      1  0.5096560000000  0.4130670000000  0.4332180000000 1.0
C      1  0.5156280000000  0.6131020000000  0.4542140000000 1.0
C      1  0.5059410000000  0.4874300000000  0.6242960000000 1.0
C      1  0.5115140000000  0.4114570000000  0.5737200000000 1.0
C      1  0.5125450000000  0.6116600000000  0.5448750000000 1.0
C      1  0.5028750000000  0.4873160000000  0.3796150000000 1.0
C      1  0.4158730000000  0.5196000000000  0.5170290000000 1.0
C      1  0.4134080000000  0.4716400000000  0.5083220000000 1.0
C      1  0.4143620000000  0.5033970000000  0.4712400000000 1.0
C      1  0.4138770000000  0.5250920000000  0.4878100000000 1.0
C      1  0.4134090000000  0.4752060000000  0.4809760000000 1.0
C      1  0.4149660000000  0.4945960000000  0.5278000000000 1.0
C      1  0.4211450000000  0.4311160000000  0.5834250000000 1.0
C      1  0.4238550000000  0.4597110000000  0.3981680000000 1.0
C      1  0.4108570000000  0.6028270000000  0.5174660000000 1.0
C      1  0.4223130000000  0.4342410000000  0.4096160000000 1.0
C      1  0.4227800000000  0.4542900000000  0.5991090000000 1.0
C      1  0.4065430000000  0.6049910000000  0.4899080000000 1.0
C      1  0.5403320000000  0.5578580000000  0.5485680000000 1.0
C      1  0.5321240000000  0.4194240000000  0.5182840000000 1.0
C      1  0.5402580000000  0.5233350000000  0.4320210000000 1.0
C      1  0.5393480000000  0.5525140000000  0.4486670000000 1.0
C      1  0.5404670000000  0.4208990000000  0.4861610000000 1.0
C      1  0.5374650000000  0.5289380000000  0.5635010000000 1.0
C      1  0.4677230000000  0.4291360000000  0.5226420000000 1.0
C      1  0.4742740000000  0.5264900000000  0.4331530000000 1.0
C      1  0.4773030000000  0.5517020000000  0.5526480000000 1.0
C      1  0.4736440000000  0.4301560000000  0.4920670000000 1.0
C      1  0.4721340000000  0.5253260000000  0.5705880000000 1.0
C      1  0.4774810000000  0.5552150000000  0.4475440000000 1.0
C      1  0.5377270000000  0.5303390000000  0.4825310000000 1.0
C      1  0.5401930000000  0.5030760000000  0.5275320000000 1.0
C      1  0.5499170000000  0.4762880000000  0.4817000000000 1.0
C      1  0.5421630000000  0.5316160000000  0.5130490000000 1.0
C      1  0.5452160000000  0.5027780000000  0.4667590000000 1.0
C      1  0.5418250000000  0.4763070000000  0.5127590000000 1.0
C      1  0.4520800000000  0.5928490000000  0.4815360000000 1.0
C      1  0.4632280000000  0.4674430000000  0.5766680000000 1.0
C      1  0.4612450000000  0.4416540000000  0.4374850000000 1.0
C      1  0.4566630000000  0.5883300000000  0.5107880000000 1.0
C      1  0.4636620000000  0.4684690000000  0.4237230000000 1.0
C      1  0.4610800000000  0.4430740000000  0.5592590000000 1.0
C      1  0.5134770000000  0.5019780000000  0.5433750000000 1.0
C      1  0.5241310000000  0.4571440000000  0.4829800000000 1.0
C      1  0.5078370000000  0.5370450000000  0.4751710000000 1.0
C      1  0.5138780000000  0.5065380000000  0.4613660000000 1.0
C      1  0.5176560000000  0.4565570000000  0.5166520000000 1.0
C      1  0.5134250000000  0.5326410000000  0.5278730000000 1.0
C      1  0.5814260000000  0.4222680000000  0.4595780000000 1.0
C      1  0.5766320000000  0.5661810000000  0.4531040000000 1.0
C      1  0.5777630000000  0.5022550000000  0.5842280000000 1.0
C      1  0.5775640000000  0.4227660000000  0.5356700000000 1.0
C      1  0.5792450000000  0.5703680000000  0.5490370000000 1.0
C      1  0.5819120000000  0.5020030000000  0.4079810000000 1.0
C      1  0.5239780000000  0.5953190000000  0.4261740000000 1.0
C      1  0.5045670000000  0.5218000000000  0.6236170000000 1.0
C      1  0.5221590000000  0.3952020000000  0.4594170000000 1.0
C      1  0.5227140000000  0.5944400000000  0.5723930000000 1.0
C      1  0.5038360000000  0.5217340000000  0.3782010000000 1.0
C      1  0.5213500000000  0.3933440000000  0.5465140000000 1.0
C      1  0.5077990000000  0.5335500000000  0.4331570000000 1.0
C      1  0.5100890000000  0.5600340000000  0.5563800000000 1.0
C      1  0.5003640000000  0.4210340000000  0.5213950000000 1.0
C      1  0.5059130000000  0.5302480000000  0.5701390000000 1.0
C      1  0.5102800000000  0.5632300000000  0.4454340000000 1.0
C      1  0.5065230000000  0.4222800000000  0.4878440000000 1.0
C      1  0.4533180000000  0.5250410000000  0.4815890000000 1.0
C      1  0.4543050000000  0.5007270000000  0.5316330000000 1.0
C      1  0.4598510000000  0.4673070000000  0.4867420000000 1.0
C      1  0.4557170000000  0.5272670000000  0.5118620000000 1.0
C      1  0.4553570000000  0.4939100000000  0.4684540000000 1.0
C      1  0.4530830000000  0.4721860000000  0.5187710000000 1.0
C      1  0.5743700000000  0.5213230000000  0.5179400000000 1.0
C      1  0.5747800000000  0.4679000000000  0.5116970000000 1.0
C      1  0.5793050000000  0.4985630000000  0.4668160000000 1.0
C      1  0.5715920000000  0.5243610000000  0.4873080000000 1.0
C      1  0.5831450000000  0.4702980000000  0.4801180000000 1.0
C      1  0.5730270000000  0.4920280000000  0.5314540000000 1.0
C      1  0.5071450000000  0.5525610000000  0.6086590000000 1.0
C      1  0.5154650000000  0.3836410000000  0.4880440000000 1.0
C      1  0.5106720000000  0.5761780000000  0.4070710000000 1.0
C      1  0.5069550000000  0.5532140000000  0.3914910000000 1.0
C      1  0.5138960000000  0.3838650000000  0.5169940000000 1.0
C      1  0.5114560000000  0.5754370000000  0.5931170000000 1.0
C      1  0.4499110000000  0.5393840000000  0.5405360000000 1.0
C      1  0.4416310000000  0.4427930000000  0.5124160000000 1.0
C      1  0.4482110000000  0.5130280000000  0.4439830000000 1.0
C      1  0.4491630000000  0.5443700000000  0.4584540000000 1.0
C      1  0.4434800000000  0.4399470000000  0.4795490000000 1.0
C      1  0.4469420000000  0.5114250000000  0.5595030000000 1.0
C      1  0.5879870000000  0.4506070000000  0.5511460000000 1.0
C      1  0.5798020000000  0.4731930000000  0.4261680000000 1.0
C      1  0.5788120000000  0.5685380000000  0.5149440000000 1.0
C      1  0.5887410000000  0.4491160000000  0.4398530000000 1.0
C      1  0.5825750000000  0.4738560000000  0.5661120000000 1.0
C      1  0.5725870000000  0.5683770000000  0.4870260000000 1.0
C      1  0.5508950000000  0.5864620000000  0.4309440000000 1.0
C      1  0.5301090000000  0.5120210000000  0.6042000000000 1.0
C      1  0.5508010000000  0.3972820000000  0.4555650000000 1.0
C      1  0.5512390000000  0.5903690000000  0.5684210000000 1.0
C      1  0.5310110000000  0.5106870000000  0.3953270000000 1.0
C      1  0.5500310000000  0.3965280000000  0.5460480000000 1.0
C      1  0.5031010000000  0.5066290000000  0.4144470000000 1.0
C      1  0.4948220000000  0.5864840000000  0.5448980000000 1.0
C      1  0.4884470000000  0.4149900000000  0.5527870000000 1.0
C      1  0.5006420000000  0.5042380000000  0.5886110000000 1.0
C      1  0.4949860000000  0.5904040000000  0.4531880000000 1.0
C      1  0.4909380000000  0.4201370000000  0.4580600000000 1.0
C      1  0.4239750000000  0.5336590000000  0.5949950000000 1.0
C      1  0.4168990000000  0.3988860000000  0.4815840000000 1.0
C      1  0.4266160000000  0.5631160000000  0.4199300000000 1.0
C      1  0.4260010000000  0.5351960000000  0.4055100000000 1.0
C      1  0.4183040000000  0.3993780000000  0.5128390000000 1.0
C      1  0.4255880000000  0.5603700000000  0.5782670000000 1.0
C      1  0.4154700000000  0.4548510000000  0.4557190000000 1.0
C      1  0.4188350000000  0.5560500000000  0.4818440000000 1.0
C      1  0.4181300000000  0.4839470000000  0.5582770000000 1.0
C      1  0.4150390000000  0.4562920000000  0.5386720000000 1.0
C      1  0.4211170000000  0.5524120000000  0.5159970000000 1.0
C      1  0.4187820000000  0.4861970000000  0.4429320000000 1.0
C      1  0.4167530000000  0.4256180000000  0.5238650000000 1.0
C      1  0.4234210000000  0.5132120000000  0.4227080000000 1.0
C      1  0.4240300000000  0.5563280000000  0.5499240000000 1.0
C      1  0.4169420000000  0.4243620000000  0.4698690000000 1.0
C      1  0.4219710000000  0.5109510000000  0.5785040000000 1.0
C      1  0.4237910000000  0.5601520000000  0.4483030000000 1.0
END
