TITL C-2782226-7400-1356 0.00192584141503296 125000 -973.308103533933 0 0 164 (C1) n - 1
REM
REM in /home/nfs/bkarasulu/CARBON/AIRSS/Generating-Clusters/REBO/Higher-Symm/SD-CG/HFTN-CG
REM
REM
REM
REM
REM
REM ./C.cell (12c818d87b63d06a65506943cc24bca4)
REM
REM compiler GCC version 9.2.1 20190827 (Red Hat 9.2.1-1)
REM options -cpp -mtune=generic -march=x86-64 -g -O0 -fpre-include=/usr/include/finclude/math-vector-fortran.h
REM seed -1608851937 -58436456 -2058071085 592483613 1055668286 -892037041 1723098924 1556340088 -1505543924 1708673341 -55824766 1368380228 -2038181134 2035890598 1566757010 -255501462 -1356002297 -466937792 1415288206 -283370920 -429166548 -847113606 -1945436497 -1262161509 1463274583 541634614 -480936720 391557390 -1776314176 2036243877 -1347085300 619741002 -1712128897
REM
CELL 1.54180   50.00000   50.00000   50.00000   90.00000   90.00000   90.00000
LATT -1
SFAC C  
C      1  0.5428190000000  0.4917290000000  0.5567910000000 1.0
C      1  0.5455810000000  0.5543500000000  0.5249750000000 1.0
C      1  0.5451770000000  0.5418280000000  0.4540830000000 1.0
C      1  0.5441870000000  0.4715920000000  0.4456730000000 1.0
C      1  0.5410160000000  0.4429950000000  0.5097190000000 1.0
C      1  0.4847710000000  0.4339610000000  0.5438440000000 1.0
C      1  0.4798970000000  0.5188560000000  0.5720550000000 1.0
C      1  0.4803850000000  0.5670900000000  0.4987100000000 1.0
C      1  0.4894690000000  0.5294400000000  0.4246940000000 1.0
C      1  0.4834220000000  0.4423370000000  0.4542290000000 1.0
C      1  0.5734720000000  0.4355450000000  0.5088570000000 1.0
C      1  0.5753280000000  0.4872780000000  0.5654740000000 1.0
C      1  0.5782510000000  0.5623420000000  0.5313270000000 1.0
C      1  0.5784490000000  0.5495270000000  0.4492080000000 1.0
C      1  0.5768800000000  0.4676110000000  0.4358500000000 1.0
C      1  0.4891460000000  0.5912250000000  0.5491300000000 1.0
C      1  0.4899320000000  0.5797150000000  0.4256020000000 1.0
C      1  0.4886190000000  0.4572080000000  0.4022050000000 1.0
C      1  0.4886890000000  0.3927830000000  0.5110860000000 1.0
C      1  0.4864720000000  0.4826790000000  0.6079520000000 1.0
C      1  0.4808650000000  0.5524970000000  0.5779500000000 1.0
C      1  0.4810100000000  0.5899350000000  0.4748200000000 1.0
C      1  0.4811820000000  0.5068520000000  0.4019450000000 1.0
C      1  0.4814720000000  0.4101910000000  0.4659760000000 1.0
C      1  0.4815250000000  0.4433020000000  0.5765610000000 1.0
C      1  0.5294990000000  0.5437210000000  0.4052820000000 1.0
C      1  0.5205630000000  0.4283520000000  0.4277500000000 1.0
C      1  0.5208780000000  0.4097840000000  0.5465120000000 1.0
C      1  0.5246190000000  0.5180500000000  0.5955380000000 1.0
C      1  0.5269200000000  0.5992190000000  0.5118290000000 1.0
C      1  0.4897160000000  0.3992180000000  0.5444820000000 1.0
C      1  0.4792850000000  0.5074690000000  0.6199500000000 1.0
C      1  0.4803230000000  0.6104950000000  0.5259750000000 1.0
C      1  0.4786810000000  0.5575170000000  0.4117800000000 1.0
C      1  0.4923610000000  0.4291930000000  0.4144530000000 1.0
C      1  0.5027890000000  0.5878160000000  0.4506790000000 1.0
C      1  0.5033230000000  0.4816140000000  0.3961960000000 1.0
C      1  0.5029030000000  0.3968550000000  0.4850500000000 1.0
C      1  0.5009190000000  0.4581460000000  0.5955390000000 1.0
C      1  0.5025690000000  0.5735820000000  0.5685350000000 1.0
C      1  0.4693500000000  0.4182110000000  0.4349770000000 1.0
C      1  0.4661720000000  0.4152040000000  0.5636690000000 1.0
C      1  0.4661190000000  0.5305560000000  0.5999880000000 1.0
C      1  0.4664260000000  0.6038570000000  0.5025580000000 1.0
C      1  0.4571730000000  0.5324840000000  0.4032120000000 1.0
C      1  0.6051010000000  0.5228770000000  0.5014070000000 1.0
C      1  0.6054270000000  0.5072860000000  0.4771080000000 1.0
C      1  0.6063880000000  0.4785630000000  0.4841390000000 1.0
C      1  0.6081320000000  0.4769950000000  0.5141860000000 1.0
C      1  0.6066750000000  0.5048700000000  0.5239840000000 1.0
C      1  0.5186190000000  0.5849380000000  0.4871850000000 1.0
C      1  0.5219330000000  0.5151060000000  0.4066290000000 1.0
C      1  0.5184380000000  0.4237390000000  0.4593090000000 1.0
C      1  0.5189390000000  0.4360250000000  0.5644450000000 1.0
C      1  0.5169660000000  0.5363350000000  0.5734360000000 1.0
C      1  0.5378090000000  0.4730680000000  0.5003370000000 1.0
C      1  0.5408240000000  0.4939010000000  0.5250830000000 1.0
C      1  0.5460930000000  0.5232040000000  0.5135690000000 1.0
C      1  0.5468270000000  0.5216830000000  0.4814880000000 1.0
C      1  0.5450500000000  0.4905530000000  0.4731760000000 1.0
C      1  0.5008480000000  0.5573260000000  0.5314960000000 1.0
C      1  0.5057930000000  0.5483000000000  0.4556210000000 1.0
C      1  0.5007430000000  0.4773980000000  0.4459780000000 1.0
C      1  0.4994380000000  0.4409840000000  0.5074090000000 1.0
C      1  0.4982330000000  0.4856940000000  0.5595250000000 1.0
C      1  0.4555990000000  0.5306990000000  0.5306140000000 1.0
C      1  0.4567930000000  0.5416640000000  0.4779270000000 1.0
C      1  0.4556750000000  0.5001910000000  0.4435880000000 1.0
C      1  0.4618520000000  0.4529970000000  0.4941250000000 1.0
C      1  0.4556240000000  0.4794280000000  0.5424690000000 1.0
C      1  0.4690820000000  0.5364480000000  0.5055140000000 1.0
C      1  0.4726190000000  0.5056220000000  0.4649550000000 1.0
C      1  0.4824020000000  0.4606600000000  0.4770670000000 1.0
C      1  0.4623430000000  0.4686770000000  0.5181800000000 1.0
C      1  0.4673210000000  0.5064760000000  0.5452010000000 1.0
C      1  0.5719770000000  0.5766470000000  0.4891880000000 1.0
C      1  0.5716830000000  0.5132420000000  0.4226760000000 1.0
C      1  0.5693950000000  0.4310110000000  0.4601630000000 1.0
C      1  0.5686290000000  0.4430020000000  0.5531880000000 1.0
C      1  0.5708170000000  0.5320440000000  0.5692970000000 1.0
C      1  0.5754320000000  0.5292010000000  0.5289810000000 1.0
C      1  0.5751490000000  0.5377310000000  0.4795740000000 1.0
C      1  0.5743260000000  0.4931110000000  0.4571400000000 1.0
C      1  0.5691740000000  0.4629830000000  0.4891410000000 1.0
C      1  0.5732880000000  0.4844840000000  0.5322580000000 1.0
C      1  0.4407430000000  0.5196470000000  0.5798960000000 1.0
C      1  0.4413340000000  0.5810720000000  0.5053330000000 1.0
C      1  0.4365370000000  0.5316380000000  0.4237560000000 1.0
C      1  0.4442400000000  0.4368720000000  0.4486000000000 1.0
C      1  0.4418740000000  0.4304530000000  0.5452010000000 1.0
C      1  0.4507590000000  0.5742240000000  0.4731390000000 1.0
C      1  0.4560830000000  0.4932810000000  0.4156560000000 1.0
C      1  0.4539330000000  0.4253780000000  0.4794050000000 1.0
C      1  0.4526370000000  0.4565010000000  0.5645510000000 1.0
C      1  0.4523470000000  0.5453970000000  0.5606370000000 1.0
C      1  0.4749850000000  0.4215570000000  0.5150470000000 1.0
C      1  0.4737740000000  0.4869710000000  0.5794280000000 1.0
C      1  0.4715290000000  0.5718140000000  0.5297790000000 1.0
C      1  0.4732080000000  0.5462560000000  0.4496870000000 1.0
C      1  0.4750150000000  0.4614290000000  0.4303990000000 1.0
C      1  0.3911050000000  0.4837880000000  0.4804910000000 1.0
C      1  0.3909210000000  0.4758170000000  0.5085200000000 1.0
C      1  0.3903490000000  0.4998920000000  0.5248190000000 1.0
C      1  0.3900840000000  0.5227760000000  0.5067670000000 1.0
C      1  0.3903870000000  0.5128160000000  0.4794000000000 1.0
C      1  0.5623310000000  0.4873050000000  0.4136900000000 1.0
C      1  0.5604710000000  0.4172910000000  0.4838080000000 1.0
C      1  0.5600700000000  0.4591310000000  0.5766240000000 1.0
C      1  0.5626900000000  0.5580940000000  0.5608470000000 1.0
C      1  0.5631120000000  0.5765220000000  0.4619540000000 1.0
C      1  0.4415850000000  0.4856350000000  0.5790530000000 1.0
C      1  0.4417690000000  0.5674690000000  0.5366550000000 1.0
C      1  0.4413400000000  0.5570590000000  0.4450000000000 1.0
C      1  0.4430750000000  0.4650270000000  0.4294750000000 1.0
C      1  0.4437440000000  0.4224570000000  0.5121470000000 1.0
C      1  0.5488110000000  0.4280870000000  0.5394070000000 1.0
C      1  0.5507540000000  0.5157040000000  0.5788930000000 1.0
C      1  0.5525470000000  0.5820780000000  0.5081090000000 1.0
C      1  0.5531390000000  0.5339750000000  0.4227980000000 1.0
C      1  0.5500190000000  0.4387360000000  0.4406900000000 1.0
C      1  0.4991650000000  0.5163460000000  0.4542370000000 1.0
C      1  0.5019570000000  0.4826450000000  0.4791400000000 1.0
C      1  0.4923030000000  0.4681390000000  0.5150450000000 1.0
C      1  0.4991860000000  0.5068100000000  0.5365750000000 1.0
C      1  0.5027340000000  0.5411810000000  0.5037080000000 1.0
C      1  0.5207460000000  0.4609240000000  0.4256480000000 1.0
C      1  0.5202820000000  0.4169450000000  0.5148050000000 1.0
C      1  0.5212240000000  0.4893250000000  0.5816800000000 1.0
C      1  0.5236060000000  0.5773530000000  0.5348920000000 1.0
C      1  0.5238620000000  0.5589020000000  0.4328080000000 1.0
C      1  0.4195050000000  0.4836500000000  0.4397800000000 1.0
C      1  0.4209330000000  0.4389550000000  0.4973750000000 1.0
C      1  0.4189400000000  0.4771500000000  0.5582310000000 1.0
C      1  0.4186850000000  0.5463490000000  0.5386400000000 1.0
C      1  0.4186690000000  0.5509510000000  0.4668160000000 1.0
C      1  0.5364600000000  0.4783230000000  0.4033080000000 1.0
C      1  0.5355400000000  0.4035840000000  0.4892870000000 1.0
C      1  0.5344510000000  0.4617240000000  0.5908420000000 1.0
C      1  0.5360790000000  0.5699020000000  0.5636190000000 1.0
C      1  0.5364220000000  0.5824910000000  0.4517090000000 1.0
C      1  0.5891680000000  0.4551170000000  0.5301610000000 1.0
C      1  0.5924240000000  0.5133190000000  0.5518450000000 1.0
C      1  0.5927230000000  0.5529390000000  0.5020200000000 1.0
C      1  0.5924170000000  0.5184840000000  0.4491530000000 1.0
C      1  0.5899190000000  0.4572260000000  0.4648830000000 1.0
C      1  0.5082480000000  0.5334550000000  0.5480770000000 1.0
C      1  0.5150580000000  0.5585590000000  0.4812330000000 1.0
C      1  0.5164330000000  0.5008000000000  0.4293910000000 1.0
C      1  0.5130540000000  0.4352170000000  0.4800440000000 1.0
C      1  0.5129910000000  0.4587360000000  0.5573390000000 1.0
C      1  0.4056560000000  0.5454670000000  0.5133140000000 1.0
C      1  0.4054740000000  0.5264620000000  0.4597200000000 1.0
C      1  0.4072780000000  0.4698900000000  0.4618660000000 1.0
C      1  0.4069250000000  0.4541140000000  0.5170140000000 1.0
C      1  0.4056940000000  0.5006130000000  0.5486870000000 1.0
C      1  0.4210330000000  0.4460950000000  0.4702630000000 1.0
C      1  0.4191030000000  0.4537650000000  0.5429710000000 1.0
C      1  0.4182140000000  0.5250430000000  0.5567010000000 1.0
C      1  0.4186960000000  0.5607860000000  0.4928880000000 1.0
C      1  0.4182730000000  0.5126170000000  0.4372560000000 1.0
C      1  0.4420060000000  0.5013370000000  0.5073970000000 1.0
C      1  0.5730520000000  0.4912240000000  0.5019580000000 1.0
C      1  0.4616210000000  0.5005120000000  0.4898120000000 1.0
C      1  0.5048480000000  0.4945860000000  0.5072910000000 1.0
END
