TITL C-2782240-8521-340 -0.000684184230693021 125000 -1043.84569774637 0 0 170 (C1) n - 1
REM
REM in /home/nfs/bkarasulu/CARBON/AIRSS/Generating-Clusters/REBO/Higher-Symm/SD-CG/HFTN-CG
REM
REM
REM
REM
REM
REM ./C.cell (12c818d87b63d06a65506943cc24bca4)
REM
REM compiler GCC version 9.2.1 20190827 (Red Hat 9.2.1-1)
REM options -cpp -mtune=generic -march=x86-64 -g -O0 -fpre-include=/usr/include/finclude/math-vector-fortran.h
REM seed -1404668705 -1031594192 -132014872 -522376175 447960390 -933711704 -1743750808 2007817748 -524048670 -710676008 1923077917 1063176116 2108105858 -320178894 1299700880 -236721745 1798713112 350569000 -1619398017 -1010254899 1864327341 -560505501 1765051040 -906162322 1574595670 1363713484 994653786 1612615761 -883675064 2047148926 523380284 -1029886209 950821371
REM
CELL 1.54180   50.00000   50.00000   50.00000   90.00000   90.00000   90.00000
LATT -1
SFAC C  
C      1  0.5028200000000  0.5017280000000  0.5420300000000 1.0
C      1  0.5269640000000  0.5049190000000  0.5244410000000 1.0
C      1  0.5223570000000  0.5077800000000  0.4941310000000 1.0
C      1  0.4980840000000  0.4995960000000  0.4758280000000 1.0
C      1  0.4708530000000  0.5009730000000  0.4828370000000 1.0
C      1  0.4628870000000  0.5003260000000  0.5099990000000 1.0
C      1  0.4765330000000  0.4986180000000  0.5344750000000 1.0
C      1  0.3856400000000  0.4870480000000  0.5137970000000 1.0
C      1  0.4460270000000  0.4843390000000  0.5977960000000 1.0
C      1  0.5346920000000  0.4861190000000  0.6137670000000 1.0
C      1  0.6005440000000  0.4924790000000  0.5376890000000 1.0
C      1  0.5880430000000  0.4879440000000  0.4376670000000 1.0
C      1  0.5073090000000  0.4809640000000  0.3885660000000 1.0
C      1  0.4225800000000  0.4862600000000  0.4226300000000 1.0
C      1  0.5449800000000  0.4791630000000  0.5300190000000 1.0
C      1  0.5371810000000  0.4811270000000  0.4787800000000 1.0
C      1  0.5024460000000  0.4737760000000  0.4604200000000 1.0
C      1  0.4579720000000  0.4754150000000  0.4709400000000 1.0
C      1  0.4470610000000  0.4736900000000  0.5104690000000 1.0
C      1  0.4662720000000  0.4722940000000  0.5488430000000 1.0
C      1  0.5090840000000  0.4851010000000  0.5647790000000 1.0
C      1  0.4879120000000  0.5641570000000  0.5283700000000 1.0
C      1  0.5152970000000  0.5659150000000  0.5300960000000 1.0
C      1  0.5323900000000  0.5610960000000  0.5063620000000 1.0
C      1  0.5255290000000  0.5665050000000  0.4751480000000 1.0
C      1  0.4998650000000  0.5773510000000  0.4606470000000 1.0
C      1  0.4883630000000  0.5526470000000  0.4790820000000 1.0
C      1  0.4746590000000  0.5584870000000  0.5052860000000 1.0
C      1  0.4366590000000  0.4285570000000  0.4518700000000 1.0
C      1  0.4274060000000  0.4322410000000  0.5202550000000 1.0
C      1  0.4727360000000  0.4210800000000  0.5737620000000 1.0
C      1  0.5400820000000  0.4225010000000  0.5708490000000 1.0
C      1  0.5785900000000  0.4278120000000  0.5089290000000 1.0
C      1  0.5605630000000  0.4214840000000  0.4406990000000 1.0
C      1  0.4990230000000  0.4309080000000  0.4224670000000 1.0
C      1  0.3887980000000  0.4785580000000  0.4871130000000 1.0
C      1  0.4265330000000  0.4762550000000  0.5767530000000 1.0
C      1  0.5069710000000  0.4789370000000  0.6073970000000 1.0
C      1  0.5888490000000  0.4777090000000  0.5587790000000 1.0
C      1  0.5942590000000  0.4801250000000  0.4636740000000 1.0
C      1  0.5337160000000  0.4739400000000  0.3950710000000 1.0
C      1  0.4458850000000  0.4807150000000  0.4085080000000 1.0
C      1  0.4418130000000  0.4559030000000  0.4401740000000 1.0
C      1  0.4113050000000  0.4559520000000  0.5111290000000 1.0
C      1  0.4547950000000  0.4379750000000  0.5882500000000 1.0
C      1  0.5355690000000  0.4409580000000  0.5913500000000 1.0
C      1  0.5923630000000  0.4480150000000  0.5228230000000 1.0
C      1  0.5749890000000  0.4460760000000  0.4397040000000 1.0
C      1  0.5097760000000  0.4602810000000  0.4237960000000 1.0
C      1  0.5871260000000  0.5573220000000  0.4918200000000 1.0
C      1  0.5532980000000  0.5542140000000  0.4200090000000 1.0
C      1  0.4798020000000  0.5569550000000  0.4133390000000 1.0
C      1  0.4196840000000  0.5525760000000  0.4625730000000 1.0
C      1  0.4269320000000  0.5552830000000  0.5330480000000 1.0
C      1  0.4814260000000  0.5551500000000  0.5829760000000 1.0
C      1  0.5555160000000  0.5506990000000  0.5595200000000 1.0
C      1  0.5750210000000  0.5269050000000  0.4818400000000 1.0
C      1  0.5386410000000  0.5246790000000  0.4293200000000 1.0
C      1  0.4735880000000  0.5267950000000  0.4285610000000 1.0
C      1  0.4274210000000  0.5215650000000  0.4746410000000 1.0
C      1  0.4367600000000  0.5227860000000  0.5396900000000 1.0
C      1  0.4930580000000  0.5238410000000  0.5753800000000 1.0
C      1  0.5436810000000  0.5280690000000  0.5365890000000 1.0
C      1  0.4167010000000  0.4994310000000  0.5544110000000 1.0
C      1  0.4907600000000  0.5018100000000  0.6004870000000 1.0
C      1  0.5708320000000  0.4911340000000  0.5773230000000 1.0
C      1  0.5857140000000  0.4981980000000  0.4862980000000 1.0
C      1  0.5479490000000  0.4977770000000  0.4106810000000 1.0
C      1  0.4673300000000  0.5044120000000  0.4089310000000 1.0
C      1  0.4040480000000  0.4983600000000  0.4683600000000 1.0
C      1  0.5505790000000  0.4685580000000  0.5906870000000 1.0
C      1  0.5928020000000  0.4775920000000  0.5118480000000 1.0
C      1  0.5596690000000  0.4722400000000  0.4290090000000 1.0
C      1  0.4853140000000  0.4783190000000  0.4145020000000 1.0
C      1  0.4219650000000  0.4748030000000  0.4536120000000 1.0
C      1  0.4035150000000  0.4724760000000  0.5377660000000 1.0
C      1  0.4672850000000  0.4631220000000  0.5963050000000 1.0
C      1  0.5318540000000  0.4741730000000  0.4457820000000 1.0
C      1  0.4743440000000  0.4666400000000  0.4426510000000 1.0
C      1  0.4280510000000  0.4717510000000  0.4857500000000 1.0
C      1  0.4359690000000  0.4702770000000  0.5390470000000 1.0
C      1  0.4844460000000  0.4724420000000  0.5742250000000 1.0
C      1  0.5366830000000  0.4767300000000  0.5623390000000 1.0
C      1  0.5608490000000  0.4844210000000  0.5031560000000 1.0
C      1  0.4679640000000  0.5758170000000  0.4358540000000 1.0
C      1  0.4379240000000  0.5725790000000  0.4784320000000 1.0
C      1  0.4452600000000  0.5773100000000  0.5454100000000 1.0
C      1  0.5023770000000  0.5767230000000  0.5726150000000 1.0
C      1  0.5599000000000  0.5779560000000  0.5417410000000 1.0
C      1  0.5713280000000  0.5800320000000  0.4765050000000 1.0
C      1  0.5361610000000  0.5782210000000  0.4316640000000 1.0
C      1  0.5070480000000  0.4435210000000  0.5429730000000 1.0
C      1  0.5354640000000  0.4479930000000  0.5297260000000 1.0
C      1  0.5395160000000  0.4516440000000  0.4960630000000 1.0
C      1  0.5085260000000  0.4538650000000  0.4840910000000 1.0
C      1  0.4776400000000  0.4497930000000  0.4806510000000 1.0
C      1  0.4672620000000  0.4511130000000  0.5078550000000 1.0
C      1  0.4817610000000  0.4504190000000  0.5318050000000 1.0
C      1  0.5336360000000  0.6064130000000  0.4470420000000 1.0
C      1  0.4755820000000  0.6020020000000  0.4407470000000 1.0
C      1  0.4434840000000  0.6025450000000  0.4822930000000 1.0
C      1  0.4503980000000  0.6018260000000  0.5344150000000 1.0
C      1  0.4961430000000  0.6002170000000  0.5600260000000 1.0
C      1  0.5450790000000  0.6010410000000  0.5417980000000 1.0
C      1  0.5616130000000  0.6016040000000  0.4903120000000 1.0
C      1  0.4080800000000  0.5082890000000  0.4371930000000 1.0
C      1  0.3933500000000  0.5103770000000  0.5326550000000 1.0
C      1  0.4617190000000  0.5080490000000  0.6033040000000 1.0
C      1  0.5552180000000  0.5058330000000  0.6038190000000 1.0
C      1  0.6072650000000  0.5192180000000  0.5334580000000 1.0
C      1  0.5776310000000  0.5074790000000  0.4184320000000 1.0
C      1  0.4899140000000  0.5051390000000  0.3853610000000 1.0
C      1  0.4207040000000  0.5333470000000  0.4371400000000 1.0
C      1  0.4033610000000  0.5341010000000  0.5211220000000 1.0
C      1  0.4571250000000  0.5325610000000  0.5905210000000 1.0
C      1  0.5542320000000  0.5207360000000  0.5743750000000 1.0
C      1  0.5954000000000  0.5363290000000  0.5169620000000 1.0
C      1  0.5773150000000  0.5340710000000  0.4270220000000 1.0
C      1  0.4957090000000  0.5323200000000  0.3959800000000 1.0
C      1  0.4658590000000  0.4094810000000  0.4970030000000 1.0
C      1  0.4795240000000  0.4081100000000  0.5237880000000 1.0
C      1  0.5087780000000  0.4044770000000  0.5295800000000 1.0
C      1  0.5311960000000  0.4058980000000  0.5107900000000 1.0
C      1  0.5297640000000  0.4051360000000  0.4814220000000 1.0
C      1  0.5069220000000  0.4040540000000  0.4634540000000 1.0
C      1  0.4782760000000  0.4070610000000  0.4697990000000 1.0
C      1  0.4318150000000  0.4466020000000  0.5705180000000 1.0
C      1  0.5076650000000  0.4507240000000  0.5982130000000 1.0
C      1  0.5830220000000  0.4509180000000  0.5503340000000 1.0
C      1  0.5849360000000  0.4534630000000  0.4659070000000 1.0
C      1  0.5349460000000  0.4455060000000  0.4080470000000 1.0
C      1  0.4556730000000  0.4517850000000  0.4106600000000 1.0
C      1  0.3971550000000  0.4473800000000  0.4819140000000 1.0
C      1  0.5245260000000  0.5614060000000  0.5582530000000 1.0
C      1  0.5627110000000  0.5673660000000  0.5133830000000 1.0
C      1  0.5510630000000  0.5657780000000  0.4584230000000 1.0
C      1  0.5066860000000  0.5670280000000  0.4317290000000 1.0
C      1  0.4615240000000  0.5585820000000  0.4604580000000 1.0
C      1  0.4451010000000  0.5576350000000  0.5043610000000 1.0
C      1  0.4704410000000  0.5620440000000  0.5521940000000 1.0
C      1  0.4374640000000  0.4187700000000  0.4976690000000 1.0
C      1  0.4626840000000  0.4155320000000  0.5473900000000 1.0
C      1  0.5172410000000  0.4078410000000  0.5574400000000 1.0
C      1  0.5565450000000  0.4147030000000  0.5228890000000 1.0
C      1  0.5534110000000  0.4152450000000  0.4680840000000 1.0
C      1  0.5145270000000  0.4102010000000  0.4356590000000 1.0
C      1  0.4612270000000  0.4150270000000  0.4465600000000 1.0
C      1  0.5227000000000  0.5286910000000  0.5642470000000 1.0
C      1  0.5617690000000  0.5346720000000  0.5123500000000 1.0
C      1  0.5592580000000  0.5359780000000  0.4547550000000 1.0
C      1  0.5076660000000  0.5331210000000  0.4279900000000 1.0
C      1  0.4509950000000  0.5309070000000  0.4511020000000 1.0
C      1  0.4325310000000  0.5272820000000  0.5056010000000 1.0
C      1  0.4636860000000  0.5300370000000  0.5578400000000 1.0
C      1  0.5346690000000  0.6106780000000  0.4949240000000 1.0
C      1  0.5202060000000  0.6123530000000  0.4704900000000 1.0
C      1  0.4894220000000  0.6077460000000  0.4694580000000 1.0
C      1  0.4686140000000  0.6107120000000  0.4907340000000 1.0
C      1  0.4730120000000  0.6105500000000  0.5186660000000 1.0
C      1  0.4981450000000  0.6097000000000  0.5327420000000 1.0
C      1  0.5252240000000  0.6098570000000  0.5224480000000 1.0
C      1  0.5394170000000  0.4202920000000  0.4220450000000 1.0
C      1  0.4715230000000  0.4280770000000  0.4220770000000 1.0
C      1  0.4211400000000  0.4273430000000  0.4748930000000 1.0
C      1  0.4372480000000  0.4301840000000  0.5456190000000 1.0
C      1  0.5011270000000  0.4310120000000  0.5736260000000 1.0
C      1  0.5573680000000  0.4331580000000  0.5490860000000 1.0
C      1  0.5659900000000  0.4378670000000  0.4844250000000 1.0
C      1  0.5089400000000  0.4716400000000  0.5116700000000 1.0
C      1  0.5173090000000  0.5370100000000  0.4876810000000 1.0
END
