TITL C-2782234-8014-1106 -2.33267014716941e-07 125000 -72.4143977211636 0 0 13 (Cs) n - 1
REM
REM in /home/nfs/bkarasulu/CARBON/AIRSS/Generating-Clusters/REBO/Higher-Symm/SD-CG/HFTN-CG
REM
REM
REM
REM
REM
REM ./C.cell (12c818d87b63d06a65506943cc24bca4)
REM
REM compiler GCC version 9.2.1 20190827 (Red Hat 9.2.1-1)
REM options -cpp -mtune=generic -march=x86-64 -g -O0 -fpre-include=/usr/include/finclude/math-vector-fortran.h
REM seed 751198493 -421111401 -1863512614 168856085 948228018 2065026987 -1578222211 1086833007 -737662716 -900115108 -1810068348 -1644367095 -1646792132 400064440 72158566 262863261 432248822 -19252905 -1861563736 1717712015 -204397282 -765113772 -1650970410 -127982388 1421272614 -89836139 -1065322116 1165496491 502462802 1612890050 421045696 -1072038989 416655835
REM
CELL 1.54180   50.00000   50.00000   50.00000   90.00000   90.00000   90.00000
LATT -1
SFAC C  
C      1  0.4910300000000  0.5280480000000  0.5057120000000 1.0
C      1  0.4914520000000  0.4769030000000  0.5050430000000 1.0
C      1  0.4707520000000  0.4891610000000  0.4617260000000 1.0
C      1  0.4705260000000  0.5165870000000  0.4620840000000 1.0
C      1  0.5165130000000  0.5372230000000  0.5152920000000 1.0
C      1  0.5170850000000  0.4679010000000  0.5143860000000 1.0
C      1  0.5250470000000  0.5628530000000  0.5126350000000 1.0
C      1  0.5260390000000  0.4424940000000  0.5110610000000 1.0
C      1  0.4791150000000  0.5349130000000  0.4807720000000 1.0
C      1  0.4796460000000  0.4704970000000  0.4799300000000 1.0
C      1  0.5326720000000  0.5161940000000  0.5255410000000 1.0
C      1  0.5328960000000  0.4889190000000  0.5251850000000 1.0
C      1  0.4834980000000  0.5022800000000  0.5154000000000 1.0
END
