TITL C-2782237-5345-1309 -0.183339675558911 125000 -1007.11234874706 0 0 170 (C1) n - 1
REM
REM in /home/nfs/bkarasulu/CARBON/AIRSS/Generating-Clusters/REBO/Higher-Symm/SD-CG/HFTN-CG
REM
REM
REM
REM
REM
REM ./C.cell (12c818d87b63d06a65506943cc24bca4)
REM
REM compiler GCC version 9.2.1 20190827 (Red Hat 9.2.1-1)
REM options -cpp -mtune=generic -march=x86-64 -g -O0 -fpre-include=/usr/include/finclude/math-vector-fortran.h
REM seed 1928789532 339652042 554530085 1597925620 -514276356 1025981025 -2016007124 -1169645261 -640920365 -955752460 -87524367 -1027116785 -1123412839 -1484145066 -1032501196 1189764543 -1330102954 -4248159 1916018216 1708053275 -1602713603 704380029 -1873426138 399068213 1778356585 -651255175 -20486839 18748342 1434331912 2023960014 328468284 -1958673720 -1301867816
REM
CELL 1.54180   50.00000   50.00000   50.00000   90.00000   90.00000   90.00000
LATT -1
SFAC C  
C      1  0.5235660000000  0.5840880000000  0.5234710000000 1.0
C      1  0.5379210000000  0.5905500000000  0.4626630000000 1.0
C      1  0.4783060000000  0.5898960000000  0.4559840000000 1.0
C      1  0.4558330000000  0.5881290000000  0.5054080000000 1.0
C      1  0.4976370000000  0.5874760000000  0.5453580000000 1.0
C      1  0.4760150000000  0.4786470000000  0.5447700000000 1.0
C      1  0.5360860000000  0.4735330000000  0.5334210000000 1.0
C      1  0.5441020000000  0.4747920000000  0.4773680000000 1.0
C      1  0.4979550000000  0.4770300000000  0.4411930000000 1.0
C      1  0.4567950000000  0.4734290000000  0.4956590000000 1.0
C      1  0.5544310000000  0.5001730000000  0.5273060000000 1.0
C      1  0.5470750000000  0.4994410000000  0.4565730000000 1.0
C      1  0.4767280000000  0.4999420000000  0.4427490000000 1.0
C      1  0.4373640000000  0.4973280000000  0.5045640000000 1.0
C      1  0.4933440000000  0.4989490000000  0.5640210000000 1.0
C      1  0.5571040000000  0.4013400000000  0.4681090000000 1.0
C      1  0.4887130000000  0.4010670000000  0.4371110000000 1.0
C      1  0.4375480000000  0.4001770000000  0.4936620000000 1.0
C      1  0.4752010000000  0.4010010000000  0.5597270000000 1.0
C      1  0.5496070000000  0.4020350000000  0.5439010000000 1.0
C      1  0.4442330000000  0.4259420000000  0.4317780000000 1.0
C      1  0.4193970000000  0.4288350000000  0.5316750000000 1.0
C      1  0.5059190000000  0.4281130000000  0.5899840000000 1.0
C      1  0.5875650000000  0.4279860000000  0.5222250000000 1.0
C      1  0.5475380000000  0.4263830000000  0.4243670000000 1.0
C      1  0.5431420000000  0.5221380000000  0.6022870000000 1.0
C      1  0.6094350000000  0.5224880000000  0.4902570000000 1.0
C      1  0.5184000000000  0.5207070000000  0.4168060000000 1.0
C      1  0.4030510000000  0.5238970000000  0.4401480000000 1.0
C      1  0.4155090000000  0.5219800000000  0.5715470000000 1.0
C      1  0.4871060000000  0.4513260000000  0.5975240000000 1.0
C      1  0.5874140000000  0.4511070000000  0.5420070000000 1.0
C      1  0.5663240000000  0.4498260000000  0.4302380000000 1.0
C      1  0.4506450000000  0.4521650000000  0.4203770000000 1.0
C      1  0.4086070000000  0.4524240000000  0.5152670000000 1.0
C      1  0.5386480000000  0.5428660000000  0.4851720000000 1.0
C      1  0.4975720000000  0.5470400000000  0.4582980000000 1.0
C      1  0.4556630000000  0.5435120000000  0.4887480000000 1.0
C      1  0.4748720000000  0.5403250000000  0.5373390000000 1.0
C      1  0.5252350000000  0.5389490000000  0.5357390000000 1.0
C      1  0.5403960000000  0.4079230000000  0.4456010000000 1.0
C      1  0.4622270000000  0.4074680000000  0.4454570000000 1.0
C      1  0.4372850000000  0.4082340000000  0.5214450000000 1.0
C      1  0.5015150000000  0.4087230000000  0.5686410000000 1.0
C      1  0.5660100000000  0.4084390000000  0.5210060000000 1.0
C      1  0.5753500000000  0.5667490000000  0.4983650000000 1.0
C      1  0.5233580000000  0.5618260000000  0.4218250000000 1.0
C      1  0.4330410000000  0.5638070000000  0.4524930000000 1.0
C      1  0.4354700000000  0.5653900000000  0.5487790000000 1.0
C      1  0.5248290000000  0.5695430000000  0.5743250000000 1.0
C      1  0.5167760000000  0.4665550000000  0.5907280000000 1.0
C      1  0.5928280000000  0.4662480000000  0.5118650000000 1.0
C      1  0.5384380000000  0.4647060000000  0.4178860000000 1.0
C      1  0.4321020000000  0.4715230000000  0.4335040000000 1.0
C      1  0.4209000000000  0.4669590000000  0.5434960000000 1.0
C      1  0.5016130000000  0.5529350000000  0.5464320000000 1.0
C      1  0.5381790000000  0.5556430000000  0.5117030000000 1.0
C      1  0.5243840000000  0.5589890000000  0.4624990000000 1.0
C      1  0.4692420000000  0.5595280000000  0.4687320000000 1.0
C      1  0.4594970000000  0.5562010000000  0.5183150000000 1.0
C      1  0.5942760000000  0.5439180000000  0.5106900000000 1.0
C      1  0.5431360000000  0.5396280000000  0.4081940000000 1.0
C      1  0.4266080000000  0.5439340000000  0.4298680000000 1.0
C      1  0.4128360000000  0.5441250000000  0.5476110000000 1.0
C      1  0.5192950000000  0.5449820000000  0.5968480000000 1.0
C      1  0.5369580000000  0.4908030000000  0.5890700000000 1.0
C      1  0.5982310000000  0.4898530000000  0.4908920000000 1.0
C      1  0.5253040000000  0.4895840000000  0.4065130000000 1.0
C      1  0.4115860000000  0.4916270000000  0.4466700000000 1.0
C      1  0.4267570000000  0.4908040000000  0.5625470000000 1.0
C      1  0.5764750000000  0.4397850000000  0.4752950000000 1.0
C      1  0.4991610000000  0.4414180000000  0.4233080000000 1.0
C      1  0.4252720000000  0.4429840000000  0.4723120000000 1.0
C      1  0.4542390000000  0.4405440000000  0.5657130000000 1.0
C      1  0.5462720000000  0.4407640000000  0.5641410000000 1.0
C      1  0.5339740000000  0.4625640000000  0.4499090000000 1.0
C      1  0.4514140000000  0.4692620000000  0.4564570000000 1.0
C      1  0.4462080000000  0.4631360000000  0.5233300000000 1.0
C      1  0.5003540000000  0.4614670000000  0.5613670000000 1.0
C      1  0.5601960000000  0.4629030000000  0.5154120000000 1.0
C      1  0.4902790000000  0.6081080000000  0.4772440000000 1.0
C      1  0.4789590000000  0.6069390000000  0.5019630000000 1.0
C      1  0.4893130000000  0.6132450000000  0.5264820000000 1.0
C      1  0.5272580000000  0.6086780000000  0.5064820000000 1.0
C      1  0.5324070000000  0.6123080000000  0.4825760000000 1.0
C      1  0.4353130000000  0.5193740000000  0.4808680000000 1.0
C      1  0.4653240000000  0.5159000000000  0.5566860000000 1.0
C      1  0.5444870000000  0.5199240000000  0.5528040000000 1.0
C      1  0.5616910000000  0.5222270000000  0.4749090000000 1.0
C      1  0.4857930000000  0.5292300000000  0.4346210000000 1.0
C      1  0.5483440000000  0.5016770000000  0.4963040000000 1.0
C      1  0.5179600000000  0.5038590000000  0.4451230000000 1.0
C      1  0.4601190000000  0.4984130000000  0.4717160000000 1.0
C      1  0.4576110000000  0.5007580000000  0.5290490000000 1.0
C      1  0.5194010000000  0.4999980000000  0.5461620000000 1.0
C      1  0.5237080000000  0.4367050000000  0.4078840000000 1.0
C      1  0.4205700000000  0.4291690000000  0.4481580000000 1.0
C      1  0.4262900000000  0.4386720000000  0.5597050000000 1.0
C      1  0.5344290000000  0.4384820000000  0.5902540000000 1.0
C      1  0.5970630000000  0.4378340000000  0.4951670000000 1.0
C      1  0.4708620000000  0.5436960000000  0.3856180000000 1.0
C      1  0.3899170000000  0.5380850000000  0.4891580000000 1.0
C      1  0.4557860000000  0.5375690000000  0.6014570000000 1.0
C      1  0.5866070000000  0.5339210000000  0.5734320000000 1.0
C      1  0.5959980000000  0.5345840000000  0.4415140000000 1.0
C      1  0.4071870000000  0.5078430000000  0.5087730000000 1.0
C      1  0.4805630000000  0.5075360000000  0.5926890000000 1.0
C      1  0.5811020000000  0.5055000000000  0.5459000000000 1.0
C      1  0.5704460000000  0.5045860000000  0.4349770000000 1.0
C      1  0.4604130000000  0.5058870000000  0.4154190000000 1.0
C      1  0.4634310000000  0.4076460000000  0.5346800000000 1.0
C      1  0.5221810000000  0.4088130000000  0.5477010000000 1.0
C      1  0.5519710000000  0.4078090000000  0.4953770000000 1.0
C      1  0.5120630000000  0.4078600000000  0.4514230000000 1.0
C      1  0.4578790000000  0.4066800000000  0.4746550000000 1.0
C      1  0.4931110000000  0.5751920000000  0.4303240000000 1.0
C      1  0.4329240000000  0.5760600000000  0.4844010000000 1.0
C      1  0.4665560000000  0.5772820000000  0.5568600000000 1.0
C      1  0.5420100000000  0.5729400000000  0.5485110000000 1.0
C      1  0.5637340000000  0.5706950000000  0.4716750000000 1.0
C      1  0.4630580000000  0.5594840000000  0.4349680000000 1.0
C      1  0.4265160000000  0.5629210000000  0.5152230000000 1.0
C      1  0.4907950000000  0.5633290000000  0.5763240000000 1.0
C      1  0.5633250000000  0.5519110000000  0.5344800000000 1.0
C      1  0.5513640000000  0.5592300000000  0.4418530000000 1.0
C      1  0.4912460000000  0.4936370000000  0.4056640000000 1.0
C      1  0.4067430000000  0.4889190000000  0.4802800000000 1.0
C      1  0.4542420000000  0.4878850000000  0.5828340000000 1.0
C      1  0.5639620000000  0.4867790000000  0.5686380000000 1.0
C      1  0.5862750000000  0.4863360000000  0.4591550000000 1.0
C      1  0.5805220000000  0.4567290000000  0.4528350000000 1.0
C      1  0.4783960000000  0.4636920000000  0.4155880000000 1.0
C      1  0.4093600000000  0.4596880000000  0.4887210000000 1.0
C      1  0.4627800000000  0.4582870000000  0.5862260000000 1.0
C      1  0.5688860000000  0.4576780000000  0.5614000000000 1.0
C      1  0.4859120000000  0.5205760000000  0.4764040000000 1.0
C      1  0.4715380000000  0.5178930000000  0.5046430000000 1.0
C      1  0.4949780000000  0.5144670000000  0.5272820000000 1.0
C      1  0.5223110000000  0.5164770000000  0.5100250000000 1.0
C      1  0.5175210000000  0.5175100000000  0.4763420000000 1.0
C      1  0.4050070000000  0.5219860000000  0.4714750000000 1.0
C      1  0.4447620000000  0.5207500000000  0.5814490000000 1.0
C      1  0.5625720000000  0.5193990000000  0.5784230000000 1.0
C      1  0.5917370000000  0.5195750000000  0.4652300000000 1.0
C      1  0.4908850000000  0.5276680000000  0.4015740000000 1.0
C      1  0.4465670000000  0.5922640000000  0.5345410000000 1.0
C      1  0.5102710000000  0.5981170000000  0.5751120000000 1.0
C      1  0.5633410000000  0.5838540000000  0.5233710000000 1.0
C      1  0.5224880000000  0.5912560000000  0.4361060000000 1.0
C      1  0.4474840000000  0.5921910000000  0.4581970000000 1.0
C      1  0.5503350000000  0.4474150000000  0.4906330000000 1.0
C      1  0.5068750000000  0.4474410000000  0.4537890000000 1.0
C      1  0.4567540000000  0.4463700000000  0.4788680000000 1.0
C      1  0.4685780000000  0.4470510000000  0.5386100000000 1.0
C      1  0.5228740000000  0.4486360000000  0.5444640000000 1.0
C      1  0.5117120000000  0.5116030000000  0.5972230000000 1.0
C      1  0.5950510000000  0.5100430000000  0.5176260000000 1.0
C      1  0.5543880000000  0.5074580000000  0.4067320000000 1.0
C      1  0.4300620000000  0.5101970000000  0.4244510000000 1.0
C      1  0.4098960000000  0.5107350000000  0.5403420000000 1.0
C      1  0.5128320000000  0.4273290000000  0.5238050000000 1.0
C      1  0.5268490000000  0.4272060000000  0.4970190000000 1.0
C      1  0.5054530000000  0.4266530000000  0.4758080000000 1.0
C      1  0.4784380000000  0.4262170000000  0.4888460000000 1.0
C      1  0.4830540000000  0.4269500000000  0.5190420000000 1.0
C      1  0.5888740000000  0.5388100000000  0.5440580000000 1.0
C      1  0.5704990000000  0.5379080000000  0.4267950000000 1.0
C      1  0.4538160000000  0.5389830000000  0.4108420000000 1.0
C      1  0.4028850000000  0.5411130000000  0.5156060000000 1.0
C      1  0.4852750000000  0.5412100000000  0.5983300000000 1.0
END
