TITL C-2782226-7400-1496 -0.00123475460206505 125000 -372.751726584746 0 0 64 (C1) n - 1
REM
REM in /home/nfs/bkarasulu/CARBON/AIRSS/Generating-Clusters/REBO/Higher-Symm/SD-CG/HFTN-CG
REM
REM
REM
REM
REM
REM ./C.cell (12c818d87b63d06a65506943cc24bca4)
REM
REM compiler GCC version 9.2.1 20190827 (Red Hat 9.2.1-1)
REM options -cpp -mtune=generic -march=x86-64 -g -O0 -fpre-include=/usr/include/finclude/math-vector-fortran.h
REM seed 1276547871 -1609881316 -848042939 872396661 204188204 -2047294704 -1365924562 -1814083574 2034035797 369329027 -953254956 1004841688 1448777374 1530652435 -1500556405 1919078661 1437567598 -1647940237 1714664062 -563712328 169799886 651339673 -1632699909 1085957808 1053382409 904357174 -1262682707 -416495122 692819207 402306995 -1465835464 -2140374247 -1070522167
REM
CELL 1.54180   50.00000   50.00000   50.00000   90.00000   90.00000   90.00000
LATT -1
SFAC C  
C      1  0.5252920000000  0.5152220000000  0.5620670000000 1.0
C      1  0.4749290000000  0.5143160000000  0.4362270000000 1.0
C      1  0.5305400000000  0.5168400000000  0.4356010000000 1.0
C      1  0.4695130000000  0.5143350000000  0.5683620000000 1.0
C      1  0.5117770000000  0.5252340000000  0.5146340000000 1.0
C      1  0.4841110000000  0.5240300000000  0.4860020000000 1.0
C      1  0.5164150000000  0.5253010000000  0.4811810000000 1.0
C      1  0.4790680000000  0.5266840000000  0.5190310000000 1.0
C      1  0.4653110000000  0.5596490000000  0.5539650000000 1.0
C      1  0.5579710000000  0.5602990000000  0.4631710000000 1.0
C      1  0.4700100000000  0.5607860000000  0.4444420000000 1.0
C      1  0.5208020000000  0.5570740000000  0.5394750000000 1.0
C      1  0.4489050000000  0.5195140000000  0.4530700000000 1.0
C      1  0.5512250000000  0.5192700000000  0.5447520000000 1.0
C      1  0.4418970000000  0.5158060000000  0.5538100000000 1.0
C      1  0.5580430000000  0.5145660000000  0.4489540000000 1.0
C      1  0.5168660000000  0.4796240000000  0.4811100000000 1.0
C      1  0.4807690000000  0.4793950000000  0.5203660000000 1.0
C      1  0.5134520000000  0.4765920000000  0.5136850000000 1.0
C      1  0.4838170000000  0.4760070000000  0.4872680000000 1.0
C      1  0.5780330000000  0.4798410000000  0.5144710000000 1.0
C      1  0.4191850000000  0.4843120000000  0.4863660000000 1.0
C      1  0.5802890000000  0.4789440000000  0.4873600000000 1.0
C      1  0.4174900000000  0.4837520000000  0.5134790000000 1.0
C      1  0.4375160000000  0.5452890000000  0.5457270000000 1.0
C      1  0.5713360000000  0.5414360000000  0.4529010000000 1.0
C      1  0.4510380000000  0.5491820000000  0.4634050000000 1.0
C      1  0.5500630000000  0.5468740000000  0.5305200000000 1.0
C      1  0.4811980000000  0.4583410000000  0.4294030000000 1.0
C      1  0.5221580000000  0.4588470000000  0.5697810000000 1.0
C      1  0.4885990000000  0.4593440000000  0.5707220000000 1.0
C      1  0.5148660000000  0.4607450000000  0.4296960000000 1.0
C      1  0.4718220000000  0.4414990000000  0.4543250000000 1.0
C      1  0.5308190000000  0.4422930000000  0.5445110000000 1.0
C      1  0.4777250000000  0.4471060000000  0.5436750000000 1.0
C      1  0.5249520000000  0.4486790000000  0.4571340000000 1.0
C      1  0.5175160000000  0.4933280000000  0.4301440000000 1.0
C      1  0.4838490000000  0.4914500000000  0.5709210000000 1.0
C      1  0.5134540000000  0.4904750000000  0.5677540000000 1.0
C      1  0.4880980000000  0.4902900000000  0.4318140000000 1.0
C      1  0.5285840000000  0.5545210000000  0.4721510000000 1.0
C      1  0.4597060000000  0.5533520000000  0.5215070000000 1.0
C      1  0.5274780000000  0.5542670000000  0.5059760000000 1.0
C      1  0.4623700000000  0.5484810000000  0.4903640000000 1.0
C      1  0.5270810000000  0.4488560000000  0.4072020000000 1.0
C      1  0.4780880000000  0.4464440000000  0.5935590000000 1.0
C      1  0.5359980000000  0.4519550000000  0.5931510000000 1.0
C      1  0.4688550000000  0.4507600000000  0.4053960000000 1.0
C      1  0.4370160000000  0.4949630000000  0.4699180000000 1.0
C      1  0.5606550000000  0.4930240000000  0.5293700000000 1.0
C      1  0.4328580000000  0.4939050000000  0.5324290000000 1.0
C      1  0.5653220000000  0.4913790000000  0.4694110000000 1.0
C      1  0.5099350000000  0.5396650000000  0.5595450000000 1.0
C      1  0.4888490000000  0.5404150000000  0.4363690000000 1.0
C      1  0.5160450000000  0.5398380000000  0.4440360000000 1.0
C      1  0.4825250000000  0.5400370000000  0.5665050000000 1.0
C      1  0.5337190000000  0.5016770000000  0.4723120000000 1.0
C      1  0.4654680000000  0.5017190000000  0.5305360000000 1.0
C      1  0.5278170000000  0.5001050000000  0.5251830000000 1.0
C      1  0.4696380000000  0.4989290000000  0.4744580000000 1.0
C      1  0.5205040000000  0.4451960000000  0.5185290000000 1.0
C      1  0.4803320000000  0.4442560000000  0.4811190000000 1.0
C      1  0.5136650000000  0.4468120000000  0.4852010000000 1.0
C      1  0.4867690000000  0.4468720000000  0.5144940000000 1.0
END
