TITL C-2782232-2968-141 0.000263737678952164 125000 -573.476807068755 0 0 103 (C1) n - 1
REM
REM in /home/nfs/bkarasulu/CARBON/AIRSS/Generating-Clusters/REBO/Higher-Symm/SD-CG/HFTN-CG
REM
REM
REM
REM
REM
REM ./C.cell (12c818d87b63d06a65506943cc24bca4)
REM
REM compiler GCC version 9.2.1 20190827 (Red Hat 9.2.1-1)
REM options -cpp -mtune=generic -march=x86-64 -g -O0 -fpre-include=/usr/include/finclude/math-vector-fortran.h
REM seed 2115904465 792250823 -1185765757 -152473866 -321046163 -614521696 -1217621107 621220966 1230994721 -1686922793 -1018695066 1654974780 496965941 1467982584 -64803477 -631382651 1204264763 -584352229 1392612437 1401853889 1959935773 532949331 -1072899571 1034399391 1194878149 -1828507681 -1166953844 -292075992 -719333084 265180656 844293404 1208389954 -1740504623
REM
CELL 1.54180   50.00000   50.00000   50.00000   90.00000   90.00000   90.00000
LATT -1
SFAC C  
C      1  0.4499140000000  0.4394580000000  0.5320560000000 1.0
C      1  0.4409980000000  0.4657330000000  0.4349210000000 1.0
C      1  0.4551760000000  0.5589700000000  0.4637960000000 1.0
C      1  0.4480580000000  0.5304560000000  0.5560610000000 1.0
C      1  0.5514260000000  0.4423990000000  0.5300620000000 1.0
C      1  0.5485300000000  0.4734850000000  0.4427130000000 1.0
C      1  0.5509580000000  0.5574010000000  0.4697970000000 1.0
C      1  0.5492130000000  0.5341420000000  0.5575140000000 1.0
C      1  0.5521470000000  0.5551090000000  0.5236040000000 1.0
C      1  0.5506550000000  0.4792900000000  0.5612010000000 1.0
C      1  0.5542060000000  0.4491000000000  0.4739010000000 1.0
C      1  0.5488380000000  0.5230320000000  0.4497520000000 1.0
C      1  0.4407960000000  0.5539150000000  0.5245350000000 1.0
C      1  0.4475230000000  0.4780270000000  0.5603560000000 1.0
C      1  0.4480860000000  0.4457990000000  0.4777460000000 1.0
C      1  0.4444030000000  0.5094930000000  0.4438220000000 1.0
C      1  0.4699660000000  0.5575100000000  0.4362150000000 1.0
C      1  0.4581520000000  0.5596960000000  0.5469640000000 1.0
C      1  0.4604680000000  0.4538930000000  0.5582730000000 1.0
C      1  0.4563050000000  0.4474230000000  0.4509920000000 1.0
C      1  0.5453780000000  0.5503790000000  0.4383110000000 1.0
C      1  0.5371500000000  0.5621910000000  0.5471780000000 1.0
C      1  0.5389820000000  0.4551920000000  0.5559930000000 1.0
C      1  0.5350240000000  0.4456550000000  0.4528770000000 1.0
C      1  0.5541360000000  0.5324400000000  0.5030120000000 1.0
C      1  0.5574490000000  0.4995060000000  0.5396400000000 1.0
C      1  0.5584270000000  0.4691270000000  0.4959140000000 1.0
C      1  0.5565830000000  0.5022430000000  0.4736250000000 1.0
C      1  0.4421530000000  0.5311720000000  0.5045200000000 1.0
C      1  0.4417670000000  0.4962480000000  0.5364410000000 1.0
C      1  0.4465800000000  0.4652190000000  0.5007180000000 1.0
C      1  0.4400670000000  0.4916790000000  0.4716090000000 1.0
C      1  0.5138430000000  0.4458930000000  0.5646080000000 1.0
C      1  0.5094810000000  0.4382930000000  0.4455290000000 1.0
C      1  0.5217790000000  0.5584490000000  0.4255440000000 1.0
C      1  0.5124200000000  0.5717420000000  0.5558060000000 1.0
C      1  0.4867360000000  0.4472380000000  0.5660540000000 1.0
C      1  0.4825770000000  0.4394880000000  0.4445030000000 1.0
C      1  0.4947470000000  0.5599470000000  0.4259580000000 1.0
C      1  0.4841530000000  0.5679500000000  0.5468330000000 1.0
C      1  0.5788340000000  0.4778100000000  0.4512850000000 1.0
C      1  0.5808140000000  0.5470750000000  0.4774870000000 1.0
C      1  0.5803380000000  0.5304130000000  0.5492650000000 1.0
C      1  0.5813170000000  0.4533280000000  0.5244380000000 1.0
C      1  0.4154650000000  0.4733840000000  0.4462510000000 1.0
C      1  0.4274800000000  0.5397400000000  0.4686830000000 1.0
C      1  0.4176430000000  0.5262790000000  0.5459950000000 1.0
C      1  0.4197560000000  0.4496300000000  0.5254800000000 1.0
C      1  0.5118790000000  0.5218450000000  0.5944470000000 1.0
C      1  0.5143860000000  0.4037420000000  0.5226200000000 1.0
C      1  0.5089820000000  0.4847130000000  0.4075400000000 1.0
C      1  0.5150740000000  0.5977590000000  0.4731240000000 1.0
C      1  0.4849300000000  0.5206710000000  0.5940430000000 1.0
C      1  0.4874750000000  0.4023090000000  0.5238500000000 1.0
C      1  0.4819990000000  0.4835870000000  0.4069700000000 1.0
C      1  0.4881460000000  0.5982010000000  0.4752340000000 1.0
C      1  0.5194410000000  0.4777760000000  0.5880960000000 1.0
C      1  0.5163290000000  0.4056640000000  0.4827170000000 1.0
C      1  0.4955450000000  0.5239830000000  0.3938350000000 1.0
C      1  0.5144150000000  0.5885220000000  0.5120130000000 1.0
C      1  0.4896260000000  0.4810530000000  0.5911570000000 1.0
C      1  0.4891970000000  0.4092260000000  0.4698070000000 1.0
C      1  0.4958650000000  0.5204500000000  0.4198020000000 1.0
C      1  0.5279150000000  0.6099860000000  0.5089700000000 1.0
C      1  0.5200110000000  0.5124560000000  0.4622580000000 1.0
C      1  0.5153230000000  0.5358520000000  0.5115820000000 1.0
C      1  0.5197360000000  0.4890330000000  0.5332190000000 1.0
C      1  0.5191010000000  0.4643400000000  0.4901970000000 1.0
C      1  0.4720620000000  0.5133510000000  0.4625470000000 1.0
C      1  0.4813220000000  0.5357380000000  0.5108530000000 1.0
C      1  0.4803300000000  0.4869000000000  0.5365610000000 1.0
C      1  0.4857220000000  0.4635340000000  0.4927960000000 1.0
C      1  0.4565440000000  0.4783430000000  0.4148200000000 1.0
C      1  0.4636740000000  0.5866450000000  0.4750610000000 1.0
C      1  0.4602890000000  0.5226360000000  0.5833500000000 1.0
C      1  0.4624210000000  0.4117840000000  0.5268970000000 1.0
C      1  0.5341930000000  0.4829200000000  0.4169290000000 1.0
C      1  0.5392020000000  0.5858080000000  0.4746100000000 1.0
C      1  0.5365850000000  0.5258770000000  0.5845260000000 1.0
C      1  0.5386880000000  0.4152290000000  0.5235980000000 1.0
C      1  0.5879170000000  0.4801200000000  0.5097370000000 1.0
C      1  0.5869900000000  0.4913030000000  0.4776390000000 1.0
C      1  0.5850970000000  0.5208690000000  0.4944540000000 1.0
C      1  0.5870890000000  0.5097660000000  0.5265590000000 1.0
C      1  0.4152830000000  0.4760130000000  0.5086210000000 1.0
C      1  0.4085300000000  0.4863100000000  0.4768370000000 1.0
C      1  0.4150750000000  0.5175310000000  0.4890010000000 1.0
C      1  0.4132290000000  0.5074480000000  0.5215940000000 1.0
C      1  0.4721110000000  0.4833020000000  0.4758920000000 1.0
C      1  0.4656650000000  0.5356700000000  0.4826210000000 1.0
C      1  0.4679110000000  0.5178560000000  0.5319130000000 1.0
C      1  0.4716220000000  0.4625490000000  0.5209640000000 1.0
C      1  0.5299650000000  0.4818210000000  0.4691950000000 1.0
C      1  0.5294470000000  0.5351760000000  0.4824950000000 1.0
C      1  0.5306120000000  0.5201960000000  0.5329060000000 1.0
C      1  0.5334190000000  0.4673610000000  0.5182990000000 1.0
C      1  0.5025180000000  0.4367060000000  0.4848580000000 1.0
C      1  0.4991820000000  0.5635500000000  0.5190040000000 1.0
C      1  0.5018940000000  0.4836510000000  0.5594530000000 1.0
C      1  0.4961890000000  0.5168660000000  0.4461490000000 1.0
C      1  0.5535330000000  0.5001040000000  0.5073300000000 1.0
C      1  0.4475130000000  0.4990010000000  0.5031430000000 1.0
C      1  0.4978210000000  0.5000750000000  0.5122960000000 1.0
END
