TITL C-2782233-7966-1305 0.00148157138946215 125000 -498.507704287137 0 0 88 (C1) n - 1
REM
REM in /home/nfs/bkarasulu/CARBON/AIRSS/Generating-Clusters/REBO/Higher-Symm/SD-CG/HFTN-CG
REM
REM
REM
REM
REM
REM ./C.cell (12c818d87b63d06a65506943cc24bca4)
REM
REM compiler GCC version 9.2.1 20190827 (Red Hat 9.2.1-1)
REM options -cpp -mtune=generic -march=x86-64 -g -O0 -fpre-include=/usr/include/finclude/math-vector-fortran.h
REM seed 903734205 -865265486 -1444668548 -1091786819 -1555366800 1363466756 -1646707596 53240740 -431605758 549754345 -1582613092 -405004945 -108929949 -1430600 406305903 1623474716 268923783 -2049691620 1084408126 1210392284 -136474400 2091753831 -1614348974 551077755 2117265761 1876446551 1881469340 1522058846 -1845904548 -1793866123 1074291551 1932964089 1655090314
REM
CELL 1.54180   50.00000   50.00000   50.00000   90.00000   90.00000   90.00000
LATT -1
SFAC C  
C      1  0.5209500000000  0.4985100000000  0.5837670000000 1.0
C      1  0.4841810000000  0.5032770000000  0.4179160000000 1.0
C      1  0.5009090000000  0.4805310000000  0.5925950000000 1.0
C      1  0.5058740000000  0.5194240000000  0.4087760000000 1.0
C      1  0.4961750000000  0.4719120000000  0.5307280000000 1.0
C      1  0.5032030000000  0.5304010000000  0.4708270000000 1.0
C      1  0.4229680000000  0.4627520000000  0.4623240000000 1.0
C      1  0.5776480000000  0.5343090000000  0.5263960000000 1.0
C      1  0.5409190000000  0.4372800000000  0.5043310000000 1.0
C      1  0.4552750000000  0.5546860000000  0.4974460000000 1.0
C      1  0.5293700000000  0.4949000000000  0.4686310000000 1.0
C      1  0.4704110000000  0.5059780000000  0.5397810000000 1.0
C      1  0.4200390000000  0.4592830000000  0.4918070000000 1.0
C      1  0.5828680000000  0.5291960000000  0.4998570000000 1.0
C      1  0.5481890000000  0.5328810000000  0.5400340000000 1.0
C      1  0.4486790000000  0.4756450000000  0.4532840000000 1.0
C      1  0.5662500000000  0.5454830000000  0.4804900000000 1.0
C      1  0.4365080000000  0.4541390000000  0.5212690000000 1.0
C      1  0.4928850000000  0.5604830000000  0.4741950000000 1.0
C      1  0.4961640000000  0.4397720000000  0.5230110000000 1.0
C      1  0.4704620000000  0.4570690000000  0.4357640000000 1.0
C      1  0.5354540000000  0.5427150000000  0.5701290000000 1.0
C      1  0.4804130000000  0.5320710000000  0.5033180000000 1.0
C      1  0.5173520000000  0.4720260000000  0.4985470000000 1.0
C      1  0.4901500000000  0.4740510000000  0.4175370000000 1.0
C      1  0.5165990000000  0.5284140000000  0.5882550000000 1.0
C      1  0.4774500000000  0.5725570000000  0.5134120000000 1.0
C      1  0.5208510000000  0.4269530000000  0.4872440000000 1.0
C      1  0.5821920000000  0.4595010000000  0.5317150000000 1.0
C      1  0.4114620000000  0.5374900000000  0.4731230000000 1.0
C      1  0.4977000000000  0.4909560000000  0.4702900000000 1.0
C      1  0.5011260000000  0.5114300000000  0.5323710000000 1.0
C      1  0.4177600000000  0.5026240000000  0.5344940000000 1.0
C      1  0.5847940000000  0.4867500000000  0.4674840000000 1.0
C      1  0.5607380000000  0.4797640000000  0.4460390000000 1.0
C      1  0.4371900000000  0.5204700000000  0.5563360000000 1.0
C      1  0.4772090000000  0.4813330000000  0.5770090000000 1.0
C      1  0.5283720000000  0.5178200000000  0.4267170000000 1.0
C      1  0.5628090000000  0.4860950000000  0.5091290000000 1.0
C      1  0.4375960000000  0.5114150000000  0.4884390000000 1.0
C      1  0.5291720000000  0.4620790000000  0.4703360000000 1.0
C      1  0.4722140000000  0.5389880000000  0.5342420000000 1.0
C      1  0.5418040000000  0.5573740000000  0.4607020000000 1.0
C      1  0.4580630000000  0.4449750000000  0.5446890000000 1.0
C      1  0.5832290000000  0.5023720000000  0.4917780000000 1.0
C      1  0.4224790000000  0.4878930000000  0.5052330000000 1.0
C      1  0.4852740000000  0.4834590000000  0.5005770000000 1.0
C      1  0.5116020000000  0.5184450000000  0.5016110000000 1.0
C      1  0.5386200000000  0.4902450000000  0.4300060000000 1.0
C      1  0.4654580000000  0.5110440000000  0.5728050000000 1.0
C      1  0.4205360000000  0.5348820000000  0.5290660000000 1.0
C      1  0.5780480000000  0.4571210000000  0.4740190000000 1.0
C      1  0.5264900000000  0.4464320000000  0.5274680000000 1.0
C      1  0.4614330000000  0.5610730000000  0.4655400000000 1.0
C      1  0.5559390000000  0.4491990000000  0.4553900000000 1.0
C      1  0.4445680000000  0.5510550000000  0.5435750000000 1.0
C      1  0.5181930000000  0.4483440000000  0.4443150000000 1.0
C      1  0.4913190000000  0.5496070000000  0.5550010000000 1.0
C      1  0.4693510000000  0.5283130000000  0.4709890000000 1.0
C      1  0.5294280000000  0.4789370000000  0.5297040000000 1.0
C      1  0.4674470000000  0.4516010000000  0.4692590000000 1.0
C      1  0.5301800000000  0.5556150000000  0.5217010000000 1.0
C      1  0.5414150000000  0.5068240000000  0.4961700000000 1.0
C      1  0.4569360000000  0.4902450000000  0.5049270000000 1.0
C      1  0.5182940000000  0.4692740000000  0.4242760000000 1.0
C      1  0.4882400000000  0.5337690000000  0.5791120000000 1.0
C      1  0.4398130000000  0.4722850000000  0.5674120000000 1.0
C      1  0.5669560000000  0.5183760000000  0.4383410000000 1.0
C      1  0.5671840000000  0.4537440000000  0.5029710000000 1.0
C      1  0.4289000000000  0.5397280000000  0.5001350000000 1.0
C      1  0.5249220000000  0.5349380000000  0.4492800000000 1.0
C      1  0.4766900000000  0.4645350000000  0.5540440000000 1.0
C      1  0.4453390000000  0.4829170000000  0.5374660000000 1.0
C      1  0.5555330000000  0.5167460000000  0.4667710000000 1.0
C      1  0.4845940000000  0.4991820000000  0.4480590000000 1.0
C      1  0.5170150000000  0.5075930000000  0.5543070000000 1.0
C      1  0.5768810000000  0.4798370000000  0.5459820000000 1.0
C      1  0.4193980000000  0.5222240000000  0.4545120000000 1.0
C      1  0.4471320000000  0.5059590000000  0.4583620000000 1.0
C      1  0.5521940000000  0.5000320000000  0.5375990000000 1.0
C      1  0.5439020000000  0.5645490000000  0.4947700000000 1.0
C      1  0.4485500000000  0.4413830000000  0.4922730000000 1.0
C      1  0.5056670000000  0.5703250000000  0.5041800000000 1.0
C      1  0.4878380000000  0.4346820000000  0.4902750000000 1.0
C      1  0.4937920000000  0.4354560000000  0.4442660000000 1.0
C      1  0.5179180000000  0.5566120000000  0.5503280000000 1.0
C      1  0.4662910000000  0.4280850000000  0.5165220000000 1.0
C      1  0.5206150000000  0.5793010000000  0.4748450000000 1.0
END
