TITL C-2782235-7892-1144 -0.0054354132140846 125000 -351.627567679716 0 0 63 (C1) n - 1
REM
REM in /home/nfs/bkarasulu/CARBON/AIRSS/Generating-Clusters/REBO/Higher-Symm/SD-CG/HFTN-CG
REM
REM
REM
REM
REM
REM ./C.cell (12c818d87b63d06a65506943cc24bca4)
REM
REM compiler GCC version 9.2.1 20190827 (Red Hat 9.2.1-1)
REM options -cpp -mtune=generic -march=x86-64 -g -O0 -fpre-include=/usr/include/finclude/math-vector-fortran.h
REM seed -1818030761 -1533920150 -1356060969 -767718370 1199307268 1276121703 -690770042 252608527 1680371600 -1177598573 1309758369 523461254 1362846302 2087927511 -555546294 -2111416210 1015868443 -713077266 764813678 -306512743 -1882221820 -2063302160 -326186673 390717128 -650002499 86855471 -24685055 1570468234 -1853747106 -8949915 1233469387 1736098790 -1850837274
REM
CELL 1.54180   50.00000   50.00000   50.00000   90.00000   90.00000   90.00000
LATT -1
SFAC C  
C      1  0.4781160000000  0.5077550000000  0.5058710000000 1.0
C      1  0.5512050000000  0.4784500000000  0.4720200000000 1.0
C      1  0.4479340000000  0.4804130000000  0.4809640000000 1.0
C      1  0.4759790000000  0.4367100000000  0.5299630000000 1.0
C      1  0.4595340000000  0.5352170000000  0.5568260000000 1.0
C      1  0.4136770000000  0.5122250000000  0.4714190000000 1.0
C      1  0.4861630000000  0.5234210000000  0.5728900000000 1.0
C      1  0.4828780000000  0.4761210000000  0.4998440000000 1.0
C      1  0.4917520000000  0.5428700000000  0.4729970000000 1.0
C      1  0.4731910000000  0.5751960000000  0.4868520000000 1.0
C      1  0.5255310000000  0.4555060000000  0.4519110000000 1.0
C      1  0.4845680000000  0.4728760000000  0.4669330000000 1.0
C      1  0.5517820000000  0.4564110000000  0.5489410000000 1.0
C      1  0.4653980000000  0.4931280000000  0.5497240000000 1.0
C      1  0.5088980000000  0.5236050000000  0.5386900000000 1.0
C      1  0.4726430000000  0.5361080000000  0.4953180000000 1.0
C      1  0.4943690000000  0.5713240000000  0.5059940000000 1.0
C      1  0.5357730000000  0.4294290000000  0.4851000000000 1.0
C      1  0.4829000000000  0.5112450000000  0.5349810000000 1.0
C      1  0.5086190000000  0.5192100000000  0.4616980000000 1.0
C      1  0.4811080000000  0.5045680000000  0.4723250000000 1.0
C      1  0.5525680000000  0.4538260000000  0.4877340000000 1.0
C      1  0.5307940000000  0.5002920000000  0.5053560000000 1.0
C      1  0.4817600000000  0.4668940000000  0.4366460000000 1.0
C      1  0.5334180000000  0.5081010000000  0.4737520000000 1.0
C      1  0.5328570000000  0.5058660000000  0.5552900000000 1.0
C      1  0.5502250000000  0.4809370000000  0.5600560000000 1.0
C      1  0.5594390000000  0.4921020000000  0.5208720000000 1.0
C      1  0.5084100000000  0.4845760000000  0.5196460000000 1.0
C      1  0.4604260000000  0.5249050000000  0.4558010000000 1.0
C      1  0.5478310000000  0.5233450000000  0.5304650000000 1.0
C      1  0.4829400000000  0.4310490000000  0.4967130000000 1.0
C      1  0.4919380000000  0.5671580000000  0.5336640000000 1.0
C      1  0.4350040000000  0.5675030000000  0.4958080000000 1.0
C      1  0.5589220000000  0.5115140000000  0.4509980000000 1.0
C      1  0.5129290000000  0.4609630000000  0.4764840000000 1.0
C      1  0.5081970000000  0.4232160000000  0.4885220000000 1.0
C      1  0.5238870000000  0.5671520000000  0.4949480000000 1.0
C      1  0.5075740000000  0.4325400000000  0.5274040000000 1.0
C      1  0.5662450000000  0.4629770000000  0.5122400000000 1.0
C      1  0.4647070000000  0.5575150000000  0.4626810000000 1.0
C      1  0.5234110000000  0.5451760000000  0.5210030000000 1.0
C      1  0.5371310000000  0.4424300000000  0.5301010000000 1.0
C      1  0.5107170000000  0.4662050000000  0.4291900000000 1.0
C      1  0.4402990000000  0.5042490000000  0.4702850000000 1.0
C      1  0.5339570000000  0.5881180000000  0.4802130000000 1.0
C      1  0.4781730000000  0.4620860000000  0.5512400000000 1.0
C      1  0.5029440000000  0.4799460000000  0.5496070000000 1.0
C      1  0.5727450000000  0.5020010000000  0.4766210000000 1.0
C      1  0.5179790000000  0.4927080000000  0.4197210000000 1.0
C      1  0.4867460000000  0.5518720000000  0.5562900000000 1.0
C      1  0.4743590000000  0.5133680000000  0.4293420000000 1.0
C      1  0.4586720000000  0.4548190000000  0.4990540000000 1.0
C      1  0.5033440000000  0.5145560000000  0.4315350000000 1.0
C      1  0.4661020000000  0.4866010000000  0.4229260000000 1.0
C      1  0.5660240000000  0.5186100000000  0.5013510000000 1.0
C      1  0.4414860000000  0.4756030000000  0.5431590000000 1.0
C      1  0.4499650000000  0.5479760000000  0.5074210000000 1.0
C      1  0.5175490000000  0.4575780000000  0.5066370000000 1.0
C      1  0.5424950000000  0.5388720000000  0.4943070000000 1.0
C      1  0.5038700000000  0.5015420000000  0.5712930000000 1.0
C      1  0.4438040000000  0.5385110000000  0.5337710000000 1.0
C      1  0.4461370000000  0.4529520000000  0.5285910000000 1.0
END
