TITL C-2782231-7322-81 0.000964522483214548 125000 -291.109934603732 0 0 55 (C1) n - 1
REM
REM in /home/nfs/bkarasulu/CARBON/AIRSS/Generating-Clusters/REBO/Higher-Symm/SD-CG/HFTN-CG
REM
REM
REM
REM
REM
REM ./C.cell (12c818d87b63d06a65506943cc24bca4)
REM
REM compiler GCC version 9.2.1 20190827 (Red Hat 9.2.1-1)
REM options -cpp -mtune=generic -march=x86-64 -g -O0 -fpre-include=/usr/include/finclude/math-vector-fortran.h
REM seed 213735403 -677569842 -1477373990 -1445167824 -1522855840 -1002289337 -2018985818 97869242 -194364889 482390463 -1617241402 -179730763 1596233836 62673584 1559009967 -1087213989 805695783 1395343300 -1201067721 -366866457 -1170613006 -1870522732 1598129745 1523659997 -354978908 -1139296668 -1761069970 -116747463 618936236 485072670 -1455271531 -1942147574 -244590936
REM
CELL 1.54180   50.00000   50.00000   50.00000   90.00000   90.00000   90.00000
LATT -1
SFAC C  
C      1  0.5107240000000  0.4900530000000  0.5932330000000 1.0
C      1  0.5106380000000  0.5672950000000  0.5649510000000 1.0
C      1  0.5104200000000  0.5927620000000  0.4862260000000 1.0
C      1  0.5068330000000  0.5464650000000  0.4190800000000 1.0
C      1  0.5041070000000  0.4674510000000  0.4126730000000 1.0
C      1  0.5053120000000  0.4113870000000  0.4701560000000 1.0
C      1  0.5085630000000  0.4208390000000  0.5502470000000 1.0
C      1  0.4845820000000  0.5235640000000  0.5585170000000 1.0
C      1  0.4844520000000  0.5612510000000  0.5165540000000 1.0
C      1  0.4828070000000  0.5507640000000  0.4638740000000 1.0
C      1  0.4809190000000  0.5041780000000  0.4398590000000 1.0
C      1  0.4812450000000  0.4553120000000  0.4592340000000 1.0
C      1  0.4841940000000  0.4381020000000  0.5085410000000 1.0
C      1  0.4856300000000  0.4675740000000  0.5545740000000 1.0
C      1  0.5391120000000  0.5431850000000  0.4573240000000 1.0
C      1  0.5377490000000  0.4943370000000  0.4386070000000 1.0
C      1  0.5382020000000  0.4490600000000  0.4651060000000 1.0
C      1  0.5401420000000  0.4415010000000  0.5170170000000 1.0
C      1  0.5414200000000  0.4774470000000  0.5553390000000 1.0
C      1  0.5413720000000  0.5299530000000  0.5510110000000 1.0
C      1  0.5409660000000  0.5592140000000  0.5072470000000 1.0
C      1  0.5095400000000  0.5440130000000  0.4464220000000 1.0
C      1  0.5076870000000  0.4865710000000  0.4322330000000 1.0
C      1  0.5083990000000  0.4386800000000  0.4676460000000 1.0
C      1  0.5109480000000  0.4358640000000  0.5272860000000 1.0
C      1  0.5124400000000  0.4814570000000  0.5671250000000 1.0
C      1  0.5121350000000  0.5414210000000  0.5555160000000 1.0
C      1  0.5119010000000  0.5695740000000  0.5011300000000 1.0
C      1  0.4711090000000  0.5306770000000  0.4810020000000 1.0
C      1  0.4705690000000  0.5034930000000  0.4669510000000 1.0
C      1  0.4705360000000  0.4748710000000  0.4778000000000 1.0
C      1  0.4714870000000  0.4640050000000  0.5063550000000 1.0
C      1  0.4730140000000  0.4782470000000  0.5326160000000 1.0
C      1  0.4715770000000  0.5123830000000  0.5325920000000 1.0
C      1  0.4714600000000  0.5379770000000  0.5099820000000 1.0
C      1  0.5101960000000  0.4675970000000  0.5153100000000 1.0
C      1  0.5104900000000  0.4918000000000  0.5349420000000 1.0
C      1  0.5100200000000  0.5223030000000  0.5279350000000 1.0
C      1  0.5099210000000  0.5356220000000  0.4996550000000 1.0
C      1  0.5090480000000  0.5218980000000  0.4721910000000 1.0
C      1  0.5087790000000  0.4919700000000  0.4656060000000 1.0
C      1  0.5092710000000  0.4679780000000  0.4845870000000 1.0
C      1  0.5539330000000  0.4703330000000  0.5254550000000 1.0
C      1  0.5542730000000  0.5023450000000  0.5377740000000 1.0
C      1  0.5541190000000  0.5319080000000  0.5204280000000 1.0
C      1  0.5535540000000  0.5367750000000  0.4864670000000 1.0
C      1  0.5526340000000  0.5132800000000  0.4614860000000 1.0
C      1  0.5522330000000  0.4791070000000  0.4642760000000 1.0
C      1  0.5529520000000  0.4599900000000  0.4927430000000 1.0
C      1  0.5529290000000  0.4990770000000  0.4983420000000 1.0
C      1  0.4345480000000  0.4964530000000  0.4920800000000 1.0
C      1  0.5264700000000  0.4999790000000  0.4999680000000 1.0
C      1  0.4580430000000  0.5014380000000  0.5046640000000 1.0
C      1  0.4921280000000  0.4999750000000  0.5007360000000 1.0
C      1  0.4118400000000  0.4916360000000  0.4799190000000 1.0
END
