TITL C-2782233-7966-927 1.26061982949068e-07 125000 -106.249002712454 0 0 18 (D3h) n - 1
REM
REM in /home/nfs/bkarasulu/CARBON/AIRSS/Generating-Clusters/REBO/Higher-Symm/SD-CG/HFTN-CG
REM
REM
REM
REM
REM
REM ./C.cell (12c818d87b63d06a65506943cc24bca4)
REM
REM compiler GCC version 9.2.1 20190827 (Red Hat 9.2.1-1)
REM options -cpp -mtune=generic -march=x86-64 -g -O0 -fpre-include=/usr/include/finclude/math-vector-fortran.h
REM seed -559758878 -123860861 1589189279 66464900 879361168 1229610061 -553019939 -1176170615 1094160833 1744900760 196354814 1785868899 -571219684 -179214321 -1953486540 709199637 -1438418237 1852351751 -2025884956 -1950293435 -343401191 -1721719757 -142529699 -1707008698 526277088 -1952441674 -1105297949 -1399473547 743458695 763100972 -114683391 694022438 -1848134423
REM
CELL 1.54180   50.00000   50.00000   50.00000   90.00000   90.00000   90.00000
LATT -1
SFAC C  
C      1  0.4938520000000  0.4620080000000  0.5270120000000 1.0
C      1  0.4701400000000  0.5243950000000  0.5269100000000 1.0
C      1  0.5360250000000  0.5137360000000  0.5269150000000 1.0
C      1  0.4938420000000  0.5379920000000  0.4729900000000 1.0
C      1  0.4701280000000  0.4756060000000  0.4731020000000 1.0
C      1  0.5360130000000  0.4862630000000  0.4730700000000 1.0
C      1  0.4938530000000  0.5380850000000  0.5268820000000 1.0
C      1  0.5360240000000  0.4863550000000  0.5269620000000 1.0
C      1  0.4701400000000  0.4756990000000  0.5269940000000 1.0
C      1  0.4938410000000  0.4619150000000  0.4731210000000 1.0
C      1  0.5360130000000  0.5136440000000  0.4730230000000 1.0
C      1  0.4701290000000  0.5243020000000  0.4730190000000 1.0
C      1  0.5188320000000  0.4674120000000  0.5144880000000 1.0
C      1  0.4623450000000  0.5000250000000  0.5144440000000 1.0
C      1  0.5188330000000  0.5326370000000  0.5143760000000 1.0
C      1  0.5188260000000  0.5325880000000  0.4855040000000 1.0
C      1  0.4623390000000  0.4999760000000  0.4855720000000 1.0
C      1  0.5188260000000  0.4673620000000  0.4856160000000 1.0
END
