TITL C-2782233-7966-1211 0.00425724413131647 125000 -711.79954730754 0 0 115 (C1) n - 1
REM
REM in /home/nfs/bkarasulu/CARBON/AIRSS/Generating-Clusters/REBO/Higher-Symm/SD-CG/HFTN-CG
REM
REM
REM
REM
REM
REM ./C.cell (12c818d87b63d06a65506943cc24bca4)
REM
REM compiler GCC version 9.2.1 20190827 (Red Hat 9.2.1-1)
REM options -cpp -mtune=generic -march=x86-64 -g -O0 -fpre-include=/usr/include/finclude/math-vector-fortran.h
REM seed 744371736 -914418221 -1833776790 -2093444746 1923532763 -1031222165 -393072858 -2024261320 281573516 -91721255 1394026379 -155730884 1143663223 875334097 -159733641 -1101640726 2009095890 -731207297 769897830 1333175418 -1475366986 -1251038718 1411166271 -860019889 99184049 1305234613 1389707926 -1702368759 -1319806624 1420846652 -1878431167 -2011246523 -2004558685
REM
CELL 1.54180   50.00000   50.00000   50.00000   90.00000   90.00000   90.00000
LATT -1
SFAC C  
C      1  0.4775400000000  0.6061240000000  0.5076480000000 1.0
C      1  0.5064810000000  0.6024470000000  0.5208220000000 1.0
C      1  0.5243760000000  0.6061450000000  0.4952350000000 1.0
C      1  0.4959540000000  0.6068160000000  0.4826900000000 1.0
C      1  0.4754440000000  0.3931320000000  0.4950350000000 1.0
C      1  0.5037340000000  0.3931510000000  0.4826480000000 1.0
C      1  0.5221830000000  0.3938210000000  0.5074780000000 1.0
C      1  0.4932310000000  0.3966810000000  0.5208510000000 1.0
C      1  0.4823380000000  0.4760240000000  0.4270300000000 1.0
C      1  0.4319640000000  0.4762680000000  0.5149500000000 1.0
C      1  0.5181770000000  0.4785300000000  0.5706900000000 1.0
C      1  0.5787640000000  0.4757050000000  0.4846080000000 1.0
C      1  0.4813110000000  0.5206210000000  0.5712030000000 1.0
C      1  0.4229560000000  0.5231540000000  0.4841010000000 1.0
C      1  0.5180940000000  0.5227280000000  0.4284120000000 1.0
C      1  0.5706640000000  0.5227450000000  0.5158750000000 1.0
C      1  0.4371890000000  0.4468710000000  0.5284100000000 1.0
C      1  0.5327570000000  0.4515600000000  0.5656390000000 1.0
C      1  0.5666590000000  0.4456760000000  0.4741490000000 1.0
C      1  0.4703840000000  0.4461150000000  0.4380710000000 1.0
C      1  0.4333660000000  0.5539620000000  0.4740310000000 1.0
C      1  0.5269090000000  0.5540980000000  0.4386390000000 1.0
C      1  0.5631340000000  0.5519500000000  0.5293800000000 1.0
C      1  0.4668130000000  0.5476430000000  0.5652410000000 1.0
C      1  0.5553090000000  0.4881200000000  0.4323380000000 1.0
C      1  0.4338410000000  0.4884350000000  0.4469540000000 1.0
C      1  0.4453020000000  0.4847660000000  0.5682840000000 1.0
C      1  0.5713200000000  0.4938120000000  0.5574700000000 1.0
C      1  0.5544060000000  0.5142040000000  0.5685550000000 1.0
C      1  0.4288800000000  0.5052290000000  0.5568000000000 1.0
C      1  0.4464450000000  0.5090230000000  0.4329340000000 1.0
C      1  0.5692140000000  0.5075450000000  0.4464750000000 1.0
C      1  0.4765990000000  0.5488150000000  0.4296330000000 1.0
C      1  0.4215130000000  0.5481130000000  0.5260460000000 1.0
C      1  0.5211880000000  0.5496920000000  0.5654510000000 1.0
C      1  0.5686000000000  0.5468450000000  0.4767940000000 1.0
C      1  0.4784240000000  0.4493110000000  0.5652280000000 1.0
C      1  0.4293080000000  0.4505990000000  0.4757050000000 1.0
C      1  0.5226960000000  0.4501720000000  0.4301930000000 1.0
C      1  0.5779100000000  0.4511820000000  0.5264880000000 1.0
C      1  0.4807790000000  0.4864350000000  0.5237980000000 1.0
C      1  0.5508240000000  0.4687630000000  0.5022520000000 1.0
C      1  0.4969770000000  0.4696960000000  0.4561940000000 1.0
C      1  0.4572870000000  0.4792730000000  0.4922440000000 1.0
C      1  0.5017070000000  0.5292460000000  0.4569980000000 1.0
C      1  0.5444010000000  0.5203630000000  0.4943820000000 1.0
C      1  0.5182210000000  0.5132130000000  0.5237080000000 1.0
C      1  0.4496540000000  0.5318170000000  0.5027590000000 1.0
C      1  0.5059330000000  0.4311580000000  0.5580960000000 1.0
C      1  0.5683190000000  0.4329920000000  0.5056640000000 1.0
C      1  0.5009090000000  0.4311800000000  0.4359540000000 1.0
C      1  0.4370350000000  0.4326560000000  0.4973400000000 1.0
C      1  0.4975200000000  0.5686940000000  0.4351500000000 1.0
C      1  0.5616520000000  0.5651500000000  0.4979530000000 1.0
C      1  0.4938490000000  0.5679680000000  0.5581280000000 1.0
C      1  0.4311330000000  0.5669290000000  0.5054280000000 1.0
C      1  0.5876810000000  0.4759960000000  0.5154050000000 1.0
C      1  0.5125030000000  0.4744150000000  0.4196500000000 1.0
C      1  0.4179550000000  0.4743200000000  0.4873670000000 1.0
C      1  0.4895730000000  0.4729660000000  0.5776190000000 1.0
C      1  0.5834540000000  0.5244410000000  0.4871220000000 1.0
C      1  0.5100120000000  0.5260670000000  0.5778630000000 1.0
C      1  0.4128350000000  0.5227510000000  0.5146360000000 1.0
C      1  0.4879210000000  0.5246380000000  0.4197460000000 1.0
C      1  0.5153790000000  0.5825350000000  0.5394770000000 1.0
C      1  0.5437560000000  0.5869690000000  0.4882710000000 1.0
C      1  0.4883600000000  0.5877390000000  0.4607460000000 1.0
C      1  0.4569210000000  0.5855530000000  0.5140800000000 1.0
C      1  0.5108370000000  0.4127840000000  0.4612700000000 1.0
C      1  0.5424510000000  0.4146560000000  0.5137860000000 1.0
C      1  0.4845780000000  0.4168020000000  0.5392690000000 1.0
C      1  0.4559380000000  0.4119330000000  0.4876310000000 1.0
C      1  0.5504400000000  0.4591440000000  0.4474570000000 1.0
C      1  0.4413780000000  0.4595900000000  0.4498340000000 1.0
C      1  0.4501200000000  0.4569990000000  0.5582730000000 1.0
C      1  0.5636580000000  0.4605570000000  0.5550770000000 1.0
C      1  0.5494890000000  0.5420130000000  0.5589110000000 1.0
C      1  0.4355610000000  0.5387550000000  0.5551590000000 1.0
C      1  0.4487780000000  0.5398700000000  0.4470480000000 1.0
C      1  0.5502100000000  0.5337640000000  0.4529220000000 1.0
C      1  0.5474110000000  0.4766130000000  0.5307730000000 1.0
C      1  0.5265900000000  0.4805380000000  0.4589220000000 1.0
C      1  0.4614860000000  0.5023720000000  0.4789930000000 1.0
C      1  0.4707880000000  0.5057120000000  0.5423970000000 1.0
C      1  0.5350070000000  0.5062440000000  0.4668430000000 1.0
C      1  0.5286210000000  0.4939420000000  0.5421060000000 1.0
C      1  0.4528170000000  0.5238310000000  0.5310650000000 1.0
C      1  0.4713060000000  0.5204310000000  0.4619650000000 1.0
C      1  0.5126950000000  0.4452070000000  0.4711450000000 1.0
C      1  0.4765600000000  0.4585520000000  0.4811160000000 1.0
C      1  0.4825650000000  0.4590650000000  0.5205820000000 1.0
C      1  0.5310190000000  0.4462940000000  0.5105980000000 1.0
C      1  0.5172160000000  0.5406000000000  0.5205070000000 1.0
C      1  0.4687010000000  0.5543540000000  0.5107060000000 1.0
C      1  0.4870870000000  0.5556970000000  0.4711320000000 1.0
C      1  0.5226990000000  0.5411200000000  0.4809860000000 1.0
C      1  0.4664180000000  0.5683770000000  0.5403110000000 1.0
C      1  0.5325600000000  0.5622320000000  0.5292120000000 1.0
C      1  0.5353720000000  0.5671960000000  0.4679390000000 1.0
C      1  0.4587860000000  0.5722580000000  0.4672460000000 1.0
C      1  0.4642240000000  0.4327110000000  0.4680380000000 1.0
C      1  0.5405830000000  0.4274570000000  0.4683770000000 1.0
C      1  0.5332260000000  0.4317400000000  0.5400250000000 1.0
C      1  0.4675960000000  0.4369690000000  0.5287720000000 1.0
C      1  0.5814880000000  0.4991120000000  0.5309280000000 1.0
C      1  0.5301570000000  0.4961790000000  0.4216700000000 1.0
C      1  0.4200900000000  0.4967510000000  0.4705990000000 1.0
C      1  0.4703640000000  0.4931650000000  0.5802110000000 1.0
C      1  0.5830600000000  0.5016490000000  0.4705400000000 1.0
C      1  0.5291830000000  0.5057510000000  0.5801650000000 1.0
C      1  0.4199360000000  0.4997410000000  0.5300230000000 1.0
C      1  0.4708790000000  0.5025850000000  0.4210430000000 1.0
C      1  0.4961050000000  0.5498820000000  0.5004310000000 1.0
C      1  0.5036930000000  0.4507610000000  0.5002880000000 1.0
C      1  0.4993610000000  0.4999930000000  0.5071750000000 1.0
END
