TITL C-2782225-7408-195 -0.00191398445806953 125000 -662.116942735228 0 0 104 (C1) n - 1
REM
REM in /home/nfs/bkarasulu/CARBON/AIRSS/Generating-Clusters/REBO/Higher-Symm/SD-CG/HFTN-CG
REM
REM
REM
REM
REM
REM ./C.cell (12c818d87b63d06a65506943cc24bca4)
REM
REM compiler GCC version 9.2.1 20190827 (Red Hat 9.2.1-1)
REM options -cpp -mtune=generic -march=x86-64 -g -O0 -fpre-include=/usr/include/finclude/math-vector-fortran.h
REM seed 1005517289 1046484471 -2105508866 -682299089 1519033953 -383280083 -89398247 -1442414613 -914553761 -1795084942 108428385 -243813844 -1732998026 2098965906 -1864702467 144245591 -179366051 1089599971 -1460010093 2089062984 -1216267610 -251691405 -843530367 -1340923790 820763629 1054668714 -955368125 1534533709 1851045692 -1244932156 -617737718 1158207841 513458492
REM
CELL 1.54180   50.00000   50.00000   50.00000   90.00000   90.00000   90.00000
LATT -1
SFAC C  
C      1  0.5144750000000  0.5757040000000  0.5444280000000 1.0
C      1  0.5431110000000  0.5139660000000  0.5754660000000 1.0
C      1  0.5745670000000  0.5424450000000  0.5142910000000 1.0
C      1  0.4854180000000  0.4270670000000  0.5430420000000 1.0
C      1  0.4865440000000  0.5729000000000  0.4569190000000 1.0
C      1  0.5132240000000  0.4260360000000  0.4572680000000 1.0
C      1  0.4563590000000  0.4859670000000  0.5749030000000 1.0
C      1  0.4577480000000  0.5120350000000  0.4263300000000 1.0
C      1  0.5420500000000  0.4869880000000  0.4249350000000 1.0
C      1  0.4258500000000  0.4571720000000  0.5133690000000 1.0
C      1  0.4283120000000  0.5379290000000  0.4844190000000 1.0
C      1  0.5711340000000  0.4585290000000  0.4864200000000 1.0
C      1  0.5141760000000  0.5751740000000  0.4564980000000 1.0
C      1  0.5418960000000  0.5147530000000  0.4250890000000 1.0
C      1  0.5742220000000  0.5427310000000  0.4865220000000 1.0
C      1  0.4854770000000  0.4242340000000  0.4560730000000 1.0
C      1  0.4866000000000  0.5752240000000  0.5440100000000 1.0
C      1  0.5129210000000  0.4262910000000  0.5436790000000 1.0
C      1  0.4572870000000  0.4845600000000  0.4254050000000 1.0
C      1  0.4576300000000  0.5134840000000  0.5732040000000 1.0
C      1  0.5416220000000  0.4864350000000  0.5732290000000 1.0
C      1  0.4264350000000  0.4584870000000  0.4857020000000 1.0
C      1  0.4288470000000  0.5391810000000  0.5122540000000 1.0
C      1  0.5725020000000  0.4574120000000  0.5138300000000 1.0
C      1  0.4916320000000  0.5421800000000  0.5222910000000 1.0
C      1  0.5172840000000  0.4802060000000  0.5418200000000 1.0
C      1  0.5398840000000  0.5226490000000  0.4847530000000 1.0
C      1  0.5121950000000  0.4594590000000  0.5215020000000 1.0
C      1  0.5149430000000  0.5415820000000  0.4779250000000 1.0
C      1  0.4879200000000  0.4576190000000  0.4776830000000 1.0
C      1  0.4776810000000  0.5205250000000  0.5393320000000 1.0
C      1  0.4867320000000  0.4775610000000  0.4557820000000 1.0
C      1  0.5143440000000  0.5210690000000  0.4542210000000 1.0
C      1  0.4515710000000  0.4903010000000  0.4843870000000 1.0
C      1  0.4581180000000  0.5106850000000  0.5175830000000 1.0
C      1  0.5517910000000  0.4907520000000  0.5064280000000 1.0
C      1  0.4871440000000  0.5423220000000  0.4910750000000 1.0
C      1  0.5177520000000  0.4898810000000  0.4564170000000 1.0
C      1  0.5415310000000  0.5200860000000  0.5152210000000 1.0
C      1  0.5172510000000  0.4565270000000  0.4895430000000 1.0
C      1  0.5222570000000  0.5407870000000  0.5269180000000 1.0
C      1  0.4815160000000  0.4572320000000  0.5099400000000 1.0
C      1  0.4828950000000  0.5093160000000  0.4572430000000 1.0
C      1  0.4906480000000  0.4944810000000  0.5563330000000 1.0
C      1  0.5165200000000  0.5140320000000  0.5457990000000 1.0
C      1  0.4599500000000  0.4777990000000  0.5127040000000 1.0
C      1  0.4691380000000  0.5176240000000  0.4857130000000 1.0
C      1  0.5362570000000  0.4790840000000  0.4798700000000 1.0
C      1  0.5287530000000  0.5607970000000  0.5647780000000 1.0
C      1  0.5633800000000  0.5276400000000  0.5605070000000 1.0
C      1  0.5604050000000  0.5629720000000  0.5286330000000 1.0
C      1  0.4712700000000  0.4406720000000  0.5637590000000 1.0
C      1  0.4727340000000  0.5582170000000  0.4364910000000 1.0
C      1  0.5270530000000  0.4410700000000  0.4371180000000 1.0
C      1  0.4366880000000  0.4722180000000  0.5595500000000 1.0
C      1  0.4363220000000  0.5269700000000  0.4390120000000 1.0
C      1  0.5623230000000  0.4728410000000  0.4399620000000 1.0
C      1  0.4393400000000  0.4360220000000  0.5281650000000 1.0
C      1  0.4417240000000  0.5606110000000  0.4717640000000 1.0
C      1  0.5589220000000  0.4371230000000  0.4719530000000 1.0
C      1  0.5287990000000  0.5621040000000  0.4354640000000 1.0
C      1  0.5620660000000  0.5281200000000  0.4404450000000 1.0
C      1  0.5597590000000  0.5635630000000  0.4723930000000 1.0
C      1  0.4706380000000  0.4374880000000  0.4350310000000 1.0
C      1  0.4717890000000  0.5599740000000  0.5635980000000 1.0
C      1  0.5274950000000  0.4396670000000  0.5644530000000 1.0
C      1  0.4361470000000  0.4710980000000  0.4390670000000 1.0
C      1  0.4366670000000  0.5274310000000  0.5595350000000 1.0
C      1  0.5621580000000  0.4722020000000  0.5592770000000 1.0
C      1  0.4403940000000  0.4375180000000  0.4721120000000 1.0
C      1  0.4422820000000  0.5605650000000  0.5261060000000 1.0
C      1  0.5584420000000  0.4370280000000  0.5280010000000 1.0
C      1  0.5675510000000  0.5156750000000  0.4687640000000 1.0
C      1  0.4708690000000  0.5688660000000  0.5158510000000 1.0
C      1  0.5149330000000  0.4677680000000  0.5734900000000 1.0
C      1  0.4263320000000  0.4848140000000  0.4658400000000 1.0
C      1  0.4278750000000  0.5145770000000  0.5319570000000 1.0
C      1  0.5729830000000  0.4836180000000  0.5321400000000 1.0
C      1  0.5301000000000  0.4304110000000  0.5166210000000 1.0
C      1  0.5310880000000  0.5705780000000  0.4850900000000 1.0
C      1  0.4685960000000  0.4300710000000  0.4837870000000 1.0
C      1  0.4849290000000  0.5312930000000  0.5711490000000 1.0
C      1  0.4829580000000  0.4652320000000  0.4252200000000 1.0
C      1  0.5162490000000  0.5345460000000  0.4241350000000 1.0
C      1  0.5703030000000  0.5151270000000  0.5321010000000 1.0
C      1  0.4697170000000  0.5695270000000  0.4837400000000 1.0
C      1  0.5149440000000  0.4690950000000  0.4290870000000 1.0
C      1  0.4319090000000  0.4837330000000  0.5312450000000 1.0
C      1  0.4250810000000  0.5166230000000  0.4641480000000 1.0
C      1  0.5681460000000  0.4853850000000  0.4688120000000 1.0
C      1  0.5312860000000  0.4270570000000  0.4843370000000 1.0
C      1  0.5319260000000  0.5714940000000  0.5158780000000 1.0
C      1  0.4676530000000  0.4277200000000  0.5161380000000 1.0
C      1  0.4844400000000  0.5299540000000  0.4296790000000 1.0
C      1  0.4829420000000  0.4677020000000  0.5758690000000 1.0
C      1  0.5162410000000  0.5329760000000  0.5741940000000 1.0
C      1  0.5547790000000  0.4449670000000  0.4442820000000 1.0
C      1  0.4449270000000  0.5547510000000  0.4434940000000 1.0
C      1  0.4436380000000  0.4443500000000  0.5559780000000 1.0
C      1  0.5562160000000  0.5555680000000  0.5563790000000 1.0
C      1  0.5549480000000  0.4444020000000  0.5558810000000 1.0
C      1  0.4433310000000  0.4433660000000  0.4439680000000 1.0
C      1  0.4445180000000  0.5549010000000  0.5545260000000 1.0
C      1  0.5559140000000  0.5563180000000  0.4443560000000 1.0
END
