TITL C-2782230-7391-942 0.00078469179190072 125000 -288.454502946708 0 0 51 (C1) n - 1
REM
REM in /home/nfs/bkarasulu/CARBON/AIRSS/Generating-Clusters/REBO/Higher-Symm/SD-CG/HFTN-CG
REM
REM
REM
REM
REM
REM ./C.cell (12c818d87b63d06a65506943cc24bca4)
REM
REM compiler GCC version 9.2.1 20190827 (Red Hat 9.2.1-1)
REM options -cpp -mtune=generic -march=x86-64 -g -O0 -fpre-include=/usr/include/finclude/math-vector-fortran.h
REM seed -767624398 -1210329171 1731295378 -38268780 1181251922 1564819168 495421879 1333293103 1368894090 -1023704028 1744110678 776958751 -1247768493 681578651 -254799179 -197761519 1457930757 872840090 -566300309 1964525910 1127737614 1011903331 -1000164165 401168368 -1797997038 -1777789502 -128738079 274338174 -1007025068 -1853056279 1769395289 -1765572832 -953361099
REM
CELL 1.54180   50.00000   50.00000   50.00000   90.00000   90.00000   90.00000
LATT -1
SFAC C  
C      1  0.5081330000000  0.5069080000000  0.5305900000000 1.0
C      1  0.4686260000000  0.4777850000000  0.5644550000000 1.0
C      1  0.4432720000000  0.5140720000000  0.5310710000000 1.0
C      1  0.4297150000000  0.4801170000000  0.4892930000000 1.0
C      1  0.4825290000000  0.5041750000000  0.4860340000000 1.0
C      1  0.4901310000000  0.4763390000000  0.4351240000000 1.0
C      1  0.5330290000000  0.5243460000000  0.4339600000000 1.0
C      1  0.5285120000000  0.4943330000000  0.4879520000000 1.0
C      1  0.5734760000000  0.5243940000000  0.5054790000000 1.0
C      1  0.5468930000000  0.4858200000000  0.5479160000000 1.0
C      1  0.5589380000000  0.4946110000000  0.4956600000000 1.0
C      1  0.5627190000000  0.5118730000000  0.5314290000000 1.0
C      1  0.5235590000000  0.4849130000000  0.5664970000000 1.0
C      1  0.4897730000000  0.5040600000000  0.5569420000000 1.0
C      1  0.4436200000000  0.4835860000000  0.5468520000000 1.0
C      1  0.4336670000000  0.5112240000000  0.5026760000000 1.0
C      1  0.4380780000000  0.4790320000000  0.4603790000000 1.0
C      1  0.4856280000000  0.5040240000000  0.4552030000000 1.0
C      1  0.5157860000000  0.4951270000000  0.4306430000000 1.0
C      1  0.5576100000000  0.5224580000000  0.4506600000000 1.0
C      1  0.4739000000000  0.4578020000000  0.5098470000000 1.0
C      1  0.4797070000000  0.5435490000000  0.4915530000000 1.0
C      1  0.4821130000000  0.4566120000000  0.4823670000000 1.0
C      1  0.5025540000000  0.5449590000000  0.4734280000000 1.0
C      1  0.5106630000000  0.4593880000000  0.4811650000000 1.0
C      1  0.5264490000000  0.5452480000000  0.4895450000000 1.0
C      1  0.5207580000000  0.4602000000000  0.5081260000000 1.0
C      1  0.5185000000000  0.5429990000000  0.5171520000000 1.0
C      1  0.4981290000000  0.4581520000000  0.5256920000000 1.0
C      1  0.4895910000000  0.5419860000000  0.5187250000000 1.0
C      1  0.4955490000000  0.4832490000000  0.5839170000000 1.0
C      1  0.4531160000000  0.5126690000000  0.5628910000000 1.0
C      1  0.4168950000000  0.4863770000000  0.5198150000000 1.0
C      1  0.4361300000000  0.5106170000000  0.4628220000000 1.0
C      1  0.4595850000000  0.4910700000000  0.4374420000000 1.0
C      1  0.5058050000000  0.5234100000000  0.4139230000000 1.0
C      1  0.5520100000000  0.4917340000000  0.4471250000000 1.0
C      1  0.5782370000000  0.5121970000000  0.4742010000000 1.0
C      1  0.5763610000000  0.4805260000000  0.5320160000000 1.0
C      1  0.5269640000000  0.5151010000000  0.5664500000000 1.0
C      1  0.5351360000000  0.5252610000000  0.5377240000000 1.0
C      1  0.4985920000000  0.4653070000000  0.5541440000000 1.0
C      1  0.4733370000000  0.5277300000000  0.5395810000000 1.0
C      1  0.4462650000000  0.4682990000000  0.5167730000000 1.0
C      1  0.4559050000000  0.5237690000000  0.4847980000000 1.0
C      1  0.4679930000000  0.4637340000000  0.4576640000000 1.0
C      1  0.5020160000000  0.5285580000000  0.4476700000000 1.0
C      1  0.5241680000000  0.4788380000000  0.4593160000000 1.0
C      1  0.5533800000000  0.5366310000000  0.4809340000000 1.0
C      1  0.5464340000000  0.4728330000000  0.5164820000000 1.0
C      1  0.5051440000000  0.5010330000000  0.5025370000000 1.0
END
