TITL C-2782225-7408-1493 -0.000478581297851136 125000 -330.737444432824 0 0 58 (C1) n - 1
REM
REM in /home/nfs/bkarasulu/CARBON/AIRSS/Generating-Clusters/REBO/Higher-Symm/SD-CG/HFTN-CG
REM
REM
REM
REM
REM
REM ./C.cell (12c818d87b63d06a65506943cc24bca4)
REM
REM compiler GCC version 9.2.1 20190827 (Red Hat 9.2.1-1)
REM options -cpp -mtune=generic -march=x86-64 -g -O0 -fpre-include=/usr/include/finclude/math-vector-fortran.h
REM seed -183860907 -349452199 -1017631650 938515875 989623742 1254653356 -646249868 -1907697011 277437252 1425889924 -714013518 738421996 -242568211 -911909263 905781141 2115468985 -141286696 814142830 1813690467 1455979293 378894398 -370678636 608723201 1635282929 -1617638768 914014911 -1752345373 -962023605 471605308 168999740 -1505083218 2021972766 1176179451
REM
CELL 1.54180   50.00000   50.00000   50.00000   90.00000   90.00000   90.00000
LATT -1
SFAC C  
C      1  0.4599820000000  0.4395280000000  0.4891880000000 1.0
C      1  0.5377230000000  0.4720000000000  0.4462960000000 1.0
C      1  0.4612350000000  0.5111770000000  0.4415690000000 1.0
C      1  0.5414470000000  0.5515410000000  0.4661080000000 1.0
C      1  0.4613940000000  0.5556340000000  0.5175300000000 1.0
C      1  0.5385240000000  0.5341570000000  0.5495560000000 1.0
C      1  0.4602170000000  0.4819110000000  0.5591620000000 1.0
C      1  0.5386930000000  0.4486170000000  0.5277500000000 1.0
C      1  0.4748040000000  0.5550490000000  0.4654280000000 1.0
C      1  0.5258840000000  0.5596420000000  0.5128070000000 1.0
C      1  0.4644410000000  0.5352160000000  0.5629760000000 1.0
C      1  0.5285180000000  0.4848570000000  0.5648340000000 1.0
C      1  0.4712420000000  0.4355200000000  0.5408400000000 1.0
C      1  0.5263630000000  0.4337300000000  0.4824590000000 1.0
C      1  0.4733250000000  0.4668620000000  0.4492980000000 1.0
C      1  0.5345530000000  0.5182320000000  0.4252750000000 1.0
C      1  0.4858530000000  0.5056520000000  0.4245370000000 1.0
C      1  0.5158890000000  0.5313080000000  0.4591560000000 1.0
C      1  0.4903920000000  0.5434910000000  0.5040180000000 1.0
C      1  0.5126520000000  0.5482620000000  0.5571950000000 1.0
C      1  0.4865560000000  0.5018870000000  0.5504090000000 1.0
C      1  0.5116720000000  0.4680450000000  0.5315450000000 1.0
C      1  0.4854980000000  0.4533420000000  0.5055600000000 1.0
C      1  0.5096770000000  0.4716590000000  0.4652140000000 1.0
C      1  0.4980570000000  0.5612480000000  0.5321160000000 1.0
C      1  0.4943920000000  0.5258140000000  0.5706080000000 1.0
C      1  0.4989420000000  0.4729240000000  0.5604120000000 1.0
C      1  0.5010330000000  0.4357870000000  0.5271160000000 1.0
C      1  0.4973710000000  0.4464240000000  0.4769100000000 1.0
C      1  0.5006330000000  0.4787120000000  0.4331420000000 1.0
C      1  0.5050770000000  0.5307680000000  0.4286590000000 1.0
C      1  0.5035170000000  0.5540150000000  0.4783200000000 1.0
C      1  0.5423400000000  0.5377780000000  0.5214610000000 1.0
C      1  0.4485210000000  0.5124460000000  0.5534350000000 1.0
C      1  0.5481470000000  0.4742070000000  0.5456660000000 1.0
C      1  0.4507860000000  0.4409680000000  0.5203360000000 1.0
C      1  0.5446420000000  0.4538800000000  0.4719810000000 1.0
C      1  0.4577140000000  0.4888440000000  0.4591060000000 1.0
C      1  0.5529400000000  0.5281800000000  0.4457610000000 1.0
C      1  0.4554410000000  0.5501620000000  0.4862230000000 1.0
C      1  0.4654250000000  0.5205390000000  0.5000680000000 1.0
C      1  0.5523200000000  0.5133790000000  0.5054860000000 1.0
C      1  0.4638350000000  0.5012200000000  0.5248190000000 1.0
C      1  0.5359620000000  0.4862720000000  0.5159170000000 1.0
C      1  0.4586720000000  0.4728270000000  0.5109660000000 1.0
C      1  0.5350880000000  0.4844050000000  0.4840390000000 1.0
C      1  0.4494640000000  0.4944160000000  0.4881550000000 1.0
C      1  0.5440000000000  0.5125860000000  0.4736390000000 1.0
C      1  0.4716130000000  0.4542530000000  0.5629890000000 1.0
C      1  0.5290950000000  0.4261420000000  0.5104200000000 1.0
C      1  0.4691530000000  0.4395050000000  0.4607470000000 1.0
C      1  0.5315170000000  0.4895280000000  0.4232840000000 1.0
C      1  0.4747610000000  0.5394900000000  0.4418560000000 1.0
C      1  0.5306170000000  0.5713850000000  0.4856770000000 1.0
C      1  0.4668870000000  0.5590390000000  0.5462480000000 1.0
C      1  0.5260050000000  0.5127280000000  0.5683910000000 1.0
C      1  0.5804980000000  0.5101540000000  0.5084040000000 1.0
C      1  0.4190020000000  0.4987630000000  0.4899480000000 1.0
END
