TITL C-2782226-7400-678 0.00297876294472434 125000 -233.753179737822 0 0 44 (C1) n - 1
REM
REM in /home/nfs/bkarasulu/CARBON/AIRSS/Generating-Clusters/REBO/Higher-Symm/SD-CG/HFTN-CG
REM
REM
REM
REM
REM
REM ./C.cell (12c818d87b63d06a65506943cc24bca4)
REM
REM compiler GCC version 9.2.1 20190827 (Red Hat 9.2.1-1)
REM options -cpp -mtune=generic -march=x86-64 -g -O0 -fpre-include=/usr/include/finclude/math-vector-fortran.h
REM seed -1653860142 -1669192973 1495436621 968317912 1881796642 -2032779868 -2015084124 -1750672778 -1220141176 704475753 526335398 -1723544599 704982885 2096171317 2089002505 479809098 1454422935 -133260899 -1482291180 -153766483 -1293571398 -1196252436 -2065617806 -806169933 -1701420220 -1404132006 -2134651274 -1367988971 228993833 1506646601 1203882695 1859532360 -161967138
REM
CELL 1.54180   50.00000   50.00000   50.00000   90.00000   90.00000   90.00000
LATT -1
SFAC C  
C      1  0.4308730000000  0.4943540000000  0.5079080000000 1.0
C      1  0.4942750000000  0.4903330000000  0.4361720000000 1.0
C      1  0.5673560000000  0.4882650000000  0.4948050000000 1.0
C      1  0.5070730000000  0.4914870000000  0.5697900000000 1.0
C      1  0.5686800000000  0.5118750000000  0.5081600000000 1.0
C      1  0.5054090000000  0.5153650000000  0.4360630000000 1.0
C      1  0.4319530000000  0.5177560000000  0.4941930000000 1.0
C      1  0.4925400000000  0.5143580000000  0.5698320000000 1.0
C      1  0.4758330000000  0.4830120000000  0.5352880000000 1.0
C      1  0.4643890000000  0.4848820000000  0.4789430000000 1.0
C      1  0.5227460000000  0.4859090000000  0.4639140000000 1.0
C      1  0.5380920000000  0.4852950000000  0.5256210000000 1.0
C      1  0.5235590000000  0.5226900000000  0.5350210000000 1.0
C      1  0.5349930000000  0.5209050000000  0.4789190000000 1.0
C      1  0.4766970000000  0.5202910000000  0.4634680000000 1.0
C      1  0.4613010000000  0.5204050000000  0.5258290000000 1.0
C      1  0.4795820000000  0.4544740000000  0.4815620000000 1.0
C      1  0.5216640000000  0.4553770000000  0.4788530000000 1.0
C      1  0.5228700000000  0.4548860000000  0.5273200000000 1.0
C      1  0.4730760000000  0.4558430000000  0.5148480000000 1.0
C      1  0.5195340000000  0.5511600000000  0.4815550000000 1.0
C      1  0.4775270000000  0.5507660000000  0.4785410000000 1.0
C      1  0.4764420000000  0.5508570000000  0.5273840000000 1.0
C      1  0.5261020000000  0.5501130000000  0.5148590000000 1.0
C      1  0.5525480000000  0.5300300000000  0.5188380000000 1.0
C      1  0.4790360000000  0.5311260000000  0.5528020000000 1.0
C      1  0.4505290000000  0.5330510000000  0.4808950000000 1.0
C      1  0.5165310000000  0.5328430000000  0.4530530000000 1.0
C      1  0.4468730000000  0.4762490000000  0.5188040000000 1.0
C      1  0.5204560000000  0.4746840000000  0.5527020000000 1.0
C      1  0.5485780000000  0.4730590000000  0.4817060000000 1.0
C      1  0.4831280000000  0.4729830000000  0.4532540000000 1.0
C      1  0.5472190000000  0.5054940000000  0.4511240000000 1.0
C      1  0.4514630000000  0.5008410000000  0.4518020000000 1.0
C      1  0.4505800000000  0.4998840000000  0.5507490000000 1.0
C      1  0.5489200000000  0.5059090000000  0.5504210000000 1.0
C      1  0.4995680000000  0.5031320000000  0.4736770000000 1.0
C      1  0.5279710000000  0.5010400000000  0.5017170000000 1.0
C      1  0.4713700000000  0.5045960000000  0.5019510000000 1.0
C      1  0.4997720000000  0.5026420000000  0.5300060000000 1.0
C      1  0.4953490000000  0.5602350000000  0.5040700000000 1.0
C      1  0.5037430000000  0.4454320000000  0.5041300000000 1.0
C      1  0.5007830000000  0.5224620000000  0.5017960000000 1.0
C      1  0.4985910000000  0.4832110000000  0.5014670000000 1.0
END
