TITL C-2782228-2999-698 -0.000197081585677845 125000 -453.398220506277 0 0 79 (C1) n - 1
REM
REM in /home/nfs/bkarasulu/CARBON/AIRSS/Generating-Clusters/REBO/Higher-Symm/SD-CG/HFTN-CG
REM
REM
REM
REM
REM
REM ./C.cell (12c818d87b63d06a65506943cc24bca4)
REM
REM compiler GCC version 9.2.1 20190827 (Red Hat 9.2.1-1)
REM options -cpp -mtune=generic -march=x86-64 -g -O0 -fpre-include=/usr/include/finclude/math-vector-fortran.h
REM seed -1667277168 240100069 1944172711 1957326803 -2075214548 1341782552 449621906 1400290662 -1750045833 1089185514 -1167865542 45623797 -2121251552 -981178399 178853891 2049211343 -1909233167 -555392339 1950152356 -910558546 -1842353832 -1660327926 -72941732 756033491 -1050961309 -589029872 624917967 -183519691 666268637 1720296586 -334410271 1938457126 27109262
REM
CELL 1.54180   50.00000   50.00000   50.00000   90.00000   90.00000   90.00000
LATT -1
SFAC C  
C      1  0.4508680000000  0.4802900000000  0.5242960000000 1.0
C      1  0.5595230000000  0.5342580000000  0.5535220000000 1.0
C      1  0.4048140000000  0.5014170000000  0.4907520000000 1.0
C      1  0.5501880000000  0.5570600000000  0.4965080000000 1.0
C      1  0.5002790000000  0.5380170000000  0.4292230000000 1.0
C      1  0.5338880000000  0.4631350000000  0.4269670000000 1.0
C      1  0.3913750000000  0.4959600000000  0.5658460000000 1.0
C      1  0.5717340000000  0.5409360000000  0.5041410000000 1.0
C      1  0.5162680000000  0.4757610000000  0.5717220000000 1.0
C      1  0.4437450000000  0.5498060000000  0.5335730000000 1.0
C      1  0.4990820000000  0.5477600000000  0.4570330000000 1.0
C      1  0.4737850000000  0.4394810000000  0.5292370000000 1.0
C      1  0.5240030000000  0.4247870000000  0.5452850000000 1.0
C      1  0.5123130000000  0.5065180000000  0.5084160000000 1.0
C      1  0.5008050000000  0.4625020000000  0.4237290000000 1.0
C      1  0.4471250000000  0.5563650000000  0.5068400000000 1.0
C      1  0.4212130000000  0.5149420000000  0.4483740000000 1.0
C      1  0.5025330000000  0.5685660000000  0.4907760000000 1.0
C      1  0.5454180000000  0.5588890000000  0.5531360000000 1.0
C      1  0.5703380000000  0.4817140000000  0.5422480000000 1.0
C      1  0.5334780000000  0.4959220000000  0.5820650000000 1.0
C      1  0.5706710000000  0.4824990000000  0.4601650000000 1.0
C      1  0.5428850000000  0.4879400000000  0.5440890000000 1.0
C      1  0.4814680000000  0.5019260000000  0.4582720000000 1.0
C      1  0.5186720000000  0.4314500000000  0.4990780000000 1.0
C      1  0.5724220000000  0.4579200000000  0.4970910000000 1.0
C      1  0.4341570000000  0.4588160000000  0.5070130000000 1.0
C      1  0.5420520000000  0.5316170000000  0.4541790000000 1.0
C      1  0.4916950000000  0.4367650000000  0.4183130000000 1.0
C      1  0.5275010000000  0.5545620000000  0.4719680000000 1.0
C      1  0.5258360000000  0.4511640000000  0.5633280000000 1.0
C      1  0.5344690000000  0.4992380000000  0.4620310000000 1.0
C      1  0.4531070000000  0.4555970000000  0.4519750000000 1.0
C      1  0.5122660000000  0.4147560000000  0.5216090000000 1.0
C      1  0.5810910000000  0.5236020000000  0.4831120000000 1.0
C      1  0.4679910000000  0.6021080000000  0.5050420000000 1.0
C      1  0.4747210000000  0.4657850000000  0.5393740000000 1.0
C      1  0.4906150000000  0.4912260000000  0.4871260000000 1.0
C      1  0.4541300000000  0.4348360000000  0.5076670000000 1.0
C      1  0.5449150000000  0.4488860000000  0.5359840000000 1.0
C      1  0.5549440000000  0.4719540000000  0.4411460000000 1.0
C      1  0.4312650000000  0.4950470000000  0.4331590000000 1.0
C      1  0.4102910000000  0.4694840000000  0.4970390000000 1.0
C      1  0.4587740000000  0.4477340000000  0.4779180000000 1.0
C      1  0.5202850000000  0.4782690000000  0.4815210000000 1.0
C      1  0.4719910000000  0.4695590000000  0.4997280000000 1.0
C      1  0.4839770000000  0.5474760000000  0.5190740000000 1.0
C      1  0.5263300000000  0.5696080000000  0.5089930000000 1.0
C      1  0.5354250000000  0.4661740000000  0.5097200000000 1.0
C      1  0.4055250000000  0.4930560000000  0.5428480000000 1.0
C      1  0.5728740000000  0.5307480000000  0.4579990000000 1.0
C      1  0.5761080000000  0.4524320000000  0.5426130000000 1.0
C      1  0.4319640000000  0.5423760000000  0.4878710000000 1.0
C      1  0.4733370000000  0.5749920000000  0.5029310000000 1.0
C      1  0.4420750000000  0.5226220000000  0.5511120000000 1.0
C      1  0.5014490000000  0.4534980000000  0.4931740000000 1.0
C      1  0.4801140000000  0.5378390000000  0.5451370000000 1.0
C      1  0.4927670000000  0.5287960000000  0.5005490000000 1.0
C      1  0.4765690000000  0.4846940000000  0.4207320000000 1.0
C      1  0.4837570000000  0.5136590000000  0.4266570000000 1.0
C      1  0.4851740000000  0.5294810000000  0.4736270000000 1.0
C      1  0.5496070000000  0.4387340000000  0.4972990000000 1.0
C      1  0.5181310000000  0.4931830000000  0.5358190000000 1.0
C      1  0.5506040000000  0.5149900000000  0.5725030000000 1.0
C      1  0.4468010000000  0.5511830000000  0.5657640000000 1.0
C      1  0.4336440000000  0.4983480000000  0.5410410000000 1.0
C      1  0.5289080000000  0.5732750000000  0.5368390000000 1.0
C      1  0.4927050000000  0.4861480000000  0.5531800000000 1.0
C      1  0.5285990000000  0.5326180000000  0.4233440000000 1.0
C      1  0.5833010000000  0.5000760000000  0.5249030000000 1.0
C      1  0.5750740000000  0.5277330000000  0.5297630000000 1.0
C      1  0.5080110000000  0.4876480000000  0.4447420000000 1.0
C      1  0.5333100000000  0.5030020000000  0.4282000000000 1.0
C      1  0.4804240000000  0.5143100000000  0.5587440000000 1.0
C      1  0.4518960000000  0.4759510000000  0.4321010000000 1.0
C      1  0.4174740000000  0.5213870000000  0.4755080000000 1.0
C      1  0.3933660000000  0.4876920000000  0.5176640000000 1.0
C      1  0.5754210000000  0.4917760000000  0.4926140000000 1.0
C      1  0.5442840000000  0.4976650000000  0.5053160000000 1.0
END
