TITL C-2782235-7892-498 -0.000334014852637721 125000 -358.595057839574 0 0 60 (Td) n - 1
REM
REM in /home/nfs/bkarasulu/CARBON/AIRSS/Generating-Clusters/REBO/Higher-Symm/SD-CG/HFTN-CG
REM
REM
REM
REM
REM
REM ./C.cell (12c818d87b63d06a65506943cc24bca4)
REM
REM compiler GCC version 9.2.1 20190827 (Red Hat 9.2.1-1)
REM options -cpp -mtune=generic -march=x86-64 -g -O0 -fpre-include=/usr/include/finclude/math-vector-fortran.h
REM seed -2146912720 -1293657415 -1869547826 -998015867 498918923 950760602 973922086 -462370041 -1231066463 1523409926 823504361 494625778 -692037328 -1221659341 -1770052766 930511284 -420878426 2114549201 -1778473628 -520498574 -1528873057 -427439694 1543855677 1121144009 -874704756 -1443016683 -229113471 -772250914 726127240 -244966565 -106609399 326842965 -869554516
REM
CELL 1.54180   50.00000   50.00000   50.00000   90.00000   90.00000   90.00000
LATT -1
SFAC C  
C      1  0.4206100000000  0.5274850000000  0.4903130000000 1.0
C      1  0.5274860000000  0.4903140000000  0.4206100000000 1.0
C      1  0.4903140000000  0.4206100000000  0.5274850000000 1.0
C      1  0.4206100000000  0.4725140000000  0.5096860000000 1.0
C      1  0.5793890000000  0.5274860000000  0.5096870000000 1.0
C      1  0.5793900000000  0.4725150000000  0.4903140000000 1.0
C      1  0.5274850000000  0.5096860000000  0.5793900000000 1.0
C      1  0.4725140000000  0.4903130000000  0.5793890000000 1.0
C      1  0.4725150000000  0.5096860000000  0.4206100000000 1.0
C      1  0.4903130000000  0.5793900000000  0.4725150000000 1.0
C      1  0.5096870000000  0.4206100000000  0.4725140000000 1.0
C      1  0.5096860000000  0.5793900000000  0.5274860000000 1.0
C      1  0.4206100000000  0.4903130000000  0.5274850000000 1.0
C      1  0.5274860000000  0.4206100000000  0.4903140000000 1.0
C      1  0.4903140000000  0.5274860000000  0.4206100000000 1.0
C      1  0.4206100000000  0.5096860000000  0.4725140000000 1.0
C      1  0.5793890000000  0.5096870000000  0.5274860000000 1.0
C      1  0.5793900000000  0.4903140000000  0.4725150000000 1.0
C      1  0.5274850000000  0.5793900000000  0.5096870000000 1.0
C      1  0.4725140000000  0.5793900000000  0.4903140000000 1.0
C      1  0.4725150000000  0.4206100000000  0.5096860000000 1.0
C      1  0.4903130000000  0.4725140000000  0.5793900000000 1.0
C      1  0.5096870000000  0.4725150000000  0.4206100000000 1.0
C      1  0.5096860000000  0.5274850000000  0.5793900000000 1.0
C      1  0.5568170000000  0.5113870000000  0.4672410000000 1.0
C      1  0.5113870000000  0.4672400000000  0.5568160000000 1.0
C      1  0.4672400000000  0.5568160000000  0.5113870000000 1.0
C      1  0.5568160000000  0.4886130000000  0.5327600000000 1.0
C      1  0.4431830000000  0.5113860000000  0.5327590000000 1.0
C      1  0.4431840000000  0.4886130000000  0.4672400000000 1.0
C      1  0.5113870000000  0.5327600000000  0.4431840000000 1.0
C      1  0.4886140000000  0.4672410000000  0.4431830000000 1.0
C      1  0.4886130000000  0.5327590000000  0.5568160000000 1.0
C      1  0.4672410000000  0.4431830000000  0.4886130000000 1.0
C      1  0.5327590000000  0.5568170000000  0.4886140000000 1.0
C      1  0.5327600000000  0.4431840000000  0.5113870000000 1.0
C      1  0.5568160000000  0.4672410000000  0.5113870000000 1.0
C      1  0.5113870000000  0.5568170000000  0.4672410000000 1.0
C      1  0.4672400000000  0.5113860000000  0.5568160000000 1.0
C      1  0.5568160000000  0.5327600000000  0.4886140000000 1.0
C      1  0.4431830000000  0.5327590000000  0.5113860000000 1.0
C      1  0.4431840000000  0.4672400000000  0.4886130000000 1.0
C      1  0.5113870000000  0.4431840000000  0.5327590000000 1.0
C      1  0.4886140000000  0.4431840000000  0.4672400000000 1.0
C      1  0.4886130000000  0.5568160000000  0.5327600000000 1.0
C      1  0.4672410000000  0.4886130000000  0.4431830000000 1.0
C      1  0.5327590000000  0.4886130000000  0.5568170000000 1.0
C      1  0.5327600000000  0.5113870000000  0.4431840000000 1.0
C      1  0.5071310000000  0.4699860000000  0.4699860000000 1.0
C      1  0.4928690000000  0.4699860000000  0.5300140000000 1.0
C      1  0.4928690000000  0.5300140000000  0.4699860000000 1.0
C      1  0.4699860000000  0.5071310000000  0.4699850000000 1.0
C      1  0.4699860000000  0.4928690000000  0.5300140000000 1.0
C      1  0.5300150000000  0.4928690000000  0.4699860000000 1.0
C      1  0.4699860000000  0.4699850000000  0.5071310000000 1.0
C      1  0.4699860000000  0.5300140000000  0.4928690000000 1.0
C      1  0.5300150000000  0.4699860000000  0.4928690000000 1.0
C      1  0.5300140000000  0.5071310000000  0.5300150000000 1.0
C      1  0.5071310000000  0.5300140000000  0.5300140000000 1.0
C      1  0.5300140000000  0.5300140000000  0.5071310000000 1.0
END
