TITL C-2782230-7391-150 0.000825198372552155 125000 -1047.69582430661 0 0 179 (C1) n - 1
REM
REM in /home/nfs/bkarasulu/CARBON/AIRSS/Generating-Clusters/REBO/Higher-Symm/SD-CG/HFTN-CG
REM
REM
REM
REM
REM
REM ./C.cell (12c818d87b63d06a65506943cc24bca4)
REM
REM compiler GCC version 9.2.1 20190827 (Red Hat 9.2.1-1)
REM options -cpp -mtune=generic -march=x86-64 -g -O0 -fpre-include=/usr/include/finclude/math-vector-fortran.h
REM seed 50004760 -1022381281 1706842417 -1400218963 1511125951 1807691916 -1461806565 -219783109 910397505 -1052877397 -1347316573 -701659062 -2015575286 1599710103 251372183 -934333531 1827374014 -1767402360 -950053023 1384829217 231075431 -1436452039 1830735310 1901162715 1604044736 1332197955 1963363613 434236649 1448191546 -1505903659 1267681164 -522224983 708207273
REM
CELL 1.54180   50.00000   50.00000   50.00000   90.00000   90.00000   90.00000
LATT -1
SFAC C  
C      1  0.5918210000000  0.5104320000000  0.4429500000000 1.0
C      1  0.4732200000000  0.5072170000000  0.3977390000000 1.0
C      1  0.3912510000000  0.5112830000000  0.4933360000000 1.0
C      1  0.4600870000000  0.5056010000000  0.6011480000000 1.0
C      1  0.5773730000000  0.5115840000000  0.5653970000000 1.0
C      1  0.4159360000000  0.5035470000000  0.4135460000000 1.0
C      1  0.3950630000000  0.5028650000000  0.5508180000000 1.0
C      1  0.5176480000000  0.4983190000000  0.6197230000000 1.0
C      1  0.6089390000000  0.5027610000000  0.5198460000000 1.0
C      1  0.5569730000000  0.4989750000000  0.3966850000000 1.0
C      1  0.4286740000000  0.4750630000000  0.4180690000000 1.0
C      1  0.4006290000000  0.4742160000000  0.5396890000000 1.0
C      1  0.5103190000000  0.4713310000000  0.6069630000000 1.0
C      1  0.6003830000000  0.4743150000000  0.5291490000000 1.0
C      1  0.5566840000000  0.4721770000000  0.4117330000000 1.0
C      1  0.4893060000000  0.5900640000000  0.5756390000000 1.0
C      1  0.5627000000000  0.5887950000000  0.5430370000000 1.0
C      1  0.5573510000000  0.5957440000000  0.4450720000000 1.0
C      1  0.4673420000000  0.5944640000000  0.4264830000000 1.0
C      1  0.4226900000000  0.5961950000000  0.5088970000000 1.0
C      1  0.5078600000000  0.5308990000000  0.5719600000000 1.0
C      1  0.5644700000000  0.5416130000000  0.5186150000000 1.0
C      1  0.5323580000000  0.5298090000000  0.4389490000000 1.0
C      1  0.4496530000000  0.5312700000000  0.4512340000000 1.0
C      1  0.4417260000000  0.5280670000000  0.5340490000000 1.0
C      1  0.4934520000000  0.4825570000000  0.4343250000000 1.0
C      1  0.4269250000000  0.4939200000000  0.4896790000000 1.0
C      1  0.4717690000000  0.4919770000000  0.5655680000000 1.0
C      1  0.5453450000000  0.4903370000000  0.5546660000000 1.0
C      1  0.5625290000000  0.4964820000000  0.4661310000000 1.0
C      1  0.4069060000000  0.5192370000000  0.4375160000000 1.0
C      1  0.4154950000000  0.5162130000000  0.5667950000000 1.0
C      1  0.5378280000000  0.5180630000000  0.6067060000000 1.0
C      1  0.6091500000000  0.5215900000000  0.4955920000000 1.0
C      1  0.5313690000000  0.5150230000000  0.3949810000000 1.0
C      1  0.4775580000000  0.4349160000000  0.5333530000000 1.0
C      1  0.5331860000000  0.4323250000000  0.5406470000000 1.0
C      1  0.5450860000000  0.4320140000000  0.4848290000000 1.0
C      1  0.4998050000000  0.4304470000000  0.4522800000000 1.0
C      1  0.4479930000000  0.4326740000000  0.4826510000000 1.0
C      1  0.5622620000000  0.5355370000000  0.5704470000000 1.0
C      1  0.5907540000000  0.5360390000000  0.4558370000000 1.0
C      1  0.4876360000000  0.5313290000000  0.4014920000000 1.0
C      1  0.3996460000000  0.5357480000000  0.4809280000000 1.0
C      1  0.4527930000000  0.5299360000000  0.5878530000000 1.0
C      1  0.4896740000000  0.3955370000000  0.4356640000000 1.0
C      1  0.4309000000000  0.3966700000000  0.4848750000000 1.0
C      1  0.4627570000000  0.4014990000000  0.5495290000000 1.0
C      1  0.5452750000000  0.3980630000000  0.5620040000000 1.0
C      1  0.5712650000000  0.3985530000000  0.4764900000000 1.0
C      1  0.5899920000000  0.4449880000000  0.5247480000000 1.0
C      1  0.5450840000000  0.4459270000000  0.4236580000000 1.0
C      1  0.4338140000000  0.4483590000000  0.4334680000000 1.0
C      1  0.4182130000000  0.4477470000000  0.5381500000000 1.0
C      1  0.5143210000000  0.4457200000000  0.5883870000000 1.0
C      1  0.4463180000000  0.4723260000000  0.4537050000000 1.0
C      1  0.4415380000000  0.4690570000000  0.5262710000000 1.0
C      1  0.5127400000000  0.4715710000000  0.5671440000000 1.0
C      1  0.5638090000000  0.4623050000000  0.5132750000000 1.0
C      1  0.5304610000000  0.4700050000000  0.4418380000000 1.0
C      1  0.5223960000000  0.4116000000000  0.4696420000000 1.0
C      1  0.4701450000000  0.4174040000000  0.4628010000000 1.0
C      1  0.4567300000000  0.4198250000000  0.5116290000000 1.0
C      1  0.5048940000000  0.4145570000000  0.5339350000000 1.0
C      1  0.5386550000000  0.4128610000000  0.5128560000000 1.0
C      1  0.5425260000000  0.5505970000000  0.4237110000000 1.0
C      1  0.4394610000000  0.5522680000000  0.4363720000000 1.0
C      1  0.4260950000000  0.5503350000000  0.5371610000000 1.0
C      1  0.5098010000000  0.5507810000000  0.5912090000000 1.0
C      1  0.5916750000000  0.5542610000000  0.5170020000000 1.0
C      1  0.5709950000000  0.5846590000000  0.5146330000000 1.0
C      1  0.5339440000000  0.5877000000000  0.4339240000000 1.0
C      1  0.4492180000000  0.5891980000000  0.4460430000000 1.0
C      1  0.4349070000000  0.5879820000000  0.5317350000000 1.0
C      1  0.5153400000000  0.5839280000000  0.5699590000000 1.0
C      1  0.4038920000000  0.5439470000000  0.4522360000000 1.0
C      1  0.4271030000000  0.5417860000000  0.5759740000000 1.0
C      1  0.5483730000000  0.5411410000000  0.5946600000000 1.0
C      1  0.6048030000000  0.5454430000000  0.4806510000000 1.0
C      1  0.5159880000000  0.5387820000000  0.3964280000000 1.0
C      1  0.5112980000000  0.5918440000000  0.5202750000000 1.0
C      1  0.5232260000000  0.5932440000000  0.4941350000000 1.0
C      1  0.5020970000000  0.5913940000000  0.4747650000000 1.0
C      1  0.4771130000000  0.5909530000000  0.4891110000000 1.0
C      1  0.4826720000000  0.5898320000000  0.5173710000000 1.0
C      1  0.5250080000000  0.5737670000000  0.5428320000000 1.0
C      1  0.5500880000000  0.5764940000000  0.4911830000000 1.0
C      1  0.5077080000000  0.5732310000000  0.4481090000000 1.0
C      1  0.4540720000000  0.5745610000000  0.4750890000000 1.0
C      1  0.4631540000000  0.5694230000000  0.5359740000000 1.0
C      1  0.4433550000000  0.5036140000000  0.4423020000000 1.0
C      1  0.4304310000000  0.4997450000000  0.5327290000000 1.0
C      1  0.5086010000000  0.5023440000000  0.5812980000000 1.0
C      1  0.5711770000000  0.4936930000000  0.5103400000000 1.0
C      1  0.5387500000000  0.5016150000000  0.4319280000000 1.0
C      1  0.4503070000000  0.4284810000000  0.4257990000000 1.0
C      1  0.4114130000000  0.4268830000000  0.5220300000000 1.0
C      1  0.4984390000000  0.4245690000000  0.5820380000000 1.0
C      1  0.5858240000000  0.4274070000000  0.5449990000000 1.0
C      1  0.5589260000000  0.4260040000000  0.4353630000000 1.0
C      1  0.4827770000000  0.5499530000000  0.5167010000000 1.0
C      1  0.5118830000000  0.5519520000000  0.5209870000000 1.0
C      1  0.5247740000000  0.5534000000000  0.4945180000000 1.0
C      1  0.5032100000000  0.5514930000000  0.4738050000000 1.0
C      1  0.4763010000000  0.5511320000000  0.4876050000000 1.0
C      1  0.5726470000000  0.4549030000000  0.5708820000000 1.0
C      1  0.5867400000000  0.4553120000000  0.4562280000000 1.0
C      1  0.4797610000000  0.4528800000000  0.4062240000000 1.0
C      1  0.3988390000000  0.4537140000000  0.4878850000000 1.0
C      1  0.4595090000000  0.4510320000000  0.5848970000000 1.0
C      1  0.5203960000000  0.5341850000000  0.5456940000000 1.0
C      1  0.5509200000000  0.5369200000000  0.4896200000000 1.0
C      1  0.5045080000000  0.5334690000000  0.4484080000000 1.0
C      1  0.4504070000000  0.5354360000000  0.4810150000000 1.0
C      1  0.4719730000000  0.5305050000000  0.5377580000000 1.0
C      1  0.4876710000000  0.5039470000000  0.6080950000000 1.0
C      1  0.5840950000000  0.5093230000000  0.5379740000000 1.0
C      1  0.5715160000000  0.5067510000000  0.4238850000000 1.0
C      1  0.4475590000000  0.5079700000000  0.4087780000000 1.0
C      1  0.3999270000000  0.5087880000000  0.5201770000000 1.0
C      1  0.5996990000000  0.4843240000000  0.4587660000000 1.0
C      1  0.4887660000000  0.4818260000000  0.3948970000000 1.0
C      1  0.3906650000000  0.4835370000000  0.4770980000000 1.0
C      1  0.4455150000000  0.4785620000000  0.5923060000000 1.0
C      1  0.5727190000000  0.4848750000000  0.5825440000000 1.0
C      1  0.5169160000000  0.5047660000000  0.4804490000000 1.0
C      1  0.4730790000000  0.5045720000000  0.4695310000000 1.0
C      1  0.4694730000000  0.5026370000000  0.5091900000000 1.0
C      1  0.5015080000000  0.4877650000000  0.5288710000000 1.0
C      1  0.5428570000000  0.5057970000000  0.5130150000000 1.0
C      1  0.5758050000000  0.5854590000000  0.4624890000000 1.0
C      1  0.4885260000000  0.5818560000000  0.4145710000000 1.0
C      1  0.4170600000000  0.5850210000000  0.4844960000000 1.0
C      1  0.4642530000000  0.5797690000000  0.5741190000000 1.0
C      1  0.5549760000000  0.5855450000000  0.5664860000000 1.0
C      1  0.4188740000000  0.5746330000000  0.4518560000000 1.0
C      1  0.4330690000000  0.5724320000000  0.5621490000000 1.0
C      1  0.5369270000000  0.5713310000000  0.5916010000000 1.0
C      1  0.5935130000000  0.5761410000000  0.4902660000000 1.0
C      1  0.5202100000000  0.5707500000000  0.4076500000000 1.0
C      1  0.5491230000000  0.5493670000000  0.5444890000000 1.0
C      1  0.5674420000000  0.5546150000000  0.4697020000000 1.0
C      1  0.4911180000000  0.5514590000000  0.4264720000000 1.0
C      1  0.4261720000000  0.5541140000000  0.4849320000000 1.0
C      1  0.4645080000000  0.5484250000000  0.5635190000000 1.0
C      1  0.5695870000000  0.4728940000000  0.5446520000000 1.0
C      1  0.5637540000000  0.4738460000000  0.4452510000000 1.0
C      1  0.4626430000000  0.4741520000000  0.4239020000000 1.0
C      1  0.4135130000000  0.4733410000000  0.5080230000000 1.0
C      1  0.4839860000000  0.4713540000000  0.5852990000000 1.0
C      1  0.5722040000000  0.4286560000000  0.4645650000000 1.0
C      1  0.4822900000000  0.4250890000000  0.4235560000000 1.0
C      1  0.4159340000000  0.4261580000000  0.4899520000000 1.0
C      1  0.4708680000000  0.4283260000000  0.5661230000000 1.0
C      1  0.5583400000000  0.4273720000000  0.5620540000000 1.0
C      1  0.5888470000000  0.4990510000000  0.4855830000000 1.0
C      1  0.5161300000000  0.4890490000000  0.4098300000000 1.0
C      1  0.4150960000000  0.4964010000000  0.4594880000000 1.0
C      1  0.4398650000000  0.4956490000000  0.5651370000000 1.0
C      1  0.5406070000000  0.4921990000000  0.5870060000000 1.0
C      1  0.4948880000000  0.3934820000000  0.4658100000000 1.0
C      1  0.4614800000000  0.3956540000000  0.4875380000000 1.0
C      1  0.4785100000000  0.3963980000000  0.5236190000000 1.0
C      1  0.5300470000000  0.3928040000000  0.5390340000000 1.0
C      1  0.5452660000000  0.3925580000000  0.4864360000000 1.0
C      1  0.5210000000000  0.4636880000000  0.5374530000000 1.0
C      1  0.5327710000000  0.4533650000000  0.5071430000000 1.0
C      1  0.5035340000000  0.4602440000000  0.4570720000000 1.0
C      1  0.4559890000000  0.4621300000000  0.4789600000000 1.0
C      1  0.4670470000000  0.4583430000000  0.5111670000000 1.0
C      1  0.4859100000000  0.5047610000000  0.5452960000000 1.0
C      1  0.5342190000000  0.5087060000000  0.5378240000000 1.0
C      1  0.5416050000000  0.5129010000000  0.4739820000000 1.0
C      1  0.4904130000000  0.5074840000000  0.4506210000000 1.0
C      1  0.4466210000000  0.5114750000000  0.4980980000000 1.0
C      1  0.4919550000000  0.4101450000000  0.4954810000000 1.0
C      1  0.5078280000000  0.4340740000000  0.4991760000000 1.0
C      1  0.4878610000000  0.4652070000000  0.4842910000000 1.0
C      1  0.4971050000000  0.4905750000000  0.4982250000000 1.0
END
