TITL C-2782228-2999-2 -0.00309384264897901 125000 -669.051275058688 0 0 114 (C1) n - 1
REM
REM in /home/nfs/bkarasulu/CARBON/AIRSS/Generating-Clusters/REBO/Higher-Symm/SD-CG/HFTN-CG
REM
REM
REM
REM
REM
REM ./C.cell (12c818d87b63d06a65506943cc24bca4)
REM
REM compiler GCC version 9.2.1 20190827 (Red Hat 9.2.1-1)
REM options -cpp -mtune=generic -march=x86-64 -g -O0 -fpre-include=/usr/include/finclude/math-vector-fortran.h
REM seed -1435249199 330759668 -290847765 186306603 -881717993 1526344687 -1221580375 -384908536 227438983 -1529901610 -158304807 -192805670 1932898754 615698738 -2092776034 -373050298 -176534635 -1864333868 -565000227 176502922 1781357125 -131069951 -871479389 1828957253 1800809758 1963166969 794170497 -676450061 -1759607823 2086648029 -312865637 -1022402897 670926644
REM
CELL 1.54180   50.00000   50.00000   50.00000   90.00000   90.00000   90.00000
LATT -1
SFAC C  
C      1  0.4626300000000  0.5191820000000  0.5749850000000 1.0
C      1  0.5204100000000  0.5356910000000  0.4332000000000 1.0
C      1  0.5335440000000  0.4816310000000  0.5659630000000 1.0
C      1  0.4833120000000  0.4640470000000  0.4318910000000 1.0
C      1  0.4559580000000  0.4459170000000  0.4328400000000 1.0
C      1  0.4638050000000  0.5529330000000  0.5698960000000 1.0
C      1  0.5466940000000  0.5540710000000  0.4355570000000 1.0
C      1  0.5495170000000  0.4517720000000  0.5680360000000 1.0
C      1  0.4904480000000  0.5431820000000  0.4306100000000 1.0
C      1  0.5404540000000  0.5114010000000  0.5679620000000 1.0
C      1  0.5145280000000  0.4585400000000  0.4340560000000 1.0
C      1  0.4545480000000  0.4926460000000  0.5724470000000 1.0
C      1  0.4618750000000  0.5341110000000  0.4733170000000 1.0
C      1  0.5205940000000  0.5238540000000  0.5192220000000 1.0
C      1  0.5432550000000  0.4976980000000  0.4926360000000 1.0
C      1  0.4708230000000  0.4642320000000  0.5148850000000 1.0
C      1  0.5349200000000  0.4304870000000  0.5539790000000 1.0
C      1  0.4357540000000  0.4623790000000  0.4472480000000 1.0
C      1  0.4571620000000  0.5804610000000  0.5510760000000 1.0
C      1  0.5684570000000  0.5389250000000  0.4475640000000 1.0
C      1  0.4913390000000  0.5469940000000  0.4813680000000 1.0
C      1  0.5498280000000  0.5216930000000  0.5237660000000 1.0
C      1  0.5093870000000  0.4465080000000  0.4843470000000 1.0
C      1  0.4430410000000  0.4734460000000  0.5197590000000 1.0
C      1  0.5101730000000  0.6014290000000  0.5049280000000 1.0
C      1  0.6031560000000  0.4818980000000  0.4833930000000 1.0
C      1  0.4982760000000  0.3909790000000  0.5121710000000 1.0
C      1  0.4053060000000  0.4949670000000  0.4919530000000 1.0
C      1  0.4563230000000  0.5449400000000  0.5004430000000 1.0
C      1  0.5109830000000  0.5246820000000  0.4899590000000 1.0
C      1  0.5317770000000  0.4857700000000  0.5148800000000 1.0
C      1  0.4901020000000  0.4705870000000  0.4897490000000 1.0
C      1  0.5693270000000  0.5612680000000  0.5312930000000 1.0
C      1  0.5656140000000  0.4336170000000  0.4633660000000 1.0
C      1  0.4392930000000  0.4321210000000  0.5303080000000 1.0
C      1  0.4328800000000  0.5610780000000  0.4644700000000 1.0
C      1  0.5764560000000  0.5474290000000  0.5540080000000 1.0
C      1  0.5447700000000  0.4229670000000  0.4543660000000 1.0
C      1  0.4341350000000  0.4493020000000  0.5523270000000 1.0
C      1  0.4545200000000  0.5725400000000  0.4533670000000 1.0
C      1  0.4660820000000  0.4230230000000  0.5246290000000 1.0
C      1  0.4225610000000  0.5401970000000  0.4771920000000 1.0
C      1  0.5405880000000  0.5686990000000  0.5293130000000 1.0
C      1  0.5694100000000  0.4622830000000  0.4725210000000 1.0
C      1  0.4237690000000  0.4380880000000  0.5072820000000 1.0
C      1  0.4224710000000  0.5947070000000  0.5048630000000 1.0
C      1  0.5806950000000  0.5517220000000  0.5077890000000 1.0
C      1  0.5554050000000  0.4153610000000  0.4973480000000 1.0
C      1  0.4901000000000  0.4478650000000  0.5624870000000 1.0
C      1  0.4504690000000  0.5200310000000  0.4500270000000 1.0
C      1  0.5197240000000  0.5581670000000  0.5531610000000 1.0
C      1  0.5634560000000  0.4808890000000  0.4469700000000 1.0
C      1  0.4211700000000  0.5378300000000  0.5362020000000 1.0
C      1  0.5435160000000  0.5619470000000  0.4745650000000 1.0
C      1  0.5668260000000  0.4466110000000  0.5055600000000 1.0
C      1  0.4542330000000  0.4365110000000  0.4713840000000 1.0
C      1  0.5275720000000  0.5054330000000  0.4261650000000 1.0
C      1  0.5051720000000  0.4774560000000  0.5678070000000 1.0
C      1  0.4750250000000  0.4936640000000  0.4229510000000 1.0
C      1  0.4915610000000  0.5243540000000  0.5697900000000 1.0
C      1  0.4833620000000  0.5626300000000  0.4531150000000 1.0
C      1  0.5659980000000  0.5182820000000  0.5528640000000 1.0
C      1  0.5171700000000  0.4361880000000  0.4541240000000 1.0
C      1  0.4358070000000  0.4816160000000  0.5521780000000 1.0
C      1  0.4889090000000  0.5717540000000  0.5562010000000 1.0
C      1  0.5761660000000  0.5123620000000  0.4439660000000 1.0
C      1  0.5064810000000  0.4250130000000  0.5526310000000 1.0
C      1  0.4354060000000  0.4903740000000  0.4490510000000 1.0
C      1  0.5200190000000  0.5309590000000  0.5653840000000 1.0
C      1  0.5369970000000  0.4772550000000  0.4315810000000 1.0
C      1  0.4741710000000  0.4732200000000  0.5789510000000 1.0
C      1  0.4694080000000  0.5241430000000  0.4256860000000 1.0
C      1  0.4183470000000  0.4699290000000  0.4984020000000 1.0
C      1  0.4407250000000  0.5680900000000  0.5030450000000 1.0
C      1  0.5658900000000  0.5205130000000  0.4949340000000 1.0
C      1  0.5299320000000  0.4375750000000  0.5019050000000 1.0
C      1  0.4762340000000  0.4586200000000  0.4645150000000 1.0
C      1  0.4666210000000  0.5353080000000  0.5250470000000 1.0
C      1  0.5268050000000  0.5375400000000  0.4658870000000 1.0
C      1  0.5456600000000  0.4738070000000  0.5356600000000 1.0
C      1  0.5944040000000  0.4901410000000  0.4585300000000 1.0
C      1  0.4911390000000  0.4097330000000  0.5330640000000 1.0
C      1  0.4194430000000  0.5101340000000  0.4679320000000 1.0
C      1  0.5107700000000  0.5852710000000  0.5338900000000 1.0
C      1  0.4731680000000  0.4353090000000  0.4969580000000 1.0
C      1  0.4183980000000  0.5241540000000  0.5051290000000 1.0
C      1  0.5289740000000  0.5744050000000  0.5001780000000 1.0
C      1  0.5760140000000  0.4772590000000  0.5023930000000 1.0
C      1  0.4222300000000  0.4989330000000  0.5279330000000 1.0
C      1  0.5062190000000  0.5760120000000  0.4744580000000 1.0
C      1  0.5752540000000  0.4989330000000  0.5271980000000 1.0
C      1  0.4916070000000  0.4224030000000  0.4714270000000 1.0
C      1  0.4607300000000  0.4168600000000  0.4466950000000 1.0
C      1  0.4471970000000  0.5408550000000  0.5452190000000 1.0
C      1  0.5399210000000  0.5812730000000  0.4491440000000 1.0
C      1  0.5734860000000  0.4643880000000  0.5479970000000 1.0
C      1  0.4839970000000  0.4983630000000  0.4522420000000 1.0
C      1  0.4925860000000  0.5246100000000  0.5370170000000 1.0
C      1  0.5143560000000  0.5018040000000  0.4532820000000 1.0
C      1  0.4879180000000  0.4718970000000  0.5384250000000 1.0
C      1  0.4253260000000  0.4479120000000  0.4746550000000 1.0
C      1  0.4415350000000  0.5865340000000  0.5299870000000 1.0
C      1  0.5707400000000  0.5472230000000  0.4773650000000 1.0
C      1  0.5485590000000  0.4282910000000  0.5281550000000 1.0
C      1  0.4904540000000  0.3852990000000  0.4862080000000 1.0
C      1  0.3837430000000  0.5062310000000  0.5135340000000 1.0
C      1  0.5081660000000  0.6153130000000  0.4815070000000 1.0
C      1  0.6146300000000  0.4727910000000  0.5111880000000 1.0
C      1  0.5189470000000  0.6015500000000  0.4563750000000 1.0
C      1  0.5985470000000  0.4761320000000  0.5350860000000 1.0
C      1  0.4789570000000  0.3955880000000  0.4597080000000 1.0
C      1  0.3957250000000  0.5183180000000  0.5373380000000 1.0
C      1  0.4990330000000  0.4976170000000  0.4821580000000 1.0
C      1  0.5039250000000  0.4953200000000  0.5269010000000 1.0
END
