TITL C-2782225-7408-510 -0.349805147285309 125000 -353.22778879852 0 0 60 (C1) n - 1
REM
REM in /home/nfs/bkarasulu/CARBON/AIRSS/Generating-Clusters/REBO/Higher-Symm/SD-CG/HFTN-CG
REM
REM
REM
REM
REM
REM ./C.cell (12c818d87b63d06a65506943cc24bca4)
REM
REM compiler GCC version 9.2.1 20190827 (Red Hat 9.2.1-1)
REM options -cpp -mtune=generic -march=x86-64 -g -O0 -fpre-include=/usr/include/finclude/math-vector-fortran.h
REM seed 2123467404 1441131122 -1808492651 -227846059 -1152766182 95391307 575235567 -1947799963 -437593062 -950145866 1514908012 104437828 -581845544 -1739107182 393500524 -460061673 1260837770 1605638537 366384095 -831355853 1670389104 1314824038 -1566763474 1525677953 1470271602 -1148082256 1342907098 -615828008 2116992189 1581780246 -950252742 236382179 -1509239518
REM
CELL 1.54180   50.00000   50.00000   50.00000   90.00000   90.00000   90.00000
LATT -1
SFAC C  
C      1  0.6046220000000  0.5317810000000  0.5822280000000 1.0
C      1  0.5599720000000  0.4703870000000  0.4087930000000 1.0
C      1  0.4200760000000  0.5207840000000  0.4082870000000 1.0
C      1  0.4393000000000  0.4511870000000  0.5194100000000 1.0
C      1  0.4250400000000  0.4863990000000  0.4656140000000 1.0
C      1  0.5102350000000  0.5595750000000  0.6027130000000 1.0
C      1  0.5736580000000  0.4733320000000  0.5093600000000 1.0
C      1  0.5139910000000  0.5093490000000  0.4288790000000 1.0
C      1  0.4612290000000  0.5356350000000  0.4942310000000 1.0
C      1  0.4763710000000  0.4549780000000  0.5338550000000 1.0
C      1  0.5244650000000  0.5411220000000  0.5306530000000 1.0
C      1  0.5147610000000  0.4612760000000  0.4850280000000 1.0
C      1  0.5365900000000  0.5555050000000  0.6058580000000 1.0
C      1  0.5768240000000  0.4711240000000  0.4827280000000 1.0
C      1  0.4950930000000  0.5084530000000  0.4079210000000 1.0
C      1  0.4075960000000  0.4921520000000  0.4857110000000 1.0
C      1  0.4985570000000  0.4386260000000  0.4790870000000 1.0
C      1  0.4516560000000  0.5448500000000  0.5196460000000 1.0
C      1  0.4946490000000  0.4347390000000  0.5416350000000 1.0
C      1  0.5279170000000  0.5610430000000  0.5102790000000 1.0
C      1  0.4875470000000  0.5582600000000  0.5884120000000 1.0
C      1  0.5563740000000  0.4718400000000  0.5313490000000 1.0
C      1  0.5068570000000  0.5268160000000  0.4507770000000 1.0
C      1  0.4510670000000  0.4760820000000  0.4635380000000 1.0
C      1  0.4990360000000  0.4990940000000  0.5363820000000 1.0
C      1  0.5317120000000  0.4924810000000  0.5320270000000 1.0
C      1  0.4973640000000  0.5089120000000  0.4760150000000 1.0
C      1  0.4730070000000  0.4882420000000  0.4831480000000 1.0
C      1  0.4735490000000  0.5521980000000  0.5663150000000 1.0
C      1  0.5479860000000  0.4461290000000  0.5407310000000 1.0
C      1  0.5139150000000  0.5529990000000  0.4595550000000 1.0
C      1  0.4564460000000  0.4487360000000  0.4583150000000 1.0
C      1  0.5771740000000  0.5346720000000  0.5782780000000 1.0
C      1  0.5520330000000  0.4745190000000  0.4351960000000 1.0
C      1  0.4441020000000  0.5166740000000  0.4218890000000 1.0
C      1  0.4295560000000  0.4765570000000  0.5283210000000 1.0
C      1  0.5147460000000  0.4678290000000  0.5158990000000 1.0
C      1  0.4922480000000  0.5328490000000  0.4967200000000 1.0
C      1  0.4821690000000  0.4704890000000  0.5059730000000 1.0
C      1  0.4960340000000  0.5286610000000  0.5281860000000 1.0
C      1  0.4091860000000  0.4885810000000  0.5127350000000 1.0
C      1  0.5605910000000  0.5468500000000  0.5974560000000 1.0
C      1  0.5692330000000  0.4698930000000  0.4569990000000 1.0
C      1  0.4681330000000  0.5118400000000  0.4078990000000 1.0
C      1  0.4713560000000  0.5426760000000  0.5404170000000 1.0
C      1  0.5208140000000  0.4419360000000  0.5334210000000 1.0
C      1  0.5108530000000  0.5561150000000  0.4877460000000 1.0
C      1  0.4701820000000  0.4350780000000  0.4794160000000 1.0
C      1  0.5268970000000  0.4864080000000  0.4415890000000 1.0
C      1  0.4451980000000  0.5172070000000  0.4500580000000 1.0
C      1  0.4481300000000  0.4923940000000  0.5435420000000 1.0
C      1  0.5644770000000  0.5255800000000  0.5548860000000 1.0
C      1  0.5161060000000  0.4834650000000  0.4679810000000 1.0
C      1  0.4539640000000  0.5144030000000  0.4764360000000 1.0
C      1  0.4756830000000  0.4844840000000  0.5427200000000 1.0
C      1  0.5427180000000  0.5209160000000  0.5383050000000 1.0
C      1  0.3975190000000  0.5246440000000  0.3955160000000 1.0
C      1  0.4555780000000  0.4356260000000  0.5040210000000 1.0
C      1  0.6304220000000  0.5290630000000  0.5859420000000 1.0
C      1  0.5674350000000  0.4665030000000  0.3839730000000 1.0
END
