TITL C-2782232-2968-789 -0.00610195445170681 125000 -501.465521346689 0 0 85 (C1) n - 1
REM
REM in /home/nfs/bkarasulu/CARBON/AIRSS/Generating-Clusters/REBO/Higher-Symm/SD-CG/HFTN-CG
REM
REM
REM
REM
REM
REM ./C.cell (12c818d87b63d06a65506943cc24bca4)
REM
REM compiler GCC version 9.2.1 20190827 (Red Hat 9.2.1-1)
REM options -cpp -mtune=generic -march=x86-64 -g -O0 -fpre-include=/usr/include/finclude/math-vector-fortran.h
REM seed -698896740 -1766483016 325030010 -1404094336 -32844399 1691644198 -725370937 1237707867 -113834259 235379482 664642107 -800798936 1477094429 -1654978133 -1992099727 -1654661358 188110433 -132464958 1451225228 -1487863625 277271591 -1333552223 1296303668 -467367940 1256048196 1294301405 -1742544660 -923578240 -58594122 -2054970782 -1971176116 662099621 -780526137
REM
CELL 1.54180   50.00000   50.00000   50.00000   90.00000   90.00000   90.00000
LATT -1
SFAC C  
C      1  0.5468350000000  0.4364940000000  0.4735600000000 1.0
C      1  0.4974150000000  0.4362710000000  0.5534860000000 1.0
C      1  0.4550570000000  0.4362100000000  0.4708210000000 1.0
C      1  0.4917100000000  0.5409800000000  0.5249640000000 1.0
C      1  0.4845520000000  0.5350060000000  0.4846630000000 1.0
C      1  0.5098080000000  0.5549540000000  0.4906510000000 1.0
C      1  0.5019430000000  0.4663120000000  0.5276170000000 1.0
C      1  0.4706400000000  0.4666730000000  0.4914230000000 1.0
C      1  0.5194120000000  0.4673880000000  0.4824380000000 1.0
C      1  0.4725380000000  0.4210650000000  0.4935350000000 1.0
C      1  0.5189050000000  0.4216400000000  0.4780500000000 1.0
C      1  0.5093020000000  0.4234070000000  0.5263500000000 1.0
C      1  0.5247450000000  0.5044350000000  0.4995820000000 1.0
C      1  0.4691160000000  0.5249450000000  0.5355360000000 1.0
C      1  0.4887790000000  0.5257950000000  0.4583090000000 1.0
C      1  0.4498740000000  0.4554710000000  0.5552470000000 1.0
C      1  0.4782880000000  0.4545520000000  0.4280450000000 1.0
C      1  0.5734380000000  0.4572930000000  0.5118040000000 1.0
C      1  0.5218360000000  0.4930620000000  0.4381410000000 1.0
C      1  0.5416580000000  0.4908070000000  0.5463230000000 1.0
C      1  0.4340030000000  0.4916660000000  0.5186680000000 1.0
C      1  0.5243120000000  0.4671330000000  0.4523980000000 1.0
C      1  0.5268140000000  0.4639270000000  0.5444740000000 1.0
C      1  0.4462060000000  0.4651380000000  0.5109650000000 1.0
C      1  0.4502520000000  0.5093620000000  0.4351960000000 1.0
C      1  0.5771010000000  0.5129240000000  0.4847110000000 1.0
C      1  0.4698600000000  0.5103400000000  0.5795470000000 1.0
C      1  0.4275590000000  0.4797800000000  0.4679650000000 1.0
C      1  0.5644300000000  0.4799980000000  0.4488410000000 1.0
C      1  0.5092400000000  0.4795060000000  0.5824190000000 1.0
C      1  0.4873450000000  0.4690040000000  0.5584180000000 1.0
C      1  0.4591630000000  0.4691260000000  0.4599620000000 1.0
C      1  0.5534370000000  0.4698860000000  0.4795720000000 1.0
C      1  0.5247230000000  0.5080120000000  0.5263220000000 1.0
C      1  0.4544400000000  0.5154430000000  0.5140920000000 1.0
C      1  0.5159770000000  0.5180620000000  0.4569970000000 1.0
C      1  0.5612150000000  0.5353640000000  0.4906220000000 1.0
C      1  0.4640550000000  0.5325820000000  0.5630940000000 1.0
C      1  0.4665690000000  0.5316730000000  0.4395690000000 1.0
C      1  0.4923120000000  0.4220270000000  0.4705070000000 1.0
C      1  0.5290060000000  0.4239880000000  0.5069220000000 1.0
C      1  0.4792730000000  0.4234050000000  0.5204100000000 1.0
C      1  0.4969470000000  0.5090810000000  0.5874070000000 1.0
C      1  0.4284440000000  0.5082160000000  0.4528890000000 1.0
C      1  0.5763040000000  0.5091730000000  0.4568780000000 1.0
C      1  0.4632190000000  0.5692110000000  0.4673520000000 1.0
C      1  0.5451420000000  0.5680030000000  0.4742660000000 1.0
C      1  0.4963810000000  0.5691700000000  0.5528910000000 1.0
C      1  0.4219400000000  0.5031540000000  0.4914120000000 1.0
C      1  0.5497330000000  0.5032890000000  0.4289670000000 1.0
C      1  0.5330370000000  0.5008070000000  0.5740440000000 1.0
C      1  0.4653970000000  0.4365510000000  0.5444440000000 1.0
C      1  0.4784690000000  0.4354630000000  0.4468120000000 1.0
C      1  0.5566670000000  0.4374940000000  0.5052090000000 1.0
C      1  0.4356320000000  0.5069010000000  0.5479130000000 1.0
C      1  0.4963990000000  0.5059980000000  0.4244580000000 1.0
C      1  0.5643530000000  0.5046770000000  0.5288350000000 1.0
C      1  0.4230250000000  0.5304180000000  0.4755770000000 1.0
C      1  0.5569260000000  0.5311230000000  0.4415240000000 1.0
C      1  0.5207360000000  0.5291040000000  0.5779480000000 1.0
C      1  0.5020630000000  0.5339610000000  0.4215620000000 1.0
C      1  0.5645790000000  0.5321550000000  0.5303290000000 1.0
C      1  0.4309420000000  0.5351180000000  0.5408270000000 1.0
C      1  0.5251040000000  0.5534170000000  0.5568960000000 1.0
C      1  0.4399000000000  0.5567930000000  0.4888830000000 1.0
C      1  0.5390100000000  0.5529080000000  0.4499560000000 1.0
C      1  0.5728170000000  0.5632140000000  0.4891240000000 1.0
C      1  0.4735580000000  0.5586030000000  0.5697400000000 1.0
C      1  0.4556920000000  0.5576760000000  0.4417050000000 1.0
C      1  0.4706070000000  0.4854970000000  0.4324240000000 1.0
C      1  0.5704140000000  0.4881470000000  0.5027630000000 1.0
C      1  0.4579420000000  0.4858250000000  0.5628510000000 1.0
C      1  0.5199640000000  0.4506180000000  0.5719900000000 1.0
C      1  0.4333740000000  0.4534550000000  0.4855960000000 1.0
C      1  0.5498510000000  0.4508220000000  0.4448800000000 1.0
C      1  0.4934920000000  0.5678340000000  0.4641870000000 1.0
C      1  0.5368830000000  0.5645660000000  0.5063920000000 1.0
C      1  0.4713520000000  0.5644820000000  0.5302700000000 1.0
C      1  0.5153700000000  0.5320310000000  0.5352610000000 1.0
C      1  0.4588300000000  0.5316360000000  0.4928060000000 1.0
C      1  0.5315120000000  0.5302300000000  0.4823740000000 1.0
C      1  0.5473380000000  0.5552700000000  0.5311820000000 1.0
C      1  0.4442600000000  0.5554680000000  0.5226350000000 1.0
C      1  0.5107350000000  0.5545830000000  0.4414220000000 1.0
C      1  0.4976330000000  0.4668940000000  0.5000870000000 1.0
END
