TITL C-2782236-320-569 5.51958744881721e-05 125000 -217.967059892022 0 0 37 (C2h) n - 1
REM
REM in /home/nfs/bkarasulu/CARBON/AIRSS/Generating-Clusters/REBO/Higher-Symm/SD-CG/HFTN-CG
REM
REM
REM
REM
REM
REM ./C.cell (12c818d87b63d06a65506943cc24bca4)
REM
REM compiler GCC version 9.2.1 20190827 (Red Hat 9.2.1-1)
REM options -cpp -mtune=generic -march=x86-64 -g -O0 -fpre-include=/usr/include/finclude/math-vector-fortran.h
REM seed -1277655925 1480691968 -1182373537 585769831 1456837798 -306991936 -1382243176 1082420741 1509879711 -2113339312 608268118 -1562437389 914303644 -191216058 1982425387 1491177013 2024926467 -1119847889 120021389 1356763240 -649618130 945290274 410596176 1991935972 1569112279 264140503 264357830 -316571722 1705703524 1332737303 -1453345866 1925941583 1483747482
REM
CELL 1.54180   50.00000   50.00000   50.00000   90.00000   90.00000   90.00000
LATT -1
SFAC C  
C      1  0.4730690000000  0.5483990000000  0.5210110000000 1.0
C      1  0.5284300000000  0.5477280000000  0.4770780000000 1.0
C      1  0.4711930000000  0.4523930000000  0.5201150000000 1.0
C      1  0.5265540000000  0.4517210000000  0.4761810000000 1.0
C      1  0.5398110000000  0.4620630000000  0.5059090000000 1.0
C      1  0.4583610000000  0.4637980000000  0.4905900000000 1.0
C      1  0.5412630000000  0.5363220000000  0.5066030000000 1.0
C      1  0.4598120000000  0.5380570000000  0.4912840000000 1.0
C      1  0.4896430000000  0.5323160000000  0.4508840000000 1.0
C      1  0.5112160000000  0.5309970000000  0.5468980000000 1.0
C      1  0.4884080000000  0.4691230000000  0.4502940000000 1.0
C      1  0.5099810000000  0.4678050000000  0.5463080000000 1.0
C      1  0.4800690000000  0.5531680000000  0.4710400000000 1.0
C      1  0.5216040000000  0.5518330000000  0.5271320000000 1.0
C      1  0.4780200000000  0.4482880000000  0.4700610000000 1.0
C      1  0.5195540000000  0.4469520000000  0.5261520000000 1.0
C      1  0.5337260000000  0.5135500000000  0.4366730000000 1.0
C      1  0.4664280000000  0.5137060000000  0.5607730000000 1.0
C      1  0.5331960000000  0.4864150000000  0.4364190000000 1.0
C      1  0.4658970000000  0.4865710000000  0.5605200000000 1.0
C      1  0.4693040000000  0.4870810000000  0.4680780000000 1.0
C      1  0.5297780000000  0.4853320000000  0.5288560000000 1.0
C      1  0.4698460000000  0.5147890000000  0.4683370000000 1.0
C      1  0.5303190000000  0.5130390000000  0.5291150000000 1.0
C      1  0.5254460000000  0.4838540000000  0.4855740000000 1.0
C      1  0.4735600000000  0.4846280000000  0.5113230000000 1.0
C      1  0.5260640000000  0.5154920000000  0.4858700000000 1.0
C      1  0.4741780000000  0.5162660000000  0.5116180000000 1.0
C      1  0.5173340000000  0.4679190000000  0.4498020000000 1.0
C      1  0.4810300000000  0.4677230000000  0.5467880000000 1.0
C      1  0.5185940000000  0.5323970000000  0.4504050000000 1.0
C      1  0.4822900000000  0.5322010000000  0.5473900000000 1.0
C      1  0.5027790000000  0.5640690000000  0.4850650000000 1.0
C      1  0.4993430000000  0.5638720000000  0.5133210000000 1.0
C      1  0.5002810000000  0.4362480000000  0.4838720000000 1.0
C      1  0.4968450000000  0.4360510000000  0.5121270000000 1.0
C      1  0.4998120000000  0.5000600000000  0.4985960000000 1.0
END
