TITL C-2782230-7391-700 -0.000329368366337159 125000 -553.865827084748 0 0 97 (C1) n - 1
REM
REM in /home/nfs/bkarasulu/CARBON/AIRSS/Generating-Clusters/REBO/Higher-Symm/SD-CG/HFTN-CG
REM
REM
REM
REM
REM
REM ./C.cell (12c818d87b63d06a65506943cc24bca4)
REM
REM compiler GCC version 9.2.1 20190827 (Red Hat 9.2.1-1)
REM options -cpp -mtune=generic -march=x86-64 -g -O0 -fpre-include=/usr/include/finclude/math-vector-fortran.h
REM seed 989113723 53336449 -1990813052 1915109949 -826545443 -795728018 1870935398 -139536240 663652434 -1318495812 -838162436 -1201241429 -1658403723 1625599392 -10412664 -1557454427 1892479401 -939533912 -1381804787 347953223 -1514307307 192513 910581597 1015509765 -2031507514 -389475324 2000460607 -1783630420 539458899 944608505 -1989310679 -719179109 -2070703839
REM
CELL 1.54180   50.00000   50.00000   50.00000   90.00000   90.00000   90.00000
LATT -1
SFAC C  
C      1  0.5288970000000  0.5264820000000  0.4534470000000 1.0
C      1  0.5288550000000  0.4838510000000  0.4539450000000 1.0
C      1  0.4912590000000  0.4592830000000  0.4471580000000 1.0
C      1  0.4702940000000  0.4929290000000  0.4519930000000 1.0
C      1  0.4849610000000  0.5349570000000  0.4523790000000 1.0
C      1  0.5197500000000  0.4768820000000  0.5485600000000 1.0
C      1  0.5342750000000  0.5205800000000  0.5491450000000 1.0
C      1  0.4925080000000  0.5390760000000  0.5481180000000 1.0
C      1  0.4688710000000  0.5043900000000  0.5468700000000 1.0
C      1  0.4830630000000  0.4616780000000  0.5531760000000 1.0
C      1  0.4770730000000  0.4995140000000  0.4197800000000 1.0
C      1  0.4907160000000  0.5254030000000  0.4206020000000 1.0
C      1  0.5196470000000  0.5208940000000  0.4209660000000 1.0
C      1  0.5236010000000  0.4917230000000  0.4222780000000 1.0
C      1  0.4970630000000  0.4770670000000  0.4252820000000 1.0
C      1  0.4773240000000  0.5081880000000  0.5786080000000 1.0
C      1  0.4891330000000  0.4800640000000  0.5744130000000 1.0
C      1  0.5186650000000  0.4865050000000  0.5808040000000 1.0
C      1  0.5237680000000  0.5152670000000  0.5808890000000 1.0
C      1  0.4980070000000  0.5291100000000  0.5804800000000 1.0
C      1  0.4337850000000  0.4791640000000  0.4995540000000 1.0
C      1  0.4562450000000  0.5587690000000  0.5010830000000 1.0
C      1  0.5459460000000  0.5536410000000  0.5047490000000 1.0
C      1  0.5681390000000  0.4784040000000  0.5001480000000 1.0
C      1  0.4974430000000  0.4296790000000  0.4977140000000 1.0
C      1  0.4335290000000  0.5206370000000  0.5007530000000 1.0
C      1  0.4596860000000  0.4418380000000  0.5021810000000 1.0
C      1  0.5398540000000  0.4461410000000  0.5013180000000 1.0
C      1  0.5704150000000  0.5221240000000  0.4992880000000 1.0
C      1  0.4943460000000  0.5701050000000  0.4968240000000 1.0
C      1  0.5071210000000  0.4298790000000  0.5512080000000 1.0
C      1  0.4378040000000  0.4679250000000  0.5535740000000 1.0
C      1  0.4542750000000  0.5483140000000  0.5553390000000 1.0
C      1  0.5338050000000  0.5597840000000  0.5567360000000 1.0
C      1  0.5670540000000  0.4874370000000  0.5540600000000 1.0
C      1  0.5076020000000  0.5670930000000  0.4453570000000 1.0
C      1  0.4386810000000  0.5286140000000  0.4474000000000 1.0
C      1  0.4530850000000  0.4478730000000  0.4493160000000 1.0
C      1  0.5315170000000  0.4380420000000  0.4479580000000 1.0
C      1  0.5654050000000  0.5119090000000  0.4460860000000 1.0
C      1  0.4494970000000  0.4438950000000  0.5654890000000 1.0
C      1  0.4425260000000  0.5250830000000  0.5686110000000 1.0
C      1  0.5093150000000  0.5676860000000  0.5703850000000 1.0
C      1  0.5680240000000  0.5124680000000  0.5689960000000 1.0
C      1  0.5299030000000  0.4419660000000  0.5651270000000 1.0
C      1  0.4520440000000  0.5498290000000  0.4326420000000 1.0
C      1  0.4420830000000  0.4705600000000  0.4345990000000 1.0
C      1  0.5082800000000  0.4249760000000  0.4358750000000 1.0
C      1  0.5621160000000  0.4865980000000  0.4319980000000 1.0
C      1  0.5321930000000  0.5598550000000  0.4317060000000 1.0
C      1  0.4429010000000  0.4941940000000  0.5654340000000 1.0
C      1  0.4790690000000  0.5617530000000  0.5685530000000 1.0
C      1  0.5531300000000  0.5393280000000  0.5697890000000 1.0
C      1  0.5479460000000  0.4672220000000  0.5631500000000 1.0
C      1  0.4783910000000  0.4324250000000  0.5640820000000 1.0
C      1  0.4417930000000  0.5012810000000  0.4371080000000 1.0
C      1  0.4780170000000  0.4324500000000  0.4371710000000 1.0
C      1  0.5448770000000  0.4610950000000  0.4348220000000 1.0
C      1  0.5532910000000  0.5375520000000  0.4334440000000 1.0
C      1  0.4801180000000  0.5616410000000  0.4323190000000 1.0
C      1  0.4557610000000  0.4541150000000  0.4775640000000 1.0
C      1  0.4433860000000  0.5301620000000  0.4763450000000 1.0
C      1  0.5082330000000  0.5624500000000  0.4739220000000 1.0
C      1  0.5635710000000  0.5093380000000  0.4752090000000 1.0
C      1  0.5277680000000  0.4443590000000  0.4764380000000 1.0
C      1  0.4545240000000  0.5458060000000  0.5259970000000 1.0
C      1  0.4426790000000  0.4702020000000  0.5243990000000 1.0
C      1  0.5075210000000  0.4363700000000  0.5226940000000 1.0
C      1  0.5657850000000  0.4917560000000  0.5248310000000 1.0
C      1  0.5306720000000  0.5567290000000  0.5280620000000 1.0
C      1  0.4733610000000  0.5405990000000  0.4794370000000 1.0
C      1  0.5292500000000  0.5407520000000  0.4801000000000 1.0
C      1  0.5436250000000  0.4851450000000  0.4799290000000 1.0
C      1  0.4979920000000  0.4562250000000  0.4771270000000 1.0
C      1  0.4586310000000  0.4860140000000  0.4792270000000 1.0
C      1  0.4740600000000  0.4626860000000  0.5238110000000 1.0
C      1  0.5221290000000  0.4642550000000  0.5221100000000 1.0
C      1  0.5475950000000  0.5179520000000  0.5227080000000 1.0
C      1  0.5009700000000  0.5515880000000  0.5221840000000 1.0
C      1  0.4576950000000  0.5148220000000  0.5218150000000 1.0
C      1  0.5708430000000  0.5645840000000  0.5001960000000 1.0
C      1  0.5878380000000  0.4607520000000  0.4923390000000 1.0
C      1  0.4868800000000  0.4058720000000  0.4887320000000 1.0
C      1  0.4078790000000  0.4814250000000  0.4903780000000 1.0
C      1  0.4427550000000  0.5814650000000  0.4930730000000 1.0
C      1  0.5633210000000  0.4346770000000  0.5101010000000 1.0
C      1  0.5949320000000  0.5333010000000  0.5053740000000 1.0
C      1  0.4800630000000  0.5934190000000  0.5003600000000 1.0
C      1  0.4073710000000  0.5169710000000  0.5085960000000 1.0
C      1  0.4544590000000  0.4159000000000  0.5098740000000 1.0
C      1  0.5209900000000  0.4869030000000  0.5001790000000 1.0
C      1  0.5245970000000  0.5173530000000  0.5022410000000 1.0
C      1  0.4957790000000  0.5302070000000  0.4992480000000 1.0
C      1  0.4906230000000  0.4772510000000  0.5012720000000 1.0
C      1  0.4754780000000  0.5054450000000  0.4983900000000 1.0
C      1  0.5029700000000  0.5065320000000  0.5479670000000 1.0
C      1  0.5021000000000  0.5052010000000  0.4531510000000 1.0
END
