TITL C-2782229-3092-6 -0.0019523201646083 125000 -1058.70499042667 0 0 182 (C1) n - 1
REM
REM in /home/nfs/bkarasulu/CARBON/AIRSS/Generating-Clusters/REBO/Higher-Symm/SD-CG/HFTN-CG
REM
REM
REM
REM
REM
REM ./C.cell (12c818d87b63d06a65506943cc24bca4)
REM
REM compiler GCC version 9.2.1 20190827 (Red Hat 9.2.1-1)
REM options -cpp -mtune=generic -march=x86-64 -g -O0 -fpre-include=/usr/include/finclude/math-vector-fortran.h
REM seed 1531338562 -728699835 -1729615108 -1723912272 -1003852460 -156056549 705516360 639925477 -1407169628 1891609650 -172299267 1924690483 1244780235 1594665133 1094056480 1883562990 -764600533 -1837961731 -2018819100 1449675897 -2084251601 -416680146 1131273875 -1756506382 714874651 1254893954 1847728176 -499436828 1503030222 -551106687 -1524703614 -1591420540 -152802424
REM
CELL 1.54180   50.00000   50.00000   50.00000   90.00000   90.00000   90.00000
LATT -1
SFAC C  
C      1  0.4008380000000  0.4697870000000  0.5322760000000 1.0
C      1  0.4487070000000  0.5725550000000  0.4602990000000 1.0
C      1  0.5314170000000  0.5898210000000  0.5467180000000 1.0
C      1  0.5993650000000  0.5153450000000  0.4600780000000 1.0
C      1  0.5706730000000  0.4267480000000  0.5514180000000 1.0
C      1  0.4581150000000  0.4185000000000  0.4545430000000 1.0
C      1  0.5161310000000  0.5428120000000  0.5487720000000 1.0
C      1  0.5571820000000  0.5046950000000  0.4528360000000 1.0
C      1  0.5391850000000  0.4554470000000  0.5580230000000 1.0
C      1  0.4871260000000  0.4585090000000  0.4552590000000 1.0
C      1  0.4398530000000  0.4852760000000  0.5473940000000 1.0
C      1  0.4744930000000  0.5348600000000  0.4539300000000 1.0
C      1  0.5030880000000  0.5612080000000  0.5698270000000 1.0
C      1  0.5513750000000  0.5231520000000  0.4290860000000 1.0
C      1  0.5516210000000  0.4742630000000  0.5773740000000 1.0
C      1  0.4927160000000  0.4449030000000  0.4291040000000 1.0
C      1  0.4468560000000  0.4677010000000  0.5705870000000 1.0
C      1  0.4569780000000  0.5331300000000  0.4303600000000 1.0
C      1  0.5473390000000  0.5354770000000  0.5977610000000 1.0
C      1  0.5330560000000  0.4766700000000  0.4119140000000 1.0
C      1  0.5026790000000  0.4587600000000  0.5836940000000 1.0
C      1  0.4476400000000  0.4788660000000  0.4008410000000 1.0
C      1  0.4595080000000  0.5246600000000  0.5784940000000 1.0
C      1  0.5038990000000  0.5558230000000  0.4031090000000 1.0
C      1  0.5141250000000  0.3699320000000  0.5111060000000 1.0
C      1  0.3989250000000  0.4122280000000  0.4941010000000 1.0
C      1  0.3717750000000  0.5317920000000  0.5201370000000 1.0
C      1  0.4755000000000  0.6373520000000  0.4954310000000 1.0
C      1  0.5852500000000  0.5983060000000  0.5028120000000 1.0
C      1  0.5907490000000  0.4381570000000  0.4935450000000 1.0
C      1  0.4752400000000  0.4756230000000  0.3805830000000 1.0
C      1  0.4614530000000  0.5049170000000  0.6041670000000 1.0
C      1  0.4898170000000  0.5346470000000  0.3798690000000 1.0
C      1  0.5179010000000  0.5365110000000  0.6154280000000 1.0
C      1  0.5354790000000  0.4934630000000  0.3823490000000 1.0
C      1  0.5139650000000  0.4725540000000  0.6128080000000 1.0
C      1  0.5055850000000  0.3870130000000  0.4887450000000 1.0
C      1  0.4244290000000  0.4309130000000  0.5070680000000 1.0
C      1  0.3934920000000  0.5410180000000  0.4992440000000 1.0
C      1  0.4797340000000  0.6068460000000  0.5092260000000 1.0
C      1  0.5810510000000  0.6100990000000  0.4779320000000 1.0
C      1  0.5914700000000  0.4581510000000  0.5134370000000 1.0
C      1  0.5512300000000  0.5922060000000  0.5652190000000 1.0
C      1  0.5867450000000  0.4950320000000  0.4438590000000 1.0
C      1  0.5470940000000  0.4253890000000  0.5668060000000 1.0
C      1  0.4354130000000  0.4271830000000  0.4432820000000 1.0
C      1  0.4083290000000  0.4926650000000  0.5494530000000 1.0
C      1  0.4669700000000  0.5890400000000  0.4497270000000 1.0
C      1  0.4411280000000  0.5490530000000  0.4705900000000 1.0
C      1  0.5103270000000  0.5786090000000  0.5320690000000 1.0
C      1  0.5796500000000  0.5315160000000  0.4725720000000 1.0
C      1  0.5722350000000  0.4530090000000  0.5358190000000 1.0
C      1  0.4834540000000  0.4202440000000  0.4655660000000 1.0
C      1  0.4259680000000  0.4553180000000  0.5249950000000 1.0
C      1  0.4703900000000  0.5082120000000  0.3862330000000 1.0
C      1  0.4887470000000  0.5255230000000  0.6056570000000 1.0
C      1  0.5208440000000  0.5240770000000  0.3856970000000 1.0
C      1  0.5230350000000  0.5050930000000  0.6074110000000 1.0
C      1  0.5081110000000  0.4728130000000  0.3812930000000 1.0
C      1  0.4803970000000  0.4781990000000  0.6101010000000 1.0
C      1  0.5483260000000  0.4883650000000  0.5064610000000 1.0
C      1  0.5156580000000  0.4567620000000  0.5058150000000 1.0
C      1  0.4762830000000  0.4631980000000  0.5081970000000 1.0
C      1  0.4583320000000  0.5036740000000  0.4993140000000 1.0
C      1  0.4885490000000  0.5361440000000  0.5044030000000 1.0
C      1  0.5333610000000  0.5317970000000  0.4983060000000 1.0
C      1  0.4400260000000  0.5972540000000  0.4905090000000 1.0
C      1  0.5342410000000  0.5979860000000  0.4956000000000 1.0
C      1  0.6162410000000  0.4913860000000  0.4903500000000 1.0
C      1  0.5505710000000  0.4008620000000  0.5009610000000 1.0
C      1  0.4525020000000  0.3973730000000  0.4880300000000 1.0
C      1  0.3897970000000  0.4864570000000  0.4857340000000 1.0
C      1  0.4022300000000  0.4651760000000  0.4623800000000 1.0
C      1  0.4103110000000  0.5483740000000  0.5506500000000 1.0
C      1  0.5164380000000  0.5986570000000  0.4665990000000 1.0
C      1  0.5852340000000  0.5596830000000  0.5495400000000 1.0
C      1  0.5841030000000  0.4449150000000  0.4454250000000 1.0
C      1  0.5059970000000  0.3930250000000  0.5626750000000 1.0
C      1  0.5064600000000  0.4142140000000  0.4507390000000 1.0
C      1  0.4371390000000  0.4347100000000  0.5447800000000 1.0
C      1  0.4202090000000  0.5322100000000  0.4585880000000 1.0
C      1  0.4842170000000  0.5831270000000  0.5408160000000 1.0
C      1  0.5705810000000  0.5541560000000  0.4586940000000 1.0
C      1  0.5848000000000  0.4764890000000  0.5509160000000 1.0
C      1  0.4388550000000  0.5651820000000  0.5583930000000 1.0
C      1  0.5318640000000  0.5838960000000  0.4397280000000 1.0
C      1  0.5863420000000  0.5277130000000  0.5610800000000 1.0
C      1  0.5527170000000  0.4339910000000  0.4379570000000 1.0
C      1  0.4770990000000  0.4101550000000  0.5649860000000 1.0
C      1  0.4125920000000  0.4869910000000  0.4377320000000 1.0
C      1  0.5559900000000  0.5144270000000  0.4854130000000 1.0
C      1  0.5431360000000  0.4624530000000  0.5249440000000 1.0
C      1  0.4912870000000  0.4436130000000  0.4856360000000 1.0
C      1  0.4489730000000  0.4756660000000  0.5168410000000 1.0
C      1  0.4631260000000  0.5312410000000  0.4847570000000 1.0
C      1  0.5121590000000  0.5508880000000  0.5168960000000 1.0
C      1  0.4998590000000  0.4860440000000  0.4561810000000 1.0
C      1  0.4723500000000  0.5170660000000  0.5515190000000 1.0
C      1  0.5018180000000  0.5185510000000  0.4504610000000 1.0
C      1  0.5044420000000  0.5133070000000  0.5516400000000 1.0
C      1  0.5121890000000  0.4965980000000  0.4277150000000 1.0
C      1  0.5061870000000  0.4815920000000  0.5610220000000 1.0
C      1  0.4984380000000  0.5540060000000  0.4683150000000 1.0
C      1  0.5459760000000  0.5417130000000  0.5348910000000 1.0
C      1  0.5390220000000  0.4788420000000  0.4533200000000 1.0
C      1  0.5105600000000  0.4459780000000  0.5438860000000 1.0
C      1  0.4576050000000  0.4638940000000  0.4673180000000 1.0
C      1  0.4388070000000  0.5147210000000  0.5302100000000 1.0
C      1  0.5214370000000  0.5613950000000  0.5946850000000 1.0
C      1  0.5543300000000  0.5090220000000  0.4021220000000 1.0
C      1  0.5432780000000  0.4676920000000  0.6061060000000 1.0
C      1  0.4748840000000  0.4544030000000  0.4057740000000 1.0
C      1  0.4424750000000  0.4824590000000  0.5972700000000 1.0
C      1  0.4716870000000  0.5452480000000  0.4059140000000 1.0
C      1  0.4177090000000  0.4477030000000  0.4373940000000 1.0
C      1  0.4053770000000  0.5171040000000  0.5632860000000 1.0
C      1  0.4933620000000  0.5932920000000  0.4425450000000 1.0
C      1  0.5731370000000  0.5760750000000  0.5732820000000 1.0
C      1  0.5851830000000  0.4712830000000  0.4293140000000 1.0
C      1  0.5256030000000  0.4115420000000  0.5773960000000 1.0
C      1  0.6288690000000  0.5151970000000  0.4870700000000 1.0
C      1  0.5739350000000  0.4159650000000  0.4976020000000 1.0
C      1  0.4775610000000  0.3852320000000  0.4836610000000 1.0
C      1  0.3818750000000  0.4668240000000  0.5120100000000 1.0
C      1  0.4154400000000  0.5883790000000  0.4840250000000 1.0
C      1  0.5200040000000  0.6132780000000  0.5146970000000 1.0
C      1  0.5643760000000  0.5627080000000  0.5290230000000 1.0
C      1  0.6004350000000  0.4470820000000  0.4683900000000 1.0
C      1  0.5167240000000  0.3788470000000  0.5417330000000 1.0
C      1  0.4126280000000  0.4375290000000  0.4756260000000 1.0
C      1  0.4112300000000  0.5283550000000  0.5254370000000 1.0
C      1  0.4908080000000  0.6126510000000  0.4773430000000 1.0
C      1  0.3973070000000  0.5189690000000  0.4779650000000 1.0
C      1  0.4573860000000  0.5893700000000  0.5118880000000 1.0
C      1  0.5554470000000  0.6041000000000  0.4695890000000 1.0
C      1  0.6000820000000  0.4851330000000  0.5126950000000 1.0
C      1  0.5281310000000  0.4055440000000  0.4830280000000 1.0
C      1  0.4491440000000  0.4137250000000  0.5116000000000 1.0
C      1  0.4669020000000  0.4215520000000  0.5365890000000 1.0
C      1  0.4218680000000  0.4995340000000  0.4659240000000 1.0
C      1  0.4570680000000  0.5652390000000  0.5319640000000 1.0
C      1  0.5461390000000  0.5721800000000  0.4675610000000 1.0
C      1  0.5850240000000  0.5061760000000  0.5347510000000 1.0
C      1  0.5326030000000  0.4308600000000  0.4632860000000 1.0
C      1  0.4442360000000  0.4852980000000  0.4783660000000 1.0
C      1  0.4638800000000  0.5363250000000  0.5250760000000 1.0
C      1  0.5238550000000  0.5550800000000  0.4790410000000 1.0
C      1  0.5559350000000  0.5132280000000  0.5255680000000 1.0
C      1  0.5267820000000  0.4593570000000  0.4737380000000 1.0
C      1  0.4869680000000  0.4435160000000  0.5301730000000 1.0
C      1  0.6171890000000  0.4703740000000  0.4707770000000 1.0
C      1  0.5427810000000  0.3814180000000  0.5213010000000 1.0
C      1  0.4267840000000  0.4059500000000  0.4759510000000 1.0
C      1  0.3886700000000  0.5052400000000  0.5144110000000 1.0
C      1  0.4566540000000  0.6167250000000  0.4766900000000 1.0
C      1  0.5612160000000  0.5842640000000  0.5112580000000 1.0
C      1  0.4704960000000  0.4547720000000  0.5911610000000 1.0
C      1  0.4479510000000  0.5108630000000  0.4067610000000 1.0
C      1  0.4781630000000  0.5487040000000  0.5874600000000 1.0
C      1  0.5328840000000  0.5421630000000  0.4078350000000 1.0
C      1  0.5499390000000  0.5044940000000  0.5921470000000 1.0
C      1  0.5146680000000  0.4509970000000  0.4038830000000 1.0
C      1  0.5509090000000  0.5571520000000  0.4311600000000 1.0
C      1  0.5750710000000  0.4987620000000  0.5725270000000 1.0
C      1  0.5222000000000  0.4274750000000  0.4250650000000 1.0
C      1  0.4546950000000  0.4341950000000  0.5722910000000 1.0
C      1  0.4266630000000  0.5171730000000  0.4306360000000 1.0
C      1  0.4703880000000  0.5732750000000  0.5685480000000 1.0
C      1  0.4319400000000  0.5357400000000  0.5737070000000 1.0
C      1  0.5071190000000  0.5816990000000  0.4184190000000 1.0
C      1  0.5709380000000  0.5474190000000  0.5841980000000 1.0
C      1  0.5575950000000  0.4625480000000  0.4219300000000 1.0
C      1  0.5004610000000  0.4276730000000  0.5810860000000 1.0
C      1  0.4251800000000  0.4674400000000  0.4155590000000 1.0
C      1  0.4797050000000  0.4997920000000  0.5236170000000 1.0
C      1  0.5002210000000  0.5150520000000  0.4835320000000 1.0
C      1  0.5215670000000  0.5125450000000  0.5232570000000 1.0
C      1  0.5237030000000  0.4910950000000  0.4877220000000 1.0
C      1  0.5069270000000  0.4820140000000  0.5269410000000 1.0
C      1  0.4909650000000  0.4832060000000  0.4890400000000 1.0
C      1  0.4970040000000  0.4980730000000  0.5877420000000 1.0
C      1  0.5001430000000  0.5010230000000  0.3985290000000 1.0
END
