TITL C-2782233-7966-444 0.00121553736930894 125000 -766.076995319853 0 0 129 (C1) n - 1
REM
REM in /home/nfs/bkarasulu/CARBON/AIRSS/Generating-Clusters/REBO/Higher-Symm/SD-CG/HFTN-CG
REM
REM
REM
REM
REM
REM ./C.cell (12c818d87b63d06a65506943cc24bca4)
REM
REM compiler GCC version 9.2.1 20190827 (Red Hat 9.2.1-1)
REM options -cpp -mtune=generic -march=x86-64 -g -O0 -fpre-include=/usr/include/finclude/math-vector-fortran.h
REM seed -1722944571 -376289406 1188379155 -1409871702 -1782821737 1831669025 1637946923 -1159987814 -2052358269 -1963484432 -1243178717 370768466 736036776 95448093 1273968766 -1586577814 -293802430 488706347 -12821168 308065951 1182846854 130698190 -740889772 1620809000 97032835 555269283 1665406575 1754695778 -967347041 797452291 796041344 -1597050688 -1910893336
REM
CELL 1.54180   50.00000   50.00000   50.00000   90.00000   90.00000   90.00000
LATT -1
SFAC C  
C      1  0.5487880000000  0.5169420000000  0.5058930000000 1.0
C      1  0.5474990000000  0.4844340000000  0.5117340000000 1.0
C      1  0.5484010000000  0.4940370000000  0.4729200000000 1.0
C      1  0.4461310000000  0.4672910000000  0.5072920000000 1.0
C      1  0.4479020000000  0.5139950000000  0.5243400000000 1.0
C      1  0.4451460000000  0.5019300000000  0.4751080000000 1.0
C      1  0.5276430000000  0.4196690000000  0.5265150000000 1.0
C      1  0.5277300000000  0.5219310000000  0.4122100000000 1.0
C      1  0.5309690000000  0.5714460000000  0.5568770000000 1.0
C      1  0.4769530000000  0.5924440000000  0.5169530000000 1.0
C      1  0.4739650000000  0.4773160000000  0.4145030000000 1.0
C      1  0.4706950000000  0.4357040000000  0.5638580000000 1.0
C      1  0.5162730000000  0.4228790000000  0.4754570000000 1.0
C      1  0.5158900000000  0.5685060000000  0.4398130000000 1.0
C      1  0.5280650000000  0.5235290000000  0.5764320000000 1.0
C      1  0.4916540000000  0.5803150000000  0.4692880000000 1.0
C      1  0.4850280000000  0.4292290000000  0.4370530000000 1.0
C      1  0.4760630000000  0.4867200000000  0.5745810000000 1.0
C      1  0.4236120000000  0.4594770000000  0.5532580000000 1.0
C      1  0.4325770000000  0.4491150000000  0.4584680000000 1.0
C      1  0.4522940000000  0.5540260000000  0.4803100000000 1.0
C      1  0.5851200000000  0.4821120000000  0.6089740000000 1.0
C      1  0.5638170000000  0.5502690000000  0.4542570000000 1.0
C      1  0.5608840000000  0.4404190000000  0.4833730000000 1.0
C      1  0.5253630000000  0.5057140000000  0.5270020000000 1.0
C      1  0.5276810000000  0.4721610000000  0.4891530000000 1.0
C      1  0.5280940000000  0.5205610000000  0.4790640000000 1.0
C      1  0.4679540000000  0.4932410000000  0.5260610000000 1.0
C      1  0.4645000000000  0.5266430000000  0.4884140000000 1.0
C      1  0.4665700000000  0.4781070000000  0.4823100000000 1.0
C      1  0.4831290000000  0.5250740000000  0.4471440000000 1.0
C      1  0.4855170000000  0.5351930000000  0.5486320000000 1.0
C      1  0.4756130000000  0.4412060000000  0.5017690000000 1.0
C      1  0.5097480000000  0.4746800000000  0.4428350000000 1.0
C      1  0.5213500000000  0.4720240000000  0.5483480000000 1.0
C      1  0.5284140000000  0.5534950000000  0.5036020000000 1.0
C      1  0.4475920000000  0.5701660000000  0.5016920000000 1.0
C      1  0.4310650000000  0.4363810000000  0.5587380000000 1.0
C      1  0.4393010000000  0.4502630000000  0.4320750000000 1.0
C      1  0.5676080000000  0.4141990000000  0.4872570000000 1.0
C      1  0.6011770000000  0.4867270000000  0.6291650000000 1.0
C      1  0.5692540000000  0.5513180000000  0.4283350000000 1.0
C      1  0.5545250000000  0.4665720000000  0.5447500000000 1.0
C      1  0.5607440000000  0.4965090000000  0.4409200000000 1.0
C      1  0.5595620000000  0.5564430000000  0.5143390000000 1.0
C      1  0.4527960000000  0.5395470000000  0.5435590000000 1.0
C      1  0.4393670000000  0.5037710000000  0.4416410000000 1.0
C      1  0.4446810000000  0.4345810000000  0.5103140000000 1.0
C      1  0.5440360000000  0.5772810000000  0.5316610000000 1.0
C      1  0.5414200000000  0.4378890000000  0.5434000000000 1.0
C      1  0.5432840000000  0.4987130000000  0.4196260000000 1.0
C      1  0.4522560000000  0.4220780000000  0.5399390000000 1.0
C      1  0.4583610000000  0.5704470000000  0.5330380000000 1.0
C      1  0.4585210000000  0.5007210000000  0.4218480000000 1.0
C      1  0.5718910000000  0.4833030000000  0.5596900000000 1.0
C      1  0.5766680000000  0.4741890000000  0.4527660000000 1.0
C      1  0.5777070000000  0.5649220000000  0.4917010000000 1.0
C      1  0.4250680000000  0.5272300000000  0.5553810000000 1.0
C      1  0.4257360000000  0.5283330000000  0.4522680000000 1.0
C      1  0.4185440000000  0.4290870000000  0.4926440000000 1.0
C      1  0.4652040000000  0.5111620000000  0.5843100000000 1.0
C      1  0.4693840000000  0.4106750000000  0.4558040000000 1.0
C      1  0.4833560000000  0.5747460000000  0.4398510000000 1.0
C      1  0.5354130000000  0.4999210000000  0.5909030000000 1.0
C      1  0.5312450000000  0.5885470000000  0.4559190000000 1.0
C      1  0.5171800000000  0.4286800000000  0.4457480000000 1.0
C      1  0.4228130000000  0.4772340000000  0.4726570000000 1.0
C      1  0.4272170000000  0.5192920000000  0.5060720000000 1.0
C      1  0.4271270000000  0.4797480000000  0.5301340000000 1.0
C      1  0.5670400000000  0.5223460000000  0.4701490000000 1.0
C      1  0.5682850000000  0.4611040000000  0.5029130000000 1.0
C      1  0.5701580000000  0.5297080000000  0.5252990000000 1.0
C      1  0.3953770000000  0.4818510000000  0.4916070000000 1.0
C      1  0.3966280000000  0.5306290000000  0.5045660000000 1.0
C      1  0.3996820000000  0.4923130000000  0.5166580000000 1.0
C      1  0.5982940000000  0.5118610000000  0.4733400000000 1.0
C      1  0.5947290000000  0.4704250000000  0.4974050000000 1.0
C      1  0.5973320000000  0.5331960000000  0.5454840000000 1.0
C      1  0.4796970000000  0.4969790000000  0.4566280000000 1.0
C      1  0.4812550000000  0.5375040000000  0.5160880000000 1.0
C      1  0.4836040000000  0.4637650000000  0.5195170000000 1.0
C      1  0.5134580000000  0.5007390000000  0.4554840000000 1.0
C      1  0.5135150000000  0.4649310000000  0.5196630000000 1.0
C      1  0.5130690000000  0.5366900000000  0.5197960000000 1.0
C      1  0.4669440000000  0.4045840000000  0.4887710000000 1.0
C      1  0.4634830000000  0.5563430000000  0.4321230000000 1.0
C      1  0.4669590000000  0.5448260000000  0.5825520000000 1.0
C      1  0.5346850000000  0.5949900000000  0.4876720000000 1.0
C      1  0.5374870000000  0.4464960000000  0.4374010000000 1.0
C      1  0.5383520000000  0.4692420000000  0.5905270000000 1.0
C      1  0.4921870000000  0.4404140000000  0.4772350000000 1.0
C      1  0.5007650000000  0.5433870000000  0.4572380000000 1.0
C      1  0.5061770000000  0.5180040000000  0.5598050000000 1.0
C      1  0.5146460000000  0.5613350000000  0.4798840000000 1.0
C      1  0.4908530000000  0.4577260000000  0.4532290000000 1.0
C      1  0.5000380000000  0.4907190000000  0.5601170000000 1.0
C      1  0.5018870000000  0.5963750000000  0.5297300000000 1.0
C      1  0.4976930000000  0.4281980000000  0.5616260000000 1.0
C      1  0.4995280000000  0.4851040000000  0.4056400000000 1.0
C      1  0.5021190000000  0.4138280000000  0.5373720000000 1.0
C      1  0.5039390000000  0.5821450000000  0.5551410000000 1.0
C      1  0.5015520000000  0.5136340000000  0.4046370000000 1.0
C      1  0.5584830000000  0.5774420000000  0.4707450000000 1.0
C      1  0.5681410000000  0.4772320000000  0.5876230000000 1.0
C      1  0.5595560000000  0.4508530000000  0.4559180000000 1.0
C      1  0.4425990000000  0.4218930000000  0.4725140000000 1.0
C      1  0.4387190000000  0.5291870000000  0.5814840000000 1.0
C      1  0.4434340000000  0.5514760000000  0.4524630000000 1.0
C      1  0.4766150000000  0.4122470000000  0.5189760000000 1.0
C      1  0.4747610000000  0.5286930000000  0.4158420000000 1.0
C      1  0.4785610000000  0.5651790000000  0.5601340000000 1.0
C      1  0.5273660000000  0.5945150000000  0.5148180000000 1.0
C      1  0.5274850000000  0.4707930000000  0.4160990000000 1.0
C      1  0.5233480000000  0.4471000000000  0.5706950000000 1.0
C      1  0.5295400000000  0.4161690000000  0.4988280000000 1.0
C      1  0.5303930000000  0.5492120000000  0.4194230000000 1.0
C      1  0.5375610000000  0.5500020000000  0.5741600000000 1.0
C      1  0.4769190000000  0.5941270000000  0.4889320000000 1.0
C      1  0.4658790000000  0.4516190000000  0.4227050000000 1.0
C      1  0.4651890000000  0.4607850000000  0.5750160000000 1.0
C      1  0.4121690000000  0.5080460000000  0.5412870000000 1.0
C      1  0.4035840000000  0.4518090000000  0.4857030000000 1.0
C      1  0.4120860000000  0.5243300000000  0.4769370000000 1.0
C      1  0.5807390000000  0.5067730000000  0.5483130000000 1.0
C      1  0.5919240000000  0.5421550000000  0.4814140000000 1.0
C      1  0.5972620000000  0.4833340000000  0.4719470000000 1.0
C      1  0.4963250000000  0.5169640000000  0.4869020000000 1.0
C      1  0.4983640000000  0.4832990000000  0.4881060000000 1.0
C      1  0.4967120000000  0.5008660000000  0.5157780000000 1.0
END
