TITL C-2782227-3064-1240 -0.00268368469252407 125000 -620.150916488954 0 0 108 (C1) n - 1
REM
REM in /home/nfs/bkarasulu/CARBON/AIRSS/Generating-Clusters/REBO/Higher-Symm/SD-CG/HFTN-CG
REM
REM
REM
REM
REM
REM ./C.cell (12c818d87b63d06a65506943cc24bca4)
REM
REM compiler GCC version 9.2.1 20190827 (Red Hat 9.2.1-1)
REM options -cpp -mtune=generic -march=x86-64 -g -O0 -fpre-include=/usr/include/finclude/math-vector-fortran.h
REM seed 378263234 -2060268433 159417794 751148020 -770201436 1573665125 -1244693377 -1923237581 508225973 -325044258 1727540583 -2135004308 378042364 680086154 -696615823 1516192342 1943267908 -2144918546 1614929198 841698029 138933290 -2066502305 -1016394775 -2131931225 -2009827908 -143998018 1506296928 345864967 -1276900406 2000217753 -1645724190 -1964357548 -1780841192
REM
CELL 1.54180   50.00000   50.00000   50.00000   90.00000   90.00000   90.00000
LATT -1
SFAC C  
C      1  0.5792640000000  0.4528860000000  0.5051340000000 1.0
C      1  0.4208720000000  0.5483460000000  0.4959950000000 1.0
C      1  0.4597120000000  0.4911160000000  0.4087460000000 1.0
C      1  0.5397210000000  0.5081880000000  0.5936870000000 1.0
C      1  0.4274510000000  0.4712070000000  0.4481110000000 1.0
C      1  0.5716270000000  0.5292790000000  0.5526510000000 1.0
C      1  0.5124060000000  0.4126760000000  0.5188170000000 1.0
C      1  0.4877040000000  0.5877870000000  0.4806360000000 1.0
C      1  0.5297050000000  0.4372150000000  0.4465670000000 1.0
C      1  0.4700590000000  0.5627270000000  0.5528210000000 1.0
C      1  0.5525170000000  0.4379530000000  0.5076590000000 1.0
C      1  0.4476430000000  0.5631160000000  0.4925960000000 1.0
C      1  0.4974310000000  0.5369420000000  0.4657830000000 1.0
C      1  0.5024660000000  0.4627570000000  0.5351240000000 1.0
C      1  0.5380760000000  0.5491510000000  0.5612810000000 1.0
C      1  0.4646180000000  0.4490660000000  0.4356590000000 1.0
C      1  0.5526140000000  0.5259120000000  0.4873950000000 1.0
C      1  0.4476350000000  0.4750190000000  0.5119360000000 1.0
C      1  0.4517540000000  0.5237020000000  0.4877560000000 1.0
C      1  0.5464730000000  0.4778790000000  0.5141290000000 1.0
C      1  0.4670570000000  0.5574590000000  0.5194180000000 1.0
C      1  0.5343840000000  0.4429710000000  0.4797960000000 1.0
C      1  0.4807020000000  0.4815250000000  0.5844440000000 1.0
C      1  0.5184930000000  0.5186280000000  0.4158750000000 1.0
C      1  0.4913630000000  0.5021550000000  0.4080000000000 1.0
C      1  0.5077390000000  0.4976320000000  0.5929050000000 1.0
C      1  0.5518030000000  0.5902960000000  0.5105180000000 1.0
C      1  0.4490370000000  0.4108570000000  0.4886860000000 1.0
C      1  0.5428490000000  0.5374440000000  0.4607550000000 1.0
C      1  0.4573610000000  0.4633370000000  0.5385740000000 1.0
C      1  0.5173230000000  0.4913300000000  0.4560190000000 1.0
C      1  0.4819040000000  0.5081880000000  0.5438910000000 1.0
C      1  0.5284350000000  0.4781090000000  0.5612510000000 1.0
C      1  0.4715550000000  0.5195320000000  0.4407890000000 1.0
C      1  0.4713580000000  0.5512090000000  0.4391540000000 1.0
C      1  0.5282860000000  0.4473140000000  0.5614250000000 1.0
C      1  0.5276720000000  0.5114840000000  0.5279030000000 1.0
C      1  0.4712350000000  0.4933240000000  0.4706830000000 1.0
C      1  0.5056430000000  0.4571130000000  0.4792820000000 1.0
C      1  0.4955550000000  0.5432940000000  0.5186670000000 1.0
C      1  0.5054310000000  0.4359600000000  0.5781230000000 1.0
C      1  0.4940140000000  0.5616630000000  0.4215850000000 1.0
C      1  0.5509430000000  0.4133330000000  0.4854140000000 1.0
C      1  0.4500250000000  0.5872360000000  0.5151160000000 1.0
C      1  0.3842210000000  0.4927320000000  0.4936800000000 1.0
C      1  0.6143740000000  0.5059510000000  0.5078540000000 1.0
C      1  0.4456600000000  0.5124790000000  0.4587820000000 1.0
C      1  0.5519980000000  0.4882910000000  0.5424090000000 1.0
C      1  0.5438890000000  0.5186380000000  0.4383890000000 1.0
C      1  0.4559490000000  0.4815890000000  0.5612970000000 1.0
C      1  0.5197690000000  0.5545300000000  0.4664290000000 1.0
C      1  0.4799690000000  0.4456580000000  0.5329560000000 1.0
C      1  0.5117950000000  0.5500360000000  0.5472690000000 1.0
C      1  0.4905010000000  0.4477370000000  0.4503150000000 1.0
C      1  0.4796590000000  0.4853920000000  0.4426460000000 1.0
C      1  0.5236790000000  0.5120420000000  0.5573910000000 1.0
C      1  0.5076690000000  0.5267770000000  0.5793010000000 1.0
C      1  0.4931140000000  0.4717840000000  0.4186460000000 1.0
C      1  0.5186600000000  0.5679990000000  0.5125710000000 1.0
C      1  0.4821900000000  0.4330390000000  0.4861830000000 1.0
C      1  0.4351800000000  0.4263310000000  0.5074890000000 1.0
C      1  0.5660150000000  0.5741270000000  0.4926270000000 1.0
C      1  0.4954560000000  0.4844220000000  0.5562750000000 1.0
C      1  0.5045260000000  0.5158460000000  0.4443210000000 1.0
C      1  0.4099730000000  0.4976540000000  0.4854070000000 1.0
C      1  0.5883270000000  0.5019030000000  0.5156810000000 1.0
C      1  0.4570750000000  0.4304500000000  0.4631370000000 1.0
C      1  0.5432470000000  0.5715120000000  0.5360320000000 1.0
C      1  0.4854190000000  0.5118030000000  0.5150780000000 1.0
C      1  0.5152500000000  0.4891180000000  0.4852500000000 1.0
C      1  0.4336670000000  0.5031090000000  0.5055280000000 1.0
C      1  0.5648370000000  0.4971460000000  0.4950550000000 1.0
C      1  0.4866640000000  0.4248020000000  0.5147590000000 1.0
C      1  0.5136200000000  0.5759510000000  0.4840680000000 1.0
C      1  0.5557960000000  0.4927720000000  0.4453120000000 1.0
C      1  0.4435170000000  0.5073340000000  0.5549420000000 1.0
C      1  0.5158230000000  0.4548960000000  0.4209130000000 1.0
C      1  0.4860170000000  0.5444970000000  0.5768090000000 1.0
C      1  0.4319880000000  0.4531770000000  0.4974590000000 1.0
C      1  0.5678760000000  0.5472500000000  0.5029650000000 1.0
C      1  0.5235040000000  0.3981430000000  0.4961240000000 1.0
C      1  0.4773460000000  0.6020740000000  0.5038600000000 1.0
C      1  0.5877140000000  0.4666500000000  0.4830770000000 1.0
C      1  0.4122020000000  0.5344760000000  0.5178690000000 1.0
C      1  0.4863060000000  0.4264590000000  0.5920950000000 1.0
C      1  0.5129610000000  0.5704050000000  0.4068930000000 1.0
C      1  0.4470270000000  0.4700960000000  0.4256270000000 1.0
C      1  0.5532990000000  0.5291020000000  0.5778400000000 1.0
C      1  0.4206870000000  0.4967400000000  0.4588300000000 1.0
C      1  0.5771810000000  0.5034160000000  0.5420680000000 1.0
C      1  0.5039340000000  0.5798160000000  0.5406210000000 1.0
C      1  0.4968550000000  0.4184100000000  0.4592030000000 1.0
C      1  0.4254620000000  0.5133500000000  0.5343240000000 1.0
C      1  0.5734400000000  0.4867960000000  0.4662680000000 1.0
C      1  0.5655010000000  0.5479990000000  0.5322050000000 1.0
C      1  0.4335920000000  0.4523440000000  0.4686180000000 1.0
C      1  0.4730040000000  0.4918010000000  0.4987590000000 1.0
C      1  0.5273120000000  0.5099690000000  0.5002710000000 1.0
C      1  0.4445800000000  0.5720200000000  0.4397690000000 1.0
C      1  0.5549760000000  0.4264310000000  0.5599820000000 1.0
C      1  0.4634050000000  0.5302800000000  0.5590120000000 1.0
C      1  0.5358780000000  0.4698700000000  0.4409760000000 1.0
C      1  0.5228220000000  0.4642410000000  0.5155050000000 1.0
C      1  0.4763010000000  0.5358290000000  0.4845350000000 1.0
C      1  0.4759210000000  0.5922540000000  0.5365930000000 1.0
C      1  0.5256170000000  0.4077670000000  0.4633990000000 1.0
C      1  0.5352340000000  0.4303160000000  0.5325130000000 1.0
C      1  0.4646560000000  0.5698550000000  0.4671820000000 1.0
END
