TITL C-2782230-7391-1015 0.00312129189745066 125000 -1120.2271705447 0 0 190 (C1) n - 1
REM
REM in /home/nfs/bkarasulu/CARBON/AIRSS/Generating-Clusters/REBO/Higher-Symm/SD-CG/HFTN-CG
REM
REM
REM
REM
REM
REM ./C.cell (12c818d87b63d06a65506943cc24bca4)
REM
REM compiler GCC version 9.2.1 20190827 (Red Hat 9.2.1-1)
REM options -cpp -mtune=generic -march=x86-64 -g -O0 -fpre-include=/usr/include/finclude/math-vector-fortran.h
REM seed -2117417684 -912003877 2037011666 -254294594 2123185529 -1601179658 -2104236299 -666019467 1810343434 2128052927 1328979693 -871857456 -507157539 -1681118331 1593992420 -1709259945 -2041230371 -1030517289 823066397 -459041364 -189634040 -346049945 -1483834560 -836348411 -293953660 -2002714471 598313604 -455022514 -1775874330 675075171 2130621558 649243478 743598163
REM
CELL 1.54180   50.00000   50.00000   50.00000   90.00000   90.00000   90.00000
LATT -1
SFAC C  
C      1  0.6016870000000  0.4697790000000  0.4720690000000 1.0
C      1  0.4062380000000  0.5323230000000  0.4703620000000 1.0
C      1  0.5627700000000  0.4206050000000  0.5338270000000 1.0
C      1  0.4329620000000  0.5870890000000  0.5420150000000 1.0
C      1  0.5167860000000  0.3882620000000  0.5073260000000 1.0
C      1  0.4812090000000  0.6136830000000  0.5083780000000 1.0
C      1  0.5828990000000  0.5242750000000  0.5279360000000 1.0
C      1  0.4108610000000  0.4724960000000  0.5236810000000 1.0
C      1  0.5318960000000  0.4570750000000  0.4206580000000 1.0
C      1  0.4532320000000  0.5456860000000  0.4140700000000 1.0
C      1  0.4613920000000  0.5899060000000  0.5604690000000 1.0
C      1  0.5405230000000  0.4115500000000  0.5581900000000 1.0
C      1  0.4210490000000  0.5715830000000  0.4437300000000 1.0
C      1  0.5670960000000  0.4528340000000  0.4616900000000 1.0
C      1  0.5438410000000  0.5828840000000  0.4292840000000 1.0
C      1  0.4560350000000  0.4149490000000  0.4270020000000 1.0
C      1  0.4112140000000  0.5719660000000  0.5435880000000 1.0
C      1  0.5819340000000  0.4436310000000  0.5213720000000 1.0
C      1  0.4437600000000  0.5190240000000  0.4100430000000 1.0
C      1  0.5710260000000  0.4887410000000  0.3997020000000 1.0
C      1  0.5772940000000  0.4831660000000  0.5234770000000 1.0
C      1  0.4142970000000  0.5230850000000  0.5249610000000 1.0
C      1  0.4409600000000  0.4528150000000  0.5878260000000 1.0
C      1  0.5688220000000  0.5405920000000  0.5905510000000 1.0
C      1  0.5271360000000  0.4879920000000  0.4498950000000 1.0
C      1  0.4509410000000  0.5286300000000  0.4620990000000 1.0
C      1  0.5114330000000  0.4537770000000  0.3866690000000 1.0
C      1  0.4953330000000  0.5399910000000  0.3945610000000 1.0
C      1  0.5369390000000  0.3990350000000  0.4821110000000 1.0
C      1  0.4594880000000  0.5967140000000  0.4879650000000 1.0
C      1  0.4531570000000  0.4599740000000  0.4471290000000 1.0
C      1  0.5569840000000  0.5284000000000  0.4327960000000 1.0
C      1  0.4272280000000  0.5093190000000  0.4302130000000 1.0
C      1  0.5772180000000  0.4810480000000  0.4260290000000 1.0
C      1  0.5160010000000  0.4796150000000  0.5224380000000 1.0
C      1  0.4764410000000  0.5224340000000  0.5220270000000 1.0
C      1  0.4341380000000  0.5457090000000  0.5631640000000 1.0
C      1  0.5696920000000  0.4490620000000  0.5740980000000 1.0
C      1  0.4845130000000  0.6009110000000  0.5397530000000 1.0
C      1  0.5151310000000  0.3974390000000  0.5403060000000 1.0
C      1  0.5063650000000  0.5497440000000  0.4492730000000 1.0
C      1  0.4991830000000  0.4348490000000  0.4520720000000 1.0
C      1  0.4999380000000  0.5735200000000  0.4931140000000 1.0
C      1  0.5021750000000  0.4191880000000  0.4866960000000 1.0
C      1  0.4098010000000  0.4913710000000  0.4787660000000 1.0
C      1  0.5820060000000  0.5157810000000  0.4800370000000 1.0
C      1  0.5500980000000  0.5072890000000  0.4879970000000 1.0
C      1  0.4472130000000  0.4880540000000  0.4917410000000 1.0
C      1  0.4769230000000  0.5587740000000  0.4063340000000 1.0
C      1  0.5254430000000  0.4310130000000  0.4055680000000 1.0
C      1  0.5825440000000  0.4849220000000  0.4927640000000 1.0
C      1  0.4006810000000  0.5183320000000  0.4979810000000 1.0
C      1  0.5533960000000  0.4688240000000  0.4398180000000 1.0
C      1  0.4477050000000  0.5523770000000  0.4419100000000 1.0
C      1  0.3687620000000  0.4833480000000  0.5034670000000 1.0
C      1  0.6229290000000  0.5037630000000  0.5047400000000 1.0
C      1  0.3693670000000  0.5115290000000  0.5024450000000 1.0
C      1  0.6263340000000  0.4810390000000  0.4895640000000 1.0
C      1  0.5510840000000  0.4763680000000  0.4942110000000 1.0
C      1  0.4479570000000  0.5195030000000  0.4941920000000 1.0
C      1  0.4381350000000  0.4546280000000  0.4751500000000 1.0
C      1  0.5549700000000  0.5459120000000  0.4824040000000 1.0
C      1  0.5100840000000  0.4690830000000  0.6053640000000 1.0
C      1  0.4973530000000  0.5305760000000  0.6033290000000 1.0
C      1  0.4942380000000  0.5836190000000  0.5680570000000 1.0
C      1  0.5081990000000  0.4189810000000  0.5663810000000 1.0
C      1  0.5356160000000  0.5526050000000  0.5313650000000 1.0
C      1  0.4606310000000  0.4563310000000  0.5347760000000 1.0
C      1  0.5256600000000  0.6179200000000  0.4794100000000 1.0
C      1  0.4659000000000  0.3898040000000  0.4709070000000 1.0
C      1  0.4759120000000  0.5590190000000  0.4576700000000 1.0
C      1  0.5303060000000  0.4350840000000  0.4665400000000 1.0
C      1  0.3978320000000  0.4621470000000  0.5451620000000 1.0
C      1  0.5859960000000  0.5444080000000  0.5473520000000 1.0
C      1  0.4645420000000  0.5199570000000  0.5600450000000 1.0
C      1  0.5335410000000  0.4830720000000  0.5576990000000 1.0
C      1  0.4024300000000  0.5149410000000  0.4477040000000 1.0
C      1  0.5969400000000  0.4889290000000  0.4452650000000 1.0
C      1  0.4329030000000  0.4437280000000  0.5501130000000 1.0
C      1  0.5639310000000  0.5651940000000  0.5454790000000 1.0
C      1  0.5483910000000  0.5789790000000  0.5708010000000 1.0
C      1  0.4578720000000  0.4320030000000  0.5700660000000 1.0
C      1  0.4728000000000  0.5910840000000  0.4573640000000 1.0
C      1  0.5242890000000  0.4039460000000  0.4534740000000 1.0
C      1  0.5108880000000  0.4095180000000  0.4234620000000 1.0
C      1  0.4892140000000  0.5820280000000  0.4280900000000 1.0
C      1  0.4784740000000  0.4198230000000  0.5560100000000 1.0
C      1  0.5249000000000  0.5912020000000  0.5613930000000 1.0
C      1  0.5229040000000  0.5146330000000  0.5968720000000 1.0
C      1  0.4845520000000  0.4831790000000  0.6016460000000 1.0
C      1  0.4048230000000  0.4806180000000  0.4464280000000 1.0
C      1  0.5953120000000  0.5193530000000  0.4517630000000 1.0
C      1  0.4886770000000  0.5123520000000  0.3995090000000 1.0
C      1  0.5255870000000  0.4791600000000  0.3847600000000 1.0
C      1  0.5204400000000  0.4387630000000  0.5079580000000 1.0
C      1  0.4822400000000  0.5541950000000  0.5149050000000 1.0
C      1  0.5349880000000  0.4136980000000  0.5190820000000 1.0
C      1  0.4551350000000  0.5976620000000  0.5218800000000 1.0
C      1  0.5013050000000  0.4797290000000  0.4790680000000 1.0
C      1  0.5027240000000  0.5091510000000  0.4743010000000 1.0
C      1  0.4586520000000  0.4719720000000  0.4154210000000 1.0
C      1  0.5409080000000  0.5245750000000  0.4081870000000 1.0
C      1  0.4448780000000  0.5181810000000  0.5340050000000 1.0
C      1  0.5612520000000  0.4687780000000  0.5477070000000 1.0
C      1  0.4318800000000  0.4981170000000  0.5781800000000 1.0
C      1  0.5736100000000  0.5000720000000  0.5871180000000 1.0
C      1  0.5684270000000  0.5716420000000  0.4235650000000 1.0
C      1  0.4347520000000  0.4326070000000  0.4247000000000 1.0
C      1  0.5045480000000  0.5228110000000  0.5043180000000 1.0
C      1  0.4923940000000  0.4733070000000  0.5076910000000 1.0
C      1  0.5445670000000  0.4988580000000  0.3944040000000 1.0
C      1  0.4629570000000  0.5003040000000  0.4022210000000 1.0
C      1  0.4365650000000  0.4995050000000  0.4615020000000 1.0
C      1  0.5492770000000  0.5260480000000  0.4595260000000 1.0
C      1  0.4329840000000  0.4218310000000  0.4967470000000 1.0
C      1  0.5621360000000  0.5833960000000  0.4937610000000 1.0
C      1  0.5191380000000  0.5661820000000  0.4243160000000 1.0
C      1  0.4831840000000  0.4281270000000  0.4227330000000 1.0
C      1  0.5282890000000  0.5918860000000  0.5325840000000 1.0
C      1  0.4711750000000  0.4185380000000  0.5284070000000 1.0
C      1  0.4415790000000  0.4232200000000  0.5242400000000 1.0
C      1  0.5551100000000  0.5859840000000  0.5211740000000 1.0
C      1  0.5536520000000  0.5086240000000  0.5666720000000 1.0
C      1  0.4476960000000  0.4814960000000  0.5607710000000 1.0
C      1  0.4836330000000  0.4663820000000  0.5523140000000 1.0
C      1  0.5179100000000  0.5397900000000  0.5544130000000 1.0
C      1  0.4853640000000  0.4398840000000  0.5082100000000 1.0
C      1  0.5090920000000  0.5698750000000  0.5231570000000 1.0
C      1  0.5426800000000  0.5332700000000  0.5092150000000 1.0
C      1  0.4560940000000  0.4565980000000  0.5013700000000 1.0
C      1  0.5322690000000  0.4876550000000  0.6083180000000 1.0
C      1  0.4765940000000  0.5108580000000  0.6039120000000 1.0
C      1  0.5990000000000  0.5188710000000  0.5058900000000 1.0
C      1  0.3961850000000  0.4748270000000  0.5005450000000 1.0
C      1  0.5396150000000  0.5346160000000  0.5783190000000 1.0
C      1  0.4689740000000  0.4687070000000  0.5812290000000 1.0
C      1  0.5982690000000  0.5516630000000  0.4619930000000 1.0
C      1  0.3922670000000  0.4562670000000  0.4653900000000 1.0
C      1  0.5411920000000  0.4438150000000  0.5579450000000 1.0
C      1  0.4561910000000  0.5589580000000  0.5583850000000 1.0
C      1  0.4271400000000  0.4658260000000  0.4278360000000 1.0
C      1  0.5842350000000  0.5452480000000  0.4321080000000 1.0
C      1  0.4848930000000  0.5455790000000  0.5575230000000 1.0
C      1  0.5121040000000  0.4575960000000  0.5569740000000 1.0
C      1  0.4683180000000  0.4347340000000  0.4595180000000 1.0
C      1  0.5201230000000  0.5632550000000  0.4736640000000 1.0
C      1  0.4832590000000  0.4538870000000  0.4058320000000 1.0
C      1  0.5220100000000  0.5452460000000  0.4028490000000 1.0
C      1  0.6106950000000  0.4809210000000  0.5598620000000 1.0
C      1  0.3956560000000  0.5154930000000  0.5524450000000 1.0
C      1  0.4497530000000  0.5203950000000  0.5902280000000 1.0
C      1  0.5605920000000  0.4823530000000  0.6055250000000 1.0
C      1  0.4372080000000  0.4861450000000  0.5301850000000 1.0
C      1  0.5571700000000  0.5064660000000  0.5349930000000 1.0
C      1  0.4368440000000  0.5415360000000  0.6027920000000 1.0
C      1  0.5694620000000  0.4557910000000  0.6004320000000 1.0
C      1  0.5908490000000  0.5334420000000  0.5734470000000 1.0
C      1  0.4144840000000  0.4626050000000  0.5722560000000 1.0
C      1  0.5126740000000  0.4453750000000  0.5875430000000 1.0
C      1  0.4953470000000  0.5552040000000  0.5869640000000 1.0
C      1  0.4998600000000  0.4658750000000  0.4505250000000 1.0
C      1  0.5125910000000  0.5184890000000  0.4459370000000 1.0
C      1  0.3997650000000  0.5466930000000  0.5431310000000 1.0
C      1  0.6000190000000  0.4661920000000  0.5393910000000 1.0
C      1  0.4783250000000  0.5278850000000  0.4825210000000 1.0
C      1  0.5314380000000  0.4655120000000  0.4744330000000 1.0
C      1  0.4635070000000  0.3896910000000  0.4400070000000 1.0
C      1  0.5360010000000  0.6053300000000  0.4496800000000 1.0
C      1  0.5419570000000  0.5822630000000  0.4720290000000 1.0
C      1  0.4550710000000  0.4160760000000  0.4773380000000 1.0
C      1  0.5558790000000  0.4246820000000  0.4870600000000 1.0
C      1  0.4500320000000  0.5666030000000  0.4791950000000 1.0
C      1  0.4853720000000  0.4976880000000  0.5590780000000 1.0
C      1  0.5137950000000  0.5075640000000  0.5646610000000 1.0
C      1  0.5020200000000  0.6045600000000  0.4505560000000 1.0
C      1  0.4960850000000  0.3875850000000  0.4451190000000 1.0
C      1  0.6013330000000  0.5032560000000  0.5754420000000 1.0
C      1  0.4037920000000  0.4952880000000  0.5698620000000 1.0
C      1  0.4987470000000  0.6036100000000  0.4849160000000 1.0
C      1  0.4975490000000  0.3890740000000  0.4792310000000 1.0
C      1  0.4113040000000  0.4415050000000  0.4811770000000 1.0
C      1  0.5811690000000  0.5613510000000  0.4821750000000 1.0
C      1  0.5833730000000  0.4452240000000  0.4873050000000 1.0
C      1  0.4199350000000  0.5572770000000  0.4699880000000 1.0
C      1  0.5066000000000  0.5018200000000  0.4184790000000 1.0
C      1  0.5047270000000  0.4728230000000  0.4208820000000 1.0
C      1  0.5277670000000  0.5055960000000  0.5208850000000 1.0
C      1  0.4684030000000  0.4912940000000  0.5164570000000 1.0
C      1  0.5505700000000  0.4498330000000  0.5094230000000 1.0
C      1  0.4531650000000  0.5495140000000  0.5044360000000 1.0
END
