TITL C-2782228-2999-220 0.0129283895456434 125000 -936.089237441491 0 0 161 (C1) n - 1
REM
REM in /home/nfs/bkarasulu/CARBON/AIRSS/Generating-Clusters/REBO/Higher-Symm/SD-CG/HFTN-CG
REM
REM
REM
REM
REM
REM ./C.cell (12c818d87b63d06a65506943cc24bca4)
REM
REM compiler GCC version 9.2.1 20190827 (Red Hat 9.2.1-1)
REM options -cpp -mtune=generic -march=x86-64 -g -O0 -fpre-include=/usr/include/finclude/math-vector-fortran.h
REM seed -1843253271 -1862206480 830161886 1141225492 1653544573 794319186 -1484504494 -1383659473 -350180939 -1540462699 1377422038 -2083946773 725010578 526446636 259842773 -616868337 -89507498 -1357376366 2004362030 -1615132350 1936770345 393342991 1825005548 -1208209395 1995831321 60670982 1114194764 1294544112 1296385695 -1566295956 -2090789769 -1489080837 -835703833
REM
CELL 1.54180   50.00000   50.00000   50.00000   90.00000   90.00000   90.00000
LATT -1
SFAC C  
C      1  0.5579130000000  0.4623900000000  0.5030120000000 1.0
C      1  0.5569700000000  0.4800520000000  0.5304570000000 1.0
C      1  0.5573870000000  0.5119480000000  0.5349880000000 1.0
C      1  0.5562240000000  0.5347730000000  0.5128820000000 1.0
C      1  0.5559150000000  0.5325180000000  0.4813330000000 1.0
C      1  0.5563340000000  0.5053780000000  0.4635280000000 1.0
C      1  0.5573570000000  0.4746760000000  0.4736150000000 1.0
C      1  0.5298960000000  0.4132090000000  0.5191820000000 1.0
C      1  0.5198250000000  0.4611410000000  0.5775950000000 1.0
C      1  0.5287840000000  0.5323210000000  0.5831670000000 1.0
C      1  0.5222090000000  0.5862530000000  0.5223090000000 1.0
C      1  0.5251760000000  0.5766580000000  0.4483000000000 1.0
C      1  0.5276120000000  0.4983500000000  0.4120020000000 1.0
C      1  0.5211240000000  0.4325100000000  0.4475750000000 1.0
C      1  0.5544330000000  0.5501450000000  0.5493840000000 1.0
C      1  0.5508550000000  0.5739460000000  0.4974630000000 1.0
C      1  0.5452530000000  0.5402460000000  0.4405920000000 1.0
C      1  0.5526360000000  0.4764130000000  0.4341470000000 1.0
C      1  0.5530400000000  0.4340260000000  0.4714520000000 1.0
C      1  0.5528110000000  0.4411060000000  0.5365240000000 1.0
C      1  0.5532600000000  0.4825200000000  0.5728560000000 1.0
C      1  0.5557070000000  0.4067480000000  0.5004100000000 1.0
C      1  0.5508750000000  0.4485950000000  0.5753420000000 1.0
C      1  0.5562590000000  0.5168790000000  0.5929610000000 1.0
C      1  0.5556600000000  0.5841760000000  0.5290640000000 1.0
C      1  0.5534640000000  0.5883110000000  0.4604400000000 1.0
C      1  0.5524620000000  0.5209530000000  0.4066770000000 1.0
C      1  0.5530150000000  0.4370260000000  0.4374980000000 1.0
C      1  0.5072150000000  0.6021530000000  0.4517250000000 1.0
C      1  0.5148230000000  0.5221060000000  0.3935740000000 1.0
C      1  0.5041940000000  0.4271610000000  0.4215170000000 1.0
C      1  0.5079350000000  0.3903370000000  0.5119780000000 1.0
C      1  0.5100030000000  0.4323730000000  0.5888590000000 1.0
C      1  0.5081720000000  0.5286060000000  0.6072180000000 1.0
C      1  0.5086570000000  0.6008580000000  0.5470930000000 1.0
C      1  0.5059980000000  0.4724600000000  0.4096310000000 1.0
C      1  0.5051820000000  0.4122070000000  0.4698060000000 1.0
C      1  0.5051710000000  0.4161570000000  0.5423430000000 1.0
C      1  0.5022330000000  0.4847080000000  0.5930480000000 1.0
C      1  0.5157450000000  0.5587880000000  0.5721430000000 1.0
C      1  0.5001270000000  0.5928770000000  0.4980290000000 1.0
C      1  0.5140200000000  0.5605290000000  0.4249390000000 1.0
C      1  0.4060390000000  0.5551850000000  0.4581910000000 1.0
C      1  0.4037780000000  0.5054710000000  0.4296890000000 1.0
C      1  0.4055220000000  0.4476630000000  0.4562930000000 1.0
C      1  0.4160210000000  0.4357640000000  0.5127580000000 1.0
C      1  0.4106020000000  0.4661430000000  0.5588080000000 1.0
C      1  0.4088040000000  0.5293160000000  0.5612970000000 1.0
C      1  0.4115520000000  0.5621130000000  0.5158000000000 1.0
C      1  0.4689940000000  0.5057880000000  0.3912470000000 1.0
C      1  0.4644370000000  0.4253890000000  0.4412480000000 1.0
C      1  0.4593750000000  0.3992910000000  0.5259060000000 1.0
C      1  0.4647190000000  0.4474520000000  0.5907860000000 1.0
C      1  0.4676000000000  0.5453550000000  0.5842800000000 1.0
C      1  0.4631130000000  0.5948860000000  0.5338100000000 1.0
C      1  0.4669530000000  0.5765070000000  0.4376570000000 1.0
C      1  0.4601060000000  0.5043500000000  0.4600030000000 1.0
C      1  0.4586560000000  0.4770930000000  0.4706170000000 1.0
C      1  0.4657720000000  0.4718580000000  0.5016170000000 1.0
C      1  0.4646890000000  0.4844090000000  0.5279830000000 1.0
C      1  0.4634600000000  0.5136450000000  0.5332640000000 1.0
C      1  0.4623300000000  0.5272890000000  0.5039850000000 1.0
C      1  0.4608110000000  0.5302740000000  0.4753820000000 1.0
C      1  0.4886670000000  0.5092730000000  0.6042880000000 1.0
C      1  0.4963330000000  0.5844390000000  0.5658830000000 1.0
C      1  0.4877210000000  0.6015910000000  0.4710050000000 1.0
C      1  0.4979300000000  0.5408140000000  0.4050030000000 1.0
C      1  0.4882850000000  0.4472990000000  0.4111580000000 1.0
C      1  0.4914700000000  0.3950190000000  0.4904360000000 1.0
C      1  0.4947440000000  0.4163230000000  0.5722460000000 1.0
C      1  0.5399420000000  0.5489010000000  0.4092910000000 1.0
C      1  0.5328250000000  0.4567270000000  0.4179870000000 1.0
C      1  0.5353860000000  0.4078890000000  0.4763380000000 1.0
C      1  0.5323670000000  0.4268740000000  0.5564920000000 1.0
C      1  0.5331920000000  0.4939170000000  0.5960110000000 1.0
C      1  0.5383210000000  0.5767820000000  0.5576010000000 1.0
C      1  0.5297410000000  0.5942110000000  0.4837940000000 1.0
C      1  0.4375460000000  0.4610970000000  0.4256650000000 1.0
C      1  0.4518550000000  0.4256630000000  0.4840390000000 1.0
C      1  0.4548020000000  0.4418370000000  0.5524660000000 1.0
C      1  0.4423010000000  0.5056710000000  0.5818330000000 1.0
C      1  0.4544670000000  0.5575400000000  0.5448850000000 1.0
C      1  0.4413660000000  0.5800530000000  0.4768190000000 1.0
C      1  0.4520340000000  0.5300240000000  0.4307290000000 1.0
C      1  0.4799400000000  0.4650460000000  0.5483730000000 1.0
C      1  0.4880950000000  0.5227070000000  0.5476520000000 1.0
C      1  0.4781280000000  0.5503170000000  0.5207930000000 1.0
C      1  0.4863480000000  0.5417090000000  0.4642870000000 1.0
C      1  0.4821880000000  0.5108760000000  0.4391540000000 1.0
C      1  0.4837840000000  0.4601860000000  0.4678860000000 1.0
C      1  0.4778990000000  0.4400640000000  0.5018980000000 1.0
C      1  0.4349600000000  0.5027430000000  0.4423500000000 1.0
C      1  0.4349020000000  0.4648460000000  0.4592700000000 1.0
C      1  0.4406230000000  0.4535480000000  0.4973640000000 1.0
C      1  0.4409360000000  0.4717560000000  0.5440740000000 1.0
C      1  0.4391510000000  0.5173610000000  0.5501280000000 1.0
C      1  0.4391600000000  0.5420510000000  0.5187580000000 1.0
C      1  0.4367530000000  0.5468970000000  0.4705270000000 1.0
C      1  0.4085690000000  0.5025830000000  0.4631390000000 1.0
C      1  0.4069960000000  0.4750390000000  0.4755520000000 1.0
C      1  0.4106240000000  0.4677930000000  0.5047780000000 1.0
C      1  0.4121330000000  0.4830080000000  0.5299980000000 1.0
C      1  0.4110340000000  0.5122580000000  0.5323930000000 1.0
C      1  0.4090700000000  0.5302470000000  0.5077840000000 1.0
C      1  0.4092790000000  0.5280380000000  0.4781070000000 1.0
C      1  0.5904450000000  0.4899980000000  0.5337910000000 1.0
C      1  0.5903190000000  0.5204850000000  0.5278200000000 1.0
C      1  0.5894570000000  0.5369760000000  0.5022140000000 1.0
C      1  0.5890620000000  0.5257070000000  0.4731410000000 1.0
C      1  0.5900200000000  0.4958820000000  0.4655010000000 1.0
C      1  0.5908250000000  0.4700880000000  0.4819860000000 1.0
C      1  0.5907890000000  0.4682660000000  0.5129940000000 1.0
C      1  0.4180390000000  0.4266070000000  0.4798370000000 1.0
C      1  0.4220340000000  0.4374810000000  0.5441180000000 1.0
C      1  0.4129850000000  0.4971180000000  0.5721370000000 1.0
C      1  0.4205260000000  0.5578480000000  0.5484780000000 1.0
C      1  0.4119880000000  0.5737490000000  0.4862880000000 1.0
C      1  0.4185080000000  0.5362930000000  0.4327730000000 1.0
C      1  0.4073810000000  0.4716540000000  0.4317750000000 1.0
C      1  0.4708790000000  0.5322170000000  0.4064790000000 1.0
C      1  0.4603120000000  0.4450550000000  0.4198730000000 1.0
C      1  0.4644080000000  0.3998280000000  0.4961110000000 1.0
C      1  0.4667300000000  0.4219860000000  0.5748290000000 1.0
C      1  0.4632100000000  0.5190970000000  0.5954240000000 1.0
C      1  0.4684490000000  0.5822660000000  0.5608900000000 1.0
C      1  0.4625760000000  0.5911450000000  0.4620200000000 1.0
C      1  0.4863950000000  0.5561230000000  0.4399970000000 1.0
C      1  0.4861260000000  0.4959570000000  0.4131990000000 1.0
C      1  0.4834550000000  0.4330250000000  0.4607240000000 1.0
C      1  0.4796730000000  0.4208290000000  0.5264590000000 1.0
C      1  0.4803350000000  0.4671340000000  0.5794950000000 1.0
C      1  0.4879260000000  0.5453980000000  0.5645280000000 1.0
C      1  0.4767820000000  0.5810700000000  0.5142050000000 1.0
C      1  0.5825640000000  0.5359410000000  0.5547160000000 1.0
C      1  0.5827120000000  0.5676780000000  0.4987230000000 1.0
C      1  0.5766000000000  0.5435000000000  0.4490020000000 1.0
C      1  0.5810440000000  0.4911300000000  0.4355630000000 1.0
C      1  0.5848350000000  0.4403210000000  0.4724280000000 1.0
C      1  0.5828190000000  0.4400260000000  0.5247920000000 1.0
C      1  0.5849980000000  0.4853290000000  0.5646180000000 1.0
C      1  0.5343200000000  0.5559140000000  0.4737200000000 1.0
C      1  0.5332500000000  0.5102750000000  0.4425950000000 1.0
C      1  0.5309790000000  0.4637380000000  0.4571580000000 1.0
C      1  0.5341900000000  0.4404490000000  0.4995060000000 1.0
C      1  0.5303630000000  0.4652160000000  0.5454430000000 1.0
C      1  0.5362600000000  0.5090870000000  0.5593380000000 1.0
C      1  0.5307620000000  0.5533940000000  0.5250450000000 1.0
C      1  0.5793090000000  0.4226960000000  0.4995580000000 1.0
C      1  0.5781000000000  0.4541580000000  0.5557290000000 1.0
C      1  0.5793360000000  0.5146890000000  0.5765030000000 1.0
C      1  0.5815560000000  0.5620580000000  0.5323230000000 1.0
C      1  0.5756520000000  0.5710470000000  0.4662670000000 1.0
C      1  0.5753830000000  0.5193580000000  0.4248830000000 1.0
C      1  0.5795530000000  0.4576870000000  0.4436370000000 1.0
C      1  0.5059470000000  0.4593630000000  0.5009930000000 1.0
C      1  0.5054300000000  0.4749990000000  0.5293510000000 1.0
C      1  0.5126290000000  0.5074670000000  0.5353780000000 1.0
C      1  0.5074260000000  0.5344990000000  0.5149260000000 1.0
C      1  0.5111930000000  0.5338640000000  0.4822510000000 1.0
C      1  0.5073590000000  0.5079990000000  0.4603680000000 1.0
C      1  0.5086640000000  0.4779800000000  0.4725910000000 1.0
END
