TITL C-2782225-7408-237 -0.00336716620112754 125000 -781.501283156849 0 0 134 (C1) n - 1
REM
REM in /home/nfs/bkarasulu/CARBON/AIRSS/Generating-Clusters/REBO/Higher-Symm/SD-CG/HFTN-CG
REM
REM
REM
REM
REM
REM ./C.cell (12c818d87b63d06a65506943cc24bca4)
REM
REM compiler GCC version 9.2.1 20190827 (Red Hat 9.2.1-1)
REM options -cpp -mtune=generic -march=x86-64 -g -O0 -fpre-include=/usr/include/finclude/math-vector-fortran.h
REM seed -1025015825 -2085741318 1399804960 -584160885 -503573179 -1018183064 -205225418 1636112268 949396084 526118713 -879872217 1690459037 1197465594 -1106024287 133167160 -1619967300 1686032548 -973876017 1593913349 1389476698 -962006941 -1755243127 -1034756592 902871024 -1930528313 1947807642 -1000763288 -25035151 -1201459335 -1444396561 1170447553 -1603604162 852509149
REM
CELL 1.54180   50.00000   50.00000   50.00000   90.00000   90.00000   90.00000
LATT -1
SFAC C  
C      1  0.5516080000000  0.4383600000000  0.4772830000000 1.0
C      1  0.4912550000000  0.4354300000000  0.4363220000000 1.0
C      1  0.4425810000000  0.4446960000000  0.4858790000000 1.0
C      1  0.4744260000000  0.4437120000000  0.5502060000000 1.0
C      1  0.5498590000000  0.4412510000000  0.5525710000000 1.0
C      1  0.5320990000000  0.4125730000000  0.5476420000000 1.0
C      1  0.5396280000000  0.4119820000000  0.4930890000000 1.0
C      1  0.4959820000000  0.4062950000000  0.4530500000000 1.0
C      1  0.4574740000000  0.4162640000000  0.4843060000000 1.0
C      1  0.4822030000000  0.4158140000000  0.5407490000000 1.0
C      1  0.5396890000000  0.4804780000000  0.5853790000000 1.0
C      1  0.6155940000000  0.4856610000000  0.4833760000000 1.0
C      1  0.5213590000000  0.4914980000000  0.3934340000000 1.0
C      1  0.4166770000000  0.4780890000000  0.4505750000000 1.0
C      1  0.4306810000000  0.4730770000000  0.5609110000000 1.0
C      1  0.5881780000000  0.4566030000000  0.5153980000000 1.0
C      1  0.5374890000000  0.4571660000000  0.4318490000000 1.0
C      1  0.4499870000000  0.4739150000000  0.4296410000000 1.0
C      1  0.4166290000000  0.4607120000000  0.5275040000000 1.0
C      1  0.5041470000000  0.4650820000000  0.5861810000000 1.0
C      1  0.5265480000000  0.4919400000000  0.4813830000000 1.0
C      1  0.4867660000000  0.4898730000000  0.4785010000000 1.0
C      1  0.4477620000000  0.4793230000000  0.5075090000000 1.0
C      1  0.4877570000000  0.4882550000000  0.5339110000000 1.0
C      1  0.5331730000000  0.4824780000000  0.5245490000000 1.0
C      1  0.5373910000000  0.5663670000000  0.4296210000000 1.0
C      1  0.4543590000000  0.5680000000000  0.4361630000000 1.0
C      1  0.4167110000000  0.5767460000000  0.5185730000000 1.0
C      1  0.4953990000000  0.5691470000000  0.5679060000000 1.0
C      1  0.5752980000000  0.5647400000000  0.5141020000000 1.0
C      1  0.5009310000000  0.4585630000000  0.5377590000000 1.0
C      1  0.5443160000000  0.4541570000000  0.5221140000000 1.0
C      1  0.5174400000000  0.4416680000000  0.4790260000000 1.0
C      1  0.4570180000000  0.4358280000000  0.4390240000000 1.0
C      1  0.4658880000000  0.4439540000000  0.5110550000000 1.0
C      1  0.4743290000000  0.5847900000000  0.5122470000000 1.0
C      1  0.4963390000000  0.5827480000000  0.5305120000000 1.0
C      1  0.5215230000000  0.5851070000000  0.5145010000000 1.0
C      1  0.5146120000000  0.5911680000000  0.4870570000000 1.0
C      1  0.4856430000000  0.5808050000000  0.4832940000000 1.0
C      1  0.4534970000000  0.5627030000000  0.5147170000000 1.0
C      1  0.5086780000000  0.5510670000000  0.5309670000000 1.0
C      1  0.5364630000000  0.5568720000000  0.5153720000000 1.0
C      1  0.5355930000000  0.5842220000000  0.4648580000000 1.0
C      1  0.4903620000000  0.5471990000000  0.4780370000000 1.0
C      1  0.5526300000000  0.5325870000000  0.5069290000000 1.0
C      1  0.5164130000000  0.5364760000000  0.4648520000000 1.0
C      1  0.4635770000000  0.5381090000000  0.4605690000000 1.0
C      1  0.4339850000000  0.5427140000000  0.5345160000000 1.0
C      1  0.5149910000000  0.5335450000000  0.5541850000000 1.0
C      1  0.4726420000000  0.4530500000000  0.4148010000000 1.0
C      1  0.4151430000000  0.4496900000000  0.4974130000000 1.0
C      1  0.4753790000000  0.4524020000000  0.5793920000000 1.0
C      1  0.5782290000000  0.4573380000000  0.5429300000000 1.0
C      1  0.5617080000000  0.4450320000000  0.4498880000000 1.0
C      1  0.5468670000000  0.5566200000000  0.5616290000000 1.0
C      1  0.5798980000000  0.5583750000000  0.4805840000000 1.0
C      1  0.5056870000000  0.5691030000000  0.4159850000000 1.0
C      1  0.4295330000000  0.5597920000000  0.4585500000000 1.0
C      1  0.4429990000000  0.5580350000000  0.5700250000000 1.0
C      1  0.4055050000000  0.5128530000000  0.5158140000000 1.0
C      1  0.4869440000000  0.5136320000000  0.6018810000000 1.0
C      1  0.5978350000000  0.5036640000000  0.5260310000000 1.0
C      1  0.5474890000000  0.5066890000000  0.4341500000000 1.0
C      1  0.4543630000000  0.5092800000000  0.4114490000000 1.0
C      1  0.5813470000000  0.4852870000000  0.5494750000000 1.0
C      1  0.5638490000000  0.4776880000000  0.4420890000000 1.0
C      1  0.4771450000000  0.4856200000000  0.4126930000000 1.0
C      1  0.4071530000000  0.4816890000000  0.5028030000000 1.0
C      1  0.4773940000000  0.4860080000000  0.5844120000000 1.0
C      1  0.5368900000000  0.4833410000000  0.4139750000000 1.0
C      1  0.4280840000000  0.4987670000000  0.4275810000000 1.0
C      1  0.4089480000000  0.4907850000000  0.5416000000000 1.0
C      1  0.5135140000000  0.4943970000000  0.5993720000000 1.0
C      1  0.6061330000000  0.4785210000000  0.5093250000000 1.0
C      1  0.5862750000000  0.5276530000000  0.5049730000000 1.0
C      1  0.5240810000000  0.5296170000000  0.4378780000000 1.0
C      1  0.4418460000000  0.5287210000000  0.4368050000000 1.0
C      1  0.4098550000000  0.5243100000000  0.5462550000000 1.0
C      1  0.5151210000000  0.5263720000000  0.5876110000000 1.0
C      1  0.5581000000000  0.5276470000000  0.4583500000000 1.0
C      1  0.4799480000000  0.5225930000000  0.4276460000000 1.0
C      1  0.4298900000000  0.5273050000000  0.4982680000000 1.0
C      1  0.4783770000000  0.5239840000000  0.5722110000000 1.0
C      1  0.5754680000000  0.5237920000000  0.5422510000000 1.0
C      1  0.4601790000000  0.4994480000000  0.5605430000000 1.0
C      1  0.5585830000000  0.5043460000000  0.5599940000000 1.0
C      1  0.5716750000000  0.4980170000000  0.4646600000000 1.0
C      1  0.5023000000000  0.4976480000000  0.4280360000000 1.0
C      1  0.4238910000000  0.4999860000000  0.4830540000000 1.0
C      1  0.4283120000000  0.5586920000000  0.4920450000000 1.0
C      1  0.4718890000000  0.5532430000000  0.5705900000000 1.0
C      1  0.5674060000000  0.5528910000000  0.5403320000000 1.0
C      1  0.5572130000000  0.5592650000000  0.4549840000000 1.0
C      1  0.4779160000000  0.5534380000000  0.4231230000000 1.0
C      1  0.4769520000000  0.4110250000000  0.5097120000000 1.0
C      1  0.5051870000000  0.4053420000000  0.5516740000000 1.0
C      1  0.5386210000000  0.4215820000000  0.5199330000000 1.0
C      1  0.5162300000000  0.4089450000000  0.4723180000000 1.0
C      1  0.4669410000000  0.4120420000000  0.4576000000000 1.0
C      1  0.5376510000000  0.5216050000000  0.4825140000000 1.0
C      1  0.4692790000000  0.5069370000000  0.4560300000000 1.0
C      1  0.4565980000000  0.5235700000000  0.5177210000000 1.0
C      1  0.4991580000000  0.5053460000000  0.5543670000000 1.0
C      1  0.5584640000000  0.5035880000000  0.5200120000000 1.0
C      1  0.5573770000000  0.4871840000000  0.4904850000000 1.0
C      1  0.5085420000000  0.4842420000000  0.4539570000000 1.0
C      1  0.4531840000000  0.4879660000000  0.4784940000000 1.0
C      1  0.4591350000000  0.4957670000000  0.5283530000000 1.0
C      1  0.5311700000000  0.5035710000000  0.5491010000000 1.0
C      1  0.6011790000000  0.5052030000000  0.4683330000000 1.0
C      1  0.5054460000000  0.5159720000000  0.3976770000000 1.0
C      1  0.4051790000000  0.5076520000000  0.4589390000000 1.0
C      1  0.4316930000000  0.5040730000000  0.5726410000000 1.0
C      1  0.5577530000000  0.5076350000000  0.5911000000000 1.0
C      1  0.5120180000000  0.4536470000000  0.4496780000000 1.0
C      1  0.4404130000000  0.4560380000000  0.4570780000000 1.0
C      1  0.4474540000000  0.4537770000000  0.5381480000000 1.0
C      1  0.5255800000000  0.4605200000000  0.5613780000000 1.0
C      1  0.5632610000000  0.4574420000000  0.4971820000000 1.0
C      1  0.4308900000000  0.5746210000000  0.5453010000000 1.0
C      1  0.5223350000000  0.5720380000000  0.5621360000000 1.0
C      1  0.5522610000000  0.5749570000000  0.4911980000000 1.0
C      1  0.5187210000000  0.5914130000000  0.4374930000000 1.0
C      1  0.4602520000000  0.5712780000000  0.4683400000000 1.0
C      1  0.4122550000000  0.5334210000000  0.4481260000000 1.0
C      1  0.4261660000000  0.5338710000000  0.5731930000000 1.0
C      1  0.5453020000000  0.5352910000000  0.5814830000000 1.0
C      1  0.5995920000000  0.5324270000000  0.4784700000000 1.0
C      1  0.5137240000000  0.5385310000000  0.4136310000000 1.0
C      1  0.5052530000000  0.4830230000000  0.5064270000000 1.0
C      1  0.4989360000000  0.4501790000000  0.5045180000000 1.0
C      1  0.4823360000000  0.5446130000000  0.5103670000000 1.0
C      1  0.4954670000000  0.3912290000000  0.5014690000000 1.0
END
