TITL C-2782228-2999-1192 -3.57620408326859e-07 125000 -28.4115168322891 0 0 6 (D3h) n - 1
REM
REM in /home/nfs/bkarasulu/CARBON/AIRSS/Generating-Clusters/REBO/Higher-Symm/SD-CG/HFTN-CG
REM
REM
REM
REM
REM
REM ./C.cell (12c818d87b63d06a65506943cc24bca4)
REM
REM compiler GCC version 9.2.1 20190827 (Red Hat 9.2.1-1)
REM options -cpp -mtune=generic -march=x86-64 -g -O0 -fpre-include=/usr/include/finclude/math-vector-fortran.h
REM seed -783530438 1336444616 -1421314065 -655064210 -1635357999 751828993 1387022313 1986401576 -310643888 682710730 -729210219 -392565626 -1636993117 -2092048412 -1859059534 5359212 -749312621 -662750964 1650853997 263926266 2013562084 -1962979446 1546135182 -1944971062 819219208 -951866711 -1045387325 -681501038 -757744212 -339025875 -720653923 -310243221 1203624237
REM
CELL 1.54180   50.00000   50.00000   50.00000   90.00000   90.00000   90.00000
LATT -1
SFAC C  
C      1  0.5181970000000  0.5036610000000  0.5000000000000 1.0
C      1  0.4877310000000  0.5139280000000  0.4999940000000 1.0
C      1  0.4940720000000  0.4824100000000  0.5000060000000 1.0
C      1  0.4856430000000  0.4573970000000  0.5000160000000 1.0
C      1  0.5440740000000  0.5088680000000  0.5000000000000 1.0
C      1  0.4702840000000  0.5337350000000  0.4999840000000 1.0
END
