TITL C-2782227-3064-147 -0.00517294516375806 125000 -1152.9495861104 0 0 195 (C1) n - 1
REM
REM in /home/nfs/bkarasulu/CARBON/AIRSS/Generating-Clusters/REBO/Higher-Symm/SD-CG/HFTN-CG
REM
REM
REM
REM
REM
REM ./C.cell (12c818d87b63d06a65506943cc24bca4)
REM
REM compiler GCC version 9.2.1 20190827 (Red Hat 9.2.1-1)
REM options -cpp -mtune=generic -march=x86-64 -g -O0 -fpre-include=/usr/include/finclude/math-vector-fortran.h
REM seed 570318301 730969948 -1220488197 547310858 -266820771 -866275510 -1806679869 -219750634 1974089709 -1173620511 -4386666 -170213234 1263563884 -16143818 -1582870152 560279217 507502092 1953374045 -2048908872 -968871823 -1960271867 -1780147467 808117591 395203982 -1940308950 1123439451 2110395204 -1819645871 -49910974 -1719926342 -1279957549 -1685499692 -1418433753
REM
CELL 1.54180   50.00000   50.00000   50.00000   90.00000   90.00000   90.00000
LATT -1
SFAC C  
C      1  0.5214710000000  0.5332270000000  0.3989400000000 1.0
C      1  0.5475860000000  0.4159030000000  0.4394590000000 1.0
C      1  0.5441200000000  0.4227140000000  0.5514990000000 1.0
C      1  0.5457080000000  0.5224850000000  0.5929940000000 1.0
C      1  0.5478770000000  0.6035100000000  0.5081920000000 1.0
C      1  0.5438620000000  0.4652480000000  0.4105990000000 1.0
C      1  0.5469510000000  0.5820980000000  0.4393940000000 1.0
C      1  0.5500590000000  0.5802130000000  0.5562840000000 1.0
C      1  0.5448230000000  0.4731020000000  0.5891770000000 1.0
C      1  0.5290840000000  0.4013880000000  0.4908370000000 1.0
C      1  0.4964660000000  0.5729620000000  0.5904590000000 1.0
C      1  0.4881170000000  0.6104640000000  0.4513260000000 1.0
C      1  0.4956520000000  0.4911060000000  0.3755200000000 1.0
C      1  0.5066950000000  0.3951640000000  0.4752030000000 1.0
C      1  0.4912260000000  0.4439440000000  0.6065000000000 1.0
C      1  0.4832920000000  0.4183850000000  0.5927200000000 1.0
C      1  0.4900370000000  0.3860670000000  0.4500500000000 1.0
C      1  0.5032710000000  0.5196480000000  0.3817840000000 1.0
C      1  0.4867220000000  0.6296610000000  0.4741760000000 1.0
C      1  0.4972490000000  0.5496240000000  0.6101530000000 1.0
C      1  0.5421690000000  0.4887660000000  0.5392750000000 1.0
C      1  0.5472530000000  0.5413700000000  0.5244610000000 1.0
C      1  0.5460050000000  0.5418220000000  0.4700490000000 1.0
C      1  0.5394640000000  0.4910990000000  0.4516540000000 1.0
C      1  0.5469140000000  0.4558630000000  0.4936990000000 1.0
C      1  0.5427870000000  0.5157020000000  0.5415280000000 1.0
C      1  0.5458800000000  0.4653490000000  0.5192470000000 1.0
C      1  0.5457440000000  0.4687710000000  0.4666100000000 1.0
C      1  0.5416910000000  0.5206100000000  0.4538540000000 1.0
C      1  0.5444300000000  0.5521730000000  0.4993910000000 1.0
C      1  0.5011040000000  0.5858090000000  0.5548660000000 1.0
C      1  0.4975690000000  0.5839690000000  0.4376780000000 1.0
C      1  0.4986630000000  0.4412360000000  0.4056710000000 1.0
C      1  0.4948440000000  0.4011030000000  0.5187090000000 1.0
C      1  0.5046490000000  0.4689150000000  0.6160470000000 1.0
C      1  0.4949180000000  0.4133990000000  0.5503350000000 1.0
C      1  0.4970360000000  0.4215440000000  0.4336990000000 1.0
C      1  0.4891420000000  0.5721860000000  0.4068930000000 1.0
C      1  0.5005700000000  0.6039240000000  0.5256140000000 1.0
C      1  0.5060520000000  0.5231730000000  0.6202580000000 1.0
C      1  0.6142640000000  0.4855830000000  0.4535220000000 1.0
C      1  0.6066540000000  0.4615180000000  0.5045820000000 1.0
C      1  0.5874000000000  0.4834620000000  0.5499450000000 1.0
C      1  0.6097310000000  0.5185840000000  0.5209590000000 1.0
C      1  0.6062150000000  0.5367110000000  0.4712840000000 1.0
C      1  0.6185440000000  0.5140610000000  0.4535760000000 1.0
C      1  0.6140800000000  0.5386990000000  0.5018670000000 1.0
C      1  0.5964710000000  0.5112070000000  0.5444480000000 1.0
C      1  0.5861430000000  0.4637470000000  0.5253270000000 1.0
C      1  0.6018880000000  0.4669510000000  0.4738890000000 1.0
C      1  0.5830400000000  0.5326330000000  0.4245740000000 1.0
C      1  0.5797140000000  0.4559070000000  0.4499810000000 1.0
C      1  0.5762770000000  0.4347700000000  0.5310420000000 1.0
C      1  0.5716350000000  0.5140660000000  0.5845770000000 1.0
C      1  0.5738840000000  0.5946400000000  0.5145890000000 1.0
C      1  0.5720620000000  0.4698590000000  0.4209380000000 1.0
C      1  0.5842470000000  0.5483290000000  0.4474540000000 1.0
C      1  0.5782470000000  0.5856420000000  0.5453010000000 1.0
C      1  0.5730860000000  0.4824750000000  0.5810050000000 1.0
C      1  0.5757570000000  0.4188580000000  0.5069220000000 1.0
C      1  0.5990940000000  0.4344430000000  0.4679520000000 1.0
C      1  0.6223620000000  0.4286550000000  0.5394490000000 1.0
C      1  0.5866950000000  0.5288410000000  0.5647520000000 1.0
C      1  0.6109800000000  0.5653440000000  0.5121120000000 1.0
C      1  0.6110030000000  0.5178100000000  0.4250100000000 1.0
C      1  0.5868550000000  0.5652410000000  0.4732200000000 1.0
C      1  0.6080590000000  0.5713090000000  0.5396730000000 1.0
C      1  0.5937610000000  0.4577980000000  0.5699200000000 1.0
C      1  0.6218730000000  0.4349230000000  0.5110480000000 1.0
C      1  0.6044790000000  0.4778520000000  0.4275400000000 1.0
C      1  0.5279930000000  0.4706980000000  0.5643810000000 1.0
C      1  0.5424270000000  0.5537320000000  0.5522070000000 1.0
C      1  0.5446490000000  0.5719200000000  0.4651670000000 1.0
C      1  0.5251620000000  0.4845480000000  0.4240280000000 1.0
C      1  0.5508300000000  0.4231350000000  0.4894330000000 1.0
C      1  0.5289150000000  0.5303750000000  0.5690800000000 1.0
C      1  0.5419780000000  0.4495990000000  0.5450160000000 1.0
C      1  0.5556680000000  0.4363500000000  0.4602870000000 1.0
C      1  0.5246940000000  0.5182460000000  0.4251860000000 1.0
C      1  0.5318500000000  0.5832740000000  0.4924120000000 1.0
C      1  0.4204250000000  0.4279900000000  0.4302350000000 1.0
C      1  0.4268130000000  0.4180880000000  0.5428870000000 1.0
C      1  0.4300280000000  0.5209060000000  0.5968460000000 1.0
C      1  0.4266160000000  0.5961510000000  0.5120930000000 1.0
C      1  0.4285540000000  0.5359140000000  0.4121540000000 1.0
C      1  0.4270810000000  0.5561330000000  0.4264630000000 1.0
C      1  0.4283720000000  0.5929120000000  0.5369570000000 1.0
C      1  0.4280410000000  0.4961020000000  0.5992590000000 1.0
C      1  0.4302390000000  0.4050700000000  0.5218690000000 1.0
C      1  0.4252550000000  0.4458770000000  0.4133010000000 1.0
C      1  0.4100840000000  0.4944970000000  0.5636480000000 1.0
C      1  0.4286120000000  0.5427820000000  0.5335100000000 1.0
C      1  0.4161950000000  0.5346680000000  0.4583480000000 1.0
C      1  0.4134120000000  0.4772320000000  0.4350450000000 1.0
C      1  0.4098620000000  0.4348530000000  0.5048450000000 1.0
C      1  0.4135880000000  0.5255480000000  0.5556600000000 1.0
C      1  0.4142210000000  0.4707400000000  0.5423520000000 1.0
C      1  0.4138990000000  0.4554130000000  0.4590810000000 1.0
C      1  0.4099600000000  0.5107850000000  0.4369260000000 1.0
C      1  0.4179690000000  0.5575270000000  0.5065040000000 1.0
C      1  0.3824710000000  0.5136090000000  0.4565070000000 1.0
C      1  0.3869630000000  0.4627280000000  0.4764860000000 1.0
C      1  0.3857250000000  0.4681590000000  0.5263090000000 1.0
C      1  0.3851700000000  0.5188900000000  0.5440980000000 1.0
C      1  0.3906440000000  0.5465510000000  0.5005810000000 1.0
C      1  0.3866310000000  0.4840380000000  0.4550480000000 1.0
C      1  0.3888390000000  0.5355900000000  0.4756420000000 1.0
C      1  0.3770660000000  0.5354310000000  0.5227460000000 1.0
C      1  0.3798520000000  0.4897430000000  0.5473110000000 1.0
C      1  0.3880750000000  0.4527410000000  0.5028870000000 1.0
C      1  0.4645140000000  0.3902820000000  0.5117030000000 1.0
C      1  0.4764160000000  0.4808400000000  0.6052880000000 1.0
C      1  0.4690600000000  0.5938690000000  0.5476480000000 1.0
C      1  0.4604230000000  0.5772330000000  0.4247420000000 1.0
C      1  0.4709730000000  0.4532150000000  0.4002370000000 1.0
C      1  0.4681890000000  0.6052110000000  0.5155530000000 1.0
C      1  0.4777720000000  0.5147870000000  0.6075730000000 1.0
C      1  0.4638570000000  0.4032560000000  0.5434010000000 1.0
C      1  0.4657190000000  0.4263420000000  0.4208450000000 1.0
C      1  0.4663300000000  0.5480700000000  0.4075530000000 1.0
C      1  0.4416460000000  0.4731760000000  0.4186900000000 1.0
C      1  0.4324840000000  0.4143860000000  0.4893610000000 1.0
C      1  0.4352650000000  0.4743450000000  0.5759610000000 1.0
C      1  0.4400650000000  0.5673340000000  0.5506780000000 1.0
C      1  0.4330130000000  0.5646780000000  0.4582300000000 1.0
C      1  0.4373850000000  0.5046260000000  0.4186410000000 1.0
C      1  0.4365750000000  0.5783870000000  0.4861060000000 1.0
C      1  0.4392770000000  0.5404690000000  0.5718470000000 1.0
C      1  0.4323230000000  0.4463660000000  0.5568520000000 1.0
C      1  0.4315910000000  0.4259090000000  0.4605840000000 1.0
C      1  0.5254320000000  0.3913300000000  0.5178690000000 1.0
C      1  0.5298020000000  0.4817440000000  0.6116930000000 1.0
C      1  0.5294150000000  0.5986270000000  0.5527530000000 1.0
C      1  0.5249540000000  0.5800350000000  0.4224370000000 1.0
C      1  0.5297260000000  0.4421840000000  0.4021900000000 1.0
C      1  0.5310530000000  0.6149840000000  0.5278370000000 1.0
C      1  0.5304840000000  0.5103050000000  0.6139440000000 1.0
C      1  0.5246230000000  0.4037530000000  0.5450880000000 1.0
C      1  0.5270340000000  0.4194130000000  0.4225670000000 1.0
C      1  0.5190150000000  0.5610290000000  0.4001650000000 1.0
C      1  0.4690050000000  0.5734830000000  0.5750440000000 1.0
C      1  0.4615720000000  0.5926910000000  0.4524340000000 1.0
C      1  0.4714390000000  0.4828930000000  0.3925520000000 1.0
C      1  0.4720660000000  0.3931810000000  0.4784680000000 1.0
C      1  0.4642570000000  0.4530300000000  0.5885490000000 1.0
C      1  0.4619820000000  0.4231910000000  0.5711070000000 1.0
C      1  0.4637040000000  0.4036170000000  0.4461350000000 1.0
C      1  0.4722300000000  0.5176440000000  0.3935680000000 1.0
C      1  0.4655230000000  0.6068850000000  0.4838810000000 1.0
C      1  0.4681040000000  0.5459520000000  0.5962030000000 1.0
C      1  0.4652090000000  0.4669940000000  0.4370560000000 1.0
C      1  0.4593610000000  0.4277990000000  0.5066040000000 1.0
C      1  0.4641910000000  0.4853670000000  0.5680610000000 1.0
C      1  0.4652310000000  0.5583480000000  0.5301160000000 1.0
C      1  0.4600150000000  0.5460480000000  0.4485620000000 1.0
C      1  0.4629460000000  0.5185060000000  0.4317750000000 1.0
C      1  0.4676340000000  0.5697970000000  0.4981870000000 1.0
C      1  0.4648580000000  0.5180610000000  0.5702640000000 1.0
C      1  0.4591450000000  0.4422870000000  0.5362070000000 1.0
C      1  0.4608820000000  0.4416740000000  0.4572020000000 1.0
C      1  0.5024190000000  0.5432080000000  0.4713600000000 1.0
C      1  0.4940200000000  0.4802890000000  0.4629700000000 1.0
C      1  0.5087480000000  0.4485610000000  0.5030690000000 1.0
C      1  0.5026250000000  0.4878920000000  0.5346500000000 1.0
C      1  0.5076290000000  0.5432120000000  0.5201020000000 1.0
C      1  0.5045930000000  0.4545920000000  0.4748260000000 1.0
C      1  0.4987170000000  0.5139070000000  0.4672490000000 1.0
C      1  0.5046920000000  0.5543690000000  0.4958370000000 1.0
C      1  0.5032990000000  0.5186260000000  0.5370530000000 1.0
C      1  0.5069200000000  0.4581050000000  0.5283040000000 1.0
C      1  0.4874870000000  0.4428990000000  0.5477660000000 1.0
C      1  0.4956790000000  0.5313540000000  0.5672170000000 1.0
C      1  0.4981120000000  0.5852570000000  0.4980480000000 1.0
C      1  0.4945110000000  0.5079920000000  0.4343020000000 1.0
C      1  0.4887840000000  0.4297460000000  0.4627060000000 1.0
C      1  0.4926610000000  0.5566380000000  0.5458970000000 1.0
C      1  0.4947650000000  0.4707880000000  0.5639370000000 1.0
C      1  0.4892240000000  0.4244220000000  0.4960620000000 1.0
C      1  0.4946000000000  0.4758430000000  0.4292200000000 1.0
C      1  0.4872490000000  0.5586410000000  0.4526960000000 1.0
C      1  0.4378490000000  0.4510770000000  0.5036190000000 1.0
C      1  0.4688630000000  0.4809740000000  0.5353930000000 1.0
C      1  0.4555190000000  0.5279050000000  0.5239340000000 1.0
C      1  0.4447420000000  0.5295000000000  0.4728670000000 1.0
C      1  0.4606270000000  0.4804410000000  0.4662100000000 1.0
C      1  0.4473000000000  0.5423670000000  0.4982730000000 1.0
C      1  0.4719000000000  0.5123180000000  0.5399430000000 1.0
C      1  0.4411790000000  0.4704200000000  0.5264210000000 1.0
C      1  0.4401050000000  0.4612550000000  0.4767540000000 1.0
C      1  0.4668470000000  0.5095430000000  0.4631360000000 1.0
C      1  0.6010770000000  0.4208330000000  0.4928870000000 1.0
C      1  0.5906300000000  0.5794650000000  0.4968780000000 1.0
C      1  0.5842490000000  0.5006210000000  0.4128080000000 1.0
C      1  0.5974480000000  0.4348120000000  0.5534300000000 1.0
C      1  0.5894940000000  0.5563350000000  0.5601030000000 1.0
END
