TITL C-2782236-320-157 0.00834753486583336 125000 -447.608454844497 0 0 79 (C1) n - 1
REM
REM in /home/nfs/bkarasulu/CARBON/AIRSS/Generating-Clusters/REBO/Higher-Symm/SD-CG/HFTN-CG
REM
REM
REM
REM
REM
REM ./C.cell (12c818d87b63d06a65506943cc24bca4)
REM
REM compiler GCC version 9.2.1 20190827 (Red Hat 9.2.1-1)
REM options -cpp -mtune=generic -march=x86-64 -g -O0 -fpre-include=/usr/include/finclude/math-vector-fortran.h
REM seed -1330569133 -1072327407 363694217 -1920576727 269674995 -1630332814 -693627313 300005571 -1419315359 -1909036082 -351305562 67151937 1476159926 676154304 -836554306 1374359843 1421600963 -90198509 -243700674 276669531 -1803299861 895530275 292256100 -466613941 179409504 510813744 -655560046 1330017988 -2026387497 1616728578 -1883936147 -1155978150 -1860402214
REM
CELL 1.54180   50.00000   50.00000   50.00000   90.00000   90.00000   90.00000
LATT -1
SFAC C  
C      1  0.4510260000000  0.5301200000000  0.4615570000000 1.0
C      1  0.4300270000000  0.5082210000000  0.5299960000000 1.0
C      1  0.5193850000000  0.4552060000000  0.4377080000000 1.0
C      1  0.5951090000000  0.5138140000000  0.5472900000000 1.0
C      1  0.4674560000000  0.4708220000000  0.5058030000000 1.0
C      1  0.5338730000000  0.4658340000000  0.5144880000000 1.0
C      1  0.5105400000000  0.5498350000000  0.4278200000000 1.0
C      1  0.4836890000000  0.5296320000000  0.5254740000000 1.0
C      1  0.5895170000000  0.5430380000000  0.5445240000000 1.0
C      1  0.4977830000000  0.5622200000000  0.4963280000000 1.0
C      1  0.5268160000000  0.4932550000000  0.5627350000000 1.0
C      1  0.4584320000000  0.5525890000000  0.5244310000000 1.0
C      1  0.4735390000000  0.5527740000000  0.4741240000000 1.0
C      1  0.4579010000000  0.4125720000000  0.5079340000000 1.0
C      1  0.4720190000000  0.4853390000000  0.5530620000000 1.0
C      1  0.4980470000000  0.4822210000000  0.5092780000000 1.0
C      1  0.4365760000000  0.4600690000000  0.4960740000000 1.0
C      1  0.5212030000000  0.4929700000000  0.5310670000000 1.0
C      1  0.5138690000000  0.5193210000000  0.5137230000000 1.0
C      1  0.5031330000000  0.5508320000000  0.4583910000000 1.0
C      1  0.5319440000000  0.5604320000000  0.4960200000000 1.0
C      1  0.5568580000000  0.4753310000000  0.5348040000000 1.0
C      1  0.5669400000000  0.4614430000000  0.4711670000000 1.0
C      1  0.4887640000000  0.5202170000000  0.4538920000000 1.0
C      1  0.4418200000000  0.4292540000000  0.4837900000000 1.0
C      1  0.4639240000000  0.5000800000000  0.4668240000000 1.0
C      1  0.4835820000000  0.5584760000000  0.5547650000000 1.0
C      1  0.4824010000000  0.5224860000000  0.4204910000000 1.0
C      1  0.4403610000000  0.5235610000000  0.5551920000000 1.0
C      1  0.4189000000000  0.5063380000000  0.5034900000000 1.0
C      1  0.4886650000000  0.5317780000000  0.5650700000000 1.0
C      1  0.5202090000000  0.5291170000000  0.4754920000000 1.0
C      1  0.4516770000000  0.4506450000000  0.4607160000000 1.0
C      1  0.4735580000000  0.4175180000000  0.4789870000000 1.0
C      1  0.5522750000000  0.4939380000000  0.5748260000000 1.0
C      1  0.5067120000000  0.4990210000000  0.4162800000000 1.0
C      1  0.5249210000000  0.5267860000000  0.4209700000000 1.0
C      1  0.5708010000000  0.5557400000000  0.4617550000000 1.0
C      1  0.4620440000000  0.5032730000000  0.5283240000000 1.0
C      1  0.5438070000000  0.5312500000000  0.5075970000000 1.0
C      1  0.4642630000000  0.4273690000000  0.5311640000000 1.0
C      1  0.5162210000000  0.4813420000000  0.4821320000000 1.0
C      1  0.4827530000000  0.4857490000000  0.4350100000000 1.0
C      1  0.4869700000000  0.5533960000000  0.4101090000000 1.0
C      1  0.5600870000000  0.5286190000000  0.5353930000000 1.0
C      1  0.5452040000000  0.5043420000000  0.4252820000000 1.0
C      1  0.4890500000000  0.4633420000000  0.5558050000000 1.0
C      1  0.5053800000000  0.4492980000000  0.5101750000000 1.0
C      1  0.4947180000000  0.5677540000000  0.5297730000000 1.0
C      1  0.5228960000000  0.5592300000000  0.5270650000000 1.0
C      1  0.4973870000000  0.4401200000000  0.4821470000000 1.0
C      1  0.4915200000000  0.5198460000000  0.4877890000000 1.0
C      1  0.4673480000000  0.4720500000000  0.4735360000000 1.0
C      1  0.4906530000000  0.4416040000000  0.5362840000000 1.0
C      1  0.5302040000000  0.4768110000000  0.4230100000000 1.0
C      1  0.5163890000000  0.4266180000000  0.4381730000000 1.0
C      1  0.5694900000000  0.5125540000000  0.4376720000000 1.0
C      1  0.5151960000000  0.5226300000000  0.5596530000000 1.0
C      1  0.4363360000000  0.4677080000000  0.5491790000000 1.0
C      1  0.5355650000000  0.5054320000000  0.4783030000000 1.0
C      1  0.5626640000000  0.5147580000000  0.4847620000000 1.0
C      1  0.5323190000000  0.5396900000000  0.5448270000000 1.0
C      1  0.5460450000000  0.4674310000000  0.4850010000000 1.0
C      1  0.4472330000000  0.5512820000000  0.4948710000000 1.0
C      1  0.4540050000000  0.4564310000000  0.5314330000000 1.0
C      1  0.5513770000000  0.5703200000000  0.4745020000000 1.0
C      1  0.4562260000000  0.5078690000000  0.4354800000000 1.0
C      1  0.4265120000000  0.5269480000000  0.4849750000000 1.0
C      1  0.4659670000000  0.5129660000000  0.5666630000000 1.0
C      1  0.5710120000000  0.4971660000000  0.5397330000000 1.0
C      1  0.5115090000000  0.4687790000000  0.5722910000000 1.0
C      1  0.5303210000000  0.4373400000000  0.6117190000000 1.0
C      1  0.4973740000000  0.4667760000000  0.4597630000000 1.0
C      1  0.5211610000000  0.4526480000000  0.5925210000000 1.0
C      1  0.4428250000000  0.5510450000000  0.5469680000000 1.0
C      1  0.5743620000000  0.5273020000000  0.4617910000000 1.0
C      1  0.4175190000000  0.4793020000000  0.4942990000000 1.0
C      1  0.4631150000000  0.5216460000000  0.4999820000000 1.0
C      1  0.5007200000000  0.4171240000000  0.4585080000000 1.0
END
