TITL C-2782238-9940-1210 0.000231351795859046 125000 -325.160237888802 0 0 57 (C1) n - 1
REM
REM in /home/nfs/bkarasulu/CARBON/AIRSS/Generating-Clusters/REBO/Higher-Symm/SD-CG/HFTN-CG
REM
REM
REM
REM
REM
REM ./C.cell (12c818d87b63d06a65506943cc24bca4)
REM
REM compiler GCC version 9.2.1 20190827 (Red Hat 9.2.1-1)
REM options -cpp -mtune=generic -march=x86-64 -g -O0 -fpre-include=/usr/include/finclude/math-vector-fortran.h
REM seed -1845550757 -1843317918 -1047118029 2128803110 944952300 -94831455 349137372 815113084 -370212141 -1308243894 -549434607 -1952124368 782329730 -801147059 -1528999797 -1274157040 1430501578 -1708806778 1068381942 -655597775 -861362902 -172351459 -1530638824 -388152850 -635668932 1036354742 1758232913 772872673 1957023534 -466335169 -147168560 77061543 1551524992
REM
CELL 1.54180   50.00000   50.00000   50.00000   90.00000   90.00000   90.00000
LATT -1
SFAC C  
C      1  0.5142620000000  0.4361410000000  0.4745930000000 1.0
C      1  0.4326190000000  0.5188130000000  0.4777760000000 1.0
C      1  0.5718820000000  0.5523920000000  0.5216660000000 1.0
C      1  0.5115270000000  0.4349140000000  0.5017760000000 1.0
C      1  0.4076490000000  0.5199640000000  0.4726290000000 1.0
C      1  0.5522140000000  0.5399990000000  0.5070140000000 1.0
C      1  0.5127660000000  0.5317710000000  0.5361310000000 1.0
C      1  0.5221260000000  0.4713100000000  0.5356860000000 1.0
C      1  0.4670880000000  0.4935380000000  0.5377840000000 1.0
C      1  0.5092720000000  0.5327420000000  0.4611440000000 1.0
C      1  0.5197540000000  0.4735460000000  0.4610050000000 1.0
C      1  0.4603000000000  0.4944180000000  0.4626640000000 1.0
C      1  0.4982560000000  0.4364100000000  0.5563700000000 1.0
C      1  0.4503610000000  0.5328720000000  0.5577690000000 1.0
C      1  0.5553470000000  0.5256750000000  0.5557520000000 1.0
C      1  0.4927840000000  0.4404000000000  0.4411720000000 1.0
C      1  0.4437710000000  0.5338470000000  0.4424280000000 1.0
C      1  0.5523330000000  0.5290140000000  0.4421720000000 1.0
C      1  0.5597010000000  0.4434920000000  0.4958850000000 1.0
C      1  0.4306180000000  0.4827600000000  0.5059890000000 1.0
C      1  0.5371440000000  0.5526250000000  0.4843710000000 1.0
C      1  0.5833050000000  0.4623640000000  0.4957540000000 1.0
C      1  0.4368010000000  0.5077300000000  0.5159250000000 1.0
C      1  0.5160690000000  0.5700530000000  0.4919530000000 1.0
C      1  0.4645060000000  0.5173520000000  0.4843590000000 1.0
C      1  0.5276480000000  0.5193480000000  0.4832990000000 1.0
C      1  0.4981170000000  0.4670150000000  0.4823790000000 1.0
C      1  0.4692120000000  0.5160330000000  0.5150360000000 1.0
C      1  0.5304970000000  0.5178500000000  0.5156440000000 1.0
C      1  0.5017690000000  0.4631620000000  0.5149580000000 1.0
C      1  0.4758000000000  0.4392870000000  0.4642140000000 1.0
C      1  0.4535040000000  0.5499560000000  0.4640550000000 1.0
C      1  0.5619910000000  0.5131400000000  0.4638970000000 1.0
C      1  0.4796370000000  0.4363540000000  0.5346090000000 1.0
C      1  0.4575170000000  0.5485780000000  0.5349570000000 1.0
C      1  0.5649410000000  0.5095410000000  0.5340290000000 1.0
C      1  0.5806190000000  0.5181380000000  0.4850230000000 1.0
C      1  0.4757230000000  0.4200480000000  0.4852360000000 1.0
C      1  0.4390070000000  0.5598230000000  0.4866380000000 1.0
C      1  0.5830600000000  0.5151640000000  0.5124310000000 1.0
C      1  0.4768100000000  0.4183600000000  0.5126870000000 1.0
C      1  0.4409990000000  0.5588420000000  0.5140920000000 1.0
C      1  0.4565140000000  0.5057190000000  0.5600700000000 1.0
C      1  0.5290920000000  0.5352980000000  0.5581990000000 1.0
C      1  0.5186930000000  0.4554590000000  0.5578250000000 1.0
C      1  0.4485180000000  0.5063100000000  0.4408070000000 1.0
C      1  0.5257060000000  0.5371320000000  0.4394390000000 1.0
C      1  0.5144830000000  0.4579020000000  0.4390500000000 1.0
C      1  0.4671150000000  0.4679650000000  0.4751650000000 1.0
C      1  0.4825590000000  0.5414540000000  0.4732650000000 1.0
C      1  0.5407490000000  0.4912390000000  0.4735040000000 1.0
C      1  0.4714640000000  0.4658230000000  0.5255560000000 1.0
C      1  0.4867630000000  0.5414480000000  0.5235960000000 1.0
C      1  0.5426280000000  0.4892360000000  0.5233780000000 1.0
C      1  0.5524190000000  0.4768100000000  0.4975170000000 1.0
C      1  0.4922150000000  0.5577280000000  0.4975690000000 1.0
C      1  0.4517770000000  0.4656930000000  0.5017870000000 1.0
END
