TITL C-2782230-7391-66 -0.00153884747134776 125000 -897.013809175585 0 0 156 (C1) n - 1
REM
REM in /home/nfs/bkarasulu/CARBON/AIRSS/Generating-Clusters/REBO/Higher-Symm/SD-CG/HFTN-CG
REM
REM
REM
REM
REM
REM ./C.cell (12c818d87b63d06a65506943cc24bca4)
REM
REM compiler GCC version 9.2.1 20190827 (Red Hat 9.2.1-1)
REM options -cpp -mtune=generic -march=x86-64 -g -O0 -fpre-include=/usr/include/finclude/math-vector-fortran.h
REM seed 518859857 1475748412 1428854828 -93860130 1841643638 938485319 1368516083 -1135754664 -896904357 1243330942 1226805207 -248484181 -537545814 48391355 -643830690 1960082861 -1626787261 556678959 1533305655 -1684519914 -537273944 214064470 1090197880 -1996551977 -314750829 -608770823 615814953 -1741882209 -1471654827 -520620258 580201261 -1570067036 -1217221391
REM
CELL 1.54180   50.00000   50.00000   50.00000   90.00000   90.00000   90.00000
LATT -1
SFAC C  
C      1  0.4627320000000  0.6188020000000  0.5140190000000 1.0
C      1  0.4592260000000  0.6203170000000  0.4888600000000 1.0
C      1  0.4431660000000  0.5141030000000  0.5288630000000 1.0
C      1  0.4360040000000  0.5144990000000  0.4956570000000 1.0
C      1  0.4053870000000  0.5176830000000  0.4806140000000 1.0
C      1  0.4104070000000  0.5160700000000  0.5260310000000 1.0
C      1  0.4047690000000  0.5138140000000  0.5582590000000 1.0
C      1  0.4127440000000  0.5083340000000  0.4492560000000 1.0
C      1  0.5191390000000  0.5724070000000  0.4850330000000 1.0
C      1  0.5261620000000  0.5679950000000  0.5154670000000 1.0
C      1  0.5284860000000  0.5286240000000  0.5162880000000 1.0
C      1  0.5189640000000  0.5342410000000  0.4853920000000 1.0
C      1  0.4563040000000  0.4907160000000  0.5591140000000 1.0
C      1  0.4625280000000  0.4801130000000  0.4436840000000 1.0
C      1  0.4214400000000  0.5405070000000  0.5556090000000 1.0
C      1  0.4235460000000  0.5370770000000  0.4363660000000 1.0
C      1  0.5061500000000  0.4396130000000  0.5579580000000 1.0
C      1  0.5089970000000  0.4361850000000  0.4353100000000 1.0
C      1  0.5461090000000  0.4394580000000  0.4808360000000 1.0
C      1  0.5453340000000  0.4309460000000  0.5130530000000 1.0
C      1  0.4177860000000  0.5479510000000  0.4841940000000 1.0
C      1  0.4224510000000  0.5456980000000  0.5160220000000 1.0
C      1  0.4359820000000  0.4709030000000  0.5758750000000 1.0
C      1  0.4406320000000  0.4658500000000  0.4231410000000 1.0
C      1  0.4878070000000  0.4589180000000  0.3928270000000 1.0
C      1  0.4849980000000  0.4609440000000  0.6017690000000 1.0
C      1  0.4850280000000  0.3932360000000  0.4377730000000 1.0
C      1  0.4705360000000  0.4057340000000  0.5575230000000 1.0
C      1  0.4941800000000  0.5385260000000  0.4053490000000 1.0
C      1  0.4927740000000  0.5401800000000  0.5915440000000 1.0
C      1  0.5123290000000  0.4662700000000  0.4457280000000 1.0
C      1  0.5099340000000  0.4710620000000  0.5500230000000 1.0
C      1  0.4138310000000  0.4849250000000  0.4815940000000 1.0
C      1  0.4186610000000  0.4846380000000  0.5156740000000 1.0
C      1  0.5374820000000  0.5926730000000  0.5331690000000 1.0
C      1  0.5356340000000  0.5932980000000  0.4654240000000 1.0
C      1  0.5863660000000  0.5710490000000  0.4897800000000 1.0
C      1  0.5951020000000  0.5765310000000  0.5214650000000 1.0
C      1  0.4725540000000  0.5033510000000  0.5344780000000 1.0
C      1  0.4660590000000  0.5139590000000  0.4949420000000 1.0
C      1  0.4515590000000  0.5507180000000  0.4890990000000 1.0
C      1  0.4565010000000  0.5500400000000  0.5202910000000 1.0
C      1  0.5392310000000  0.4950830000000  0.4829430000000 1.0
C      1  0.5436760000000  0.4785380000000  0.5100740000000 1.0
C      1  0.5895450000000  0.5160010000000  0.5375060000000 1.0
C      1  0.5860750000000  0.5148940000000  0.4622310000000 1.0
C      1  0.5083140000000  0.5108990000000  0.5503300000000 1.0
C      1  0.5045560000000  0.5194830000000  0.4389450000000 1.0
C      1  0.4366200000000  0.4678410000000  0.6075530000000 1.0
C      1  0.4395780000000  0.4680200000000  0.3913010000000 1.0
C      1  0.4987900000000  0.5719110000000  0.4435000000000 1.0
C      1  0.4969110000000  0.5621680000000  0.5584260000000 1.0
C      1  0.4646230000000  0.4289220000000  0.5102270000000 1.0
C      1  0.4638900000000  0.4364120000000  0.4782750000000 1.0
C      1  0.5003910000000  0.5974670000000  0.4406850000000 1.0
C      1  0.4929840000000  0.5870150000000  0.5638630000000 1.0
C      1  0.5266090000000  0.4200230000000  0.5474240000000 1.0
C      1  0.5299650000000  0.4193770000000  0.4504120000000 1.0
C      1  0.4859080000000  0.4794230000000  0.5193130000000 1.0
C      1  0.4804260000000  0.4848330000000  0.4882450000000 1.0
C      1  0.4316990000000  0.5630000000000  0.4571000000000 1.0
C      1  0.4269530000000  0.5699990000000  0.5379740000000 1.0
C      1  0.4854680000000  0.4046710000000  0.5136570000000 1.0
C      1  0.4866300000000  0.4121280000000  0.4817160000000 1.0
C      1  0.5617590000000  0.5381460000000  0.4566950000000 1.0
C      1  0.5673360000000  0.5382860000000  0.5504500000000 1.0
C      1  0.4754200000000  0.4367790000000  0.5564010000000 1.0
C      1  0.4818320000000  0.4227930000000  0.4300890000000 1.0
C      1  0.4547500000000  0.5319970000000  0.5557480000000 1.0
C      1  0.4407100000000  0.5224990000000  0.4631240000000 1.0
C      1  0.5251780000000  0.4048230000000  0.5169340000000 1.0
C      1  0.5264250000000  0.4118280000000  0.4834930000000 1.0
C      1  0.4793650000000  0.3907960000000  0.5392420000000 1.0
C      1  0.4877320000000  0.3886390000000  0.4624070000000 1.0
C      1  0.5039080000000  0.5075320000000  0.5107380000000 1.0
C      1  0.4995550000000  0.5098240000000  0.4770350000000 1.0
C      1  0.5660710000000  0.5934080000000  0.5159840000000 1.0
C      1  0.5626240000000  0.5949140000000  0.4839680000000 1.0
C      1  0.5664010000000  0.4943350000000  0.5387820000000 1.0
C      1  0.5610800000000  0.4991200000000  0.4499010000000 1.0
C      1  0.5045630000000  0.5169040000000  0.6095070000000 1.0
C      1  0.5043860000000  0.5123140000000  0.3912900000000 1.0
C      1  0.5267490000000  0.4967200000000  0.4510690000000 1.0
C      1  0.5322650000000  0.4923570000000  0.5379570000000 1.0
C      1  0.5749070000000  0.4719230000000  0.5154490000000 1.0
C      1  0.5892670000000  0.4735600000000  0.4886370000000 1.0
C      1  0.4398350000000  0.4269950000000  0.5717690000000 1.0
C      1  0.4495490000000  0.4288110000000  0.4370710000000 1.0
C      1  0.5585230000000  0.4746020000000  0.5649500000000 1.0
C      1  0.5604410000000  0.4732250000000  0.4301810000000 1.0
C      1  0.4288660000000  0.4801870000000  0.4510730000000 1.0
C      1  0.4234490000000  0.4867400000000  0.5496480000000 1.0
C      1  0.5760530000000  0.4278230000000  0.4876300000000 1.0
C      1  0.5778660000000  0.4231260000000  0.5167810000000 1.0
C      1  0.4585310000000  0.4635080000000  0.6193760000000 1.0
C      1  0.4605130000000  0.4650290000000  0.3774380000000 1.0
C      1  0.5024410000000  0.4857890000000  0.4046660000000 1.0
C      1  0.5020300000000  0.4897690000000  0.5978320000000 1.0
C      1  0.5478010000000  0.5065940000000  0.5698290000000 1.0
C      1  0.5491910000000  0.5044390000000  0.4189990000000 1.0
C      1  0.5282490000000  0.4645290000000  0.4741800000000 1.0
C      1  0.5245540000000  0.4556120000000  0.5243330000000 1.0
C      1  0.5704660000000  0.4494980000000  0.4450730000000 1.0
C      1  0.5673800000000  0.4470220000000  0.5571140000000 1.0
C      1  0.5443350000000  0.5366170000000  0.4290550000000 1.0
C      1  0.5431560000000  0.5375670000000  0.5734420000000 1.0
C      1  0.4749790000000  0.5981640000000  0.4715300000000 1.0
C      1  0.4789450000000  0.5921740000000  0.5239690000000 1.0
C      1  0.4480660000000  0.5817300000000  0.5139880000000 1.0
C      1  0.4472380000000  0.5827060000000  0.4801140000000 1.0
C      1  0.4838950000000  0.5313070000000  0.5626840000000 1.0
C      1  0.4832370000000  0.5456720000000  0.4332800000000 1.0
C      1  0.5810640000000  0.4472800000000  0.5325240000000 1.0
C      1  0.5827140000000  0.4520840000000  0.4709960000000 1.0
C      1  0.5126160000000  0.4537750000000  0.5858380000000 1.0
C      1  0.5162900000000  0.4490740000000  0.4071330000000 1.0
C      1  0.5666970000000  0.5685870000000  0.4627580000000 1.0
C      1  0.5691530000000  0.5700260000000  0.5410490000000 1.0
C      1  0.4868220000000  0.5677490000000  0.4812920000000 1.0
C      1  0.4936090000000  0.5629100000000  0.5142340000000 1.0
C      1  0.4330060000000  0.4223170000000  0.4571970000000 1.0
C      1  0.4304240000000  0.4172230000000  0.5510010000000 1.0
C      1  0.4652370000000  0.4451960000000  0.4117990000000 1.0
C      1  0.4615860000000  0.4500420000000  0.5818720000000 1.0
C      1  0.5062130000000  0.6026680000000  0.4799210000000 1.0
C      1  0.5102140000000  0.5990160000000  0.5135260000000 1.0
C      1  0.5255790000000  0.5329840000000  0.4041550000000 1.0
C      1  0.5243150000000  0.5396040000000  0.5969620000000 1.0
C      1  0.4701790000000  0.4544890000000  0.5292910000000 1.0
C      1  0.4636350000000  0.4676630000000  0.4719600000000 1.0
C      1  0.5340980000000  0.4758110000000  0.4095110000000 1.0
C      1  0.5313100000000  0.4800820000000  0.5834580000000 1.0
C      1  0.5172390000000  0.5414060000000  0.5433870000000 1.0
C      1  0.5159690000000  0.5452770000000  0.4558190000000 1.0
C      1  0.5382350000000  0.5651220000000  0.5534670000000 1.0
C      1  0.5383840000000  0.5672040000000  0.4437630000000 1.0
C      1  0.5999520000000  0.4991050000000  0.4856030000000 1.0
C      1  0.6076780000000  0.5102780000000  0.5095000000000 1.0
C      1  0.4839980000000  0.5328050000000  0.5228670000000 1.0
C      1  0.4788000000000  0.5371720000000  0.4745620000000 1.0
C      1  0.4907130000000  0.4888270000000  0.4349190000000 1.0
C      1  0.4891980000000  0.4892330000000  0.5677000000000 1.0
C      1  0.4328540000000  0.4242190000000  0.5215740000000 1.0
C      1  0.4313830000000  0.4305090000000  0.4884520000000 1.0
C      1  0.5857780000000  0.5370470000000  0.4882190000000 1.0
C      1  0.5911910000000  0.5447330000000  0.5193030000000 1.0
C      1  0.5549900000000  0.5217320000000  0.4860480000000 1.0
C      1  0.5592710000000  0.5324810000000  0.5176970000000 1.0
C      1  0.5508990000000  0.4241130000000  0.5597630000000 1.0
C      1  0.5555740000000  0.4254060000000  0.4421780000000 1.0
C      1  0.4443850000000  0.5629610000000  0.5657400000000 1.0
C      1  0.4563250000000  0.5443800000000  0.4422690000000 1.0
C      1  0.5055430000000  0.4322010000000  0.5106570000000 1.0
C      1  0.5064030000000  0.4397220000000  0.4786840000000 1.0
C      1  0.4382280000000  0.4574100000000  0.5187670000000 1.0
C      1  0.4357510000000  0.4632770000000  0.4866270000000 1.0
END
