TITL C-2782237-5345-240 0.00120957924534042 125000 -474.622186731359 0 0 86 (C1) n - 1
REM
REM in /home/nfs/bkarasulu/CARBON/AIRSS/Generating-Clusters/REBO/Higher-Symm/SD-CG/HFTN-CG
REM
REM
REM
REM
REM
REM ./C.cell (12c818d87b63d06a65506943cc24bca4)
REM
REM compiler GCC version 9.2.1 20190827 (Red Hat 9.2.1-1)
REM options -cpp -mtune=generic -march=x86-64 -g -O0 -fpre-include=/usr/include/finclude/math-vector-fortran.h
REM seed 921934069 -1609439804 1285809376 -710325163 -361319836 -1364392619 658664607 -1045891059 -1491897984 -763005054 -120544485 -788383188 1942525866 2145122304 236018345 -1587246983 2064028686 -1897922045 -988405319 -159330996 1076936643 1119033479 430077043 235590512 1948153399 -2079117039 -669921274 -2087048571 -1751314082 -2061442006 -1489427358 1553408644 978735185
REM
CELL 1.54180   50.00000   50.00000   50.00000   90.00000   90.00000   90.00000
LATT -1
SFAC C  
C      1  0.4789300000000  0.5037760000000  0.5664330000000 1.0
C      1  0.4874600000000  0.4367560000000  0.4628240000000 1.0
C      1  0.4809890000000  0.5563930000000  0.4568740000000 1.0
C      1  0.5095880000000  0.5030750000000  0.5679780000000 1.0
C      1  0.5172600000000  0.4308000000000  0.4576850000000 1.0
C      1  0.5126270000000  0.5517880000000  0.4577690000000 1.0
C      1  0.5190270000000  0.4755910000000  0.5030010000000 1.0
C      1  0.5178480000000  0.4970220000000  0.4780330000000 1.0
C      1  0.5259320000000  0.5209920000000  0.5083820000000 1.0
C      1  0.4873740000000  0.4764420000000  0.5158910000000 1.0
C      1  0.4864340000000  0.5089950000000  0.4780100000000 1.0
C      1  0.4944870000000  0.5068190000000  0.5088810000000 1.0
C      1  0.5572550000000  0.4522430000000  0.4838910000000 1.0
C      1  0.5595450000000  0.5428780000000  0.4559280000000 1.0
C      1  0.5561370000000  0.5189280000000  0.5574960000000 1.0
C      1  0.4476820000000  0.4496440000000  0.4958730000000 1.0
C      1  0.4358900000000  0.5358350000000  0.4570110000000 1.0
C      1  0.4359960000000  0.5216830000000  0.5547950000000 1.0
C      1  0.5831670000000  0.4700960000000  0.4932580000000 1.0
C      1  0.5813310000000  0.4961500000000  0.4463210000000 1.0
C      1  0.5759590000000  0.5309030000000  0.5349060000000 1.0
C      1  0.4184770000000  0.4649620000000  0.5034280000000 1.0
C      1  0.4226860000000  0.5022670000000  0.4587590000000 1.0
C      1  0.4269020000000  0.5603890000000  0.5219070000000 1.0
C      1  0.4848030000000  0.5774310000000  0.4985720000000 1.0
C      1  0.4937320000000  0.4651960000000  0.5878310000000 1.0
C      1  0.4833180000000  0.4564790000000  0.4283210000000 1.0
C      1  0.5182720000000  0.5712630000000  0.4971800000000 1.0
C      1  0.5256450000000  0.4668330000000  0.5857640000000 1.0
C      1  0.5160900000000  0.4534860000000  0.4224780000000 1.0
C      1  0.4875890000000  0.5191250000000  0.5390620000000 1.0
C      1  0.4865610000000  0.4564360000000  0.4900860000000 1.0
C      1  0.4842040000000  0.5255900000000  0.4495770000000 1.0
C      1  0.5203110000000  0.5112200000000  0.5385940000000 1.0
C      1  0.5178140000000  0.4461930000000  0.4866530000000 1.0
C      1  0.5150450000000  0.5183390000000  0.4519850000000 1.0
C      1  0.4514340000000  0.4660540000000  0.5673100000000 1.0
C      1  0.4327250000000  0.4742160000000  0.4454870000000 1.0
C      1  0.4353730000000  0.5811900000000  0.5063850000000 1.0
C      1  0.5632260000000  0.4660290000000  0.6242280000000 1.0
C      1  0.5755860000000  0.4706170000000  0.4363710000000 1.0
C      1  0.5691970000000  0.5498850000000  0.5147900000000 1.0
C      1  0.5233640000000  0.4275160000000  0.5144190000000 1.0
C      1  0.5278260000000  0.5156830000000  0.4218790000000 1.0
C      1  0.5100220000000  0.5506700000000  0.5587960000000 1.0
C      1  0.4943760000000  0.4351820000000  0.5169040000000 1.0
C      1  0.4707090000000  0.5173490000000  0.4208990000000 1.0
C      1  0.4813670000000  0.5502180000000  0.5452450000000 1.0
C      1  0.4848960000000  0.4802920000000  0.4503510000000 1.0
C      1  0.4776170000000  0.5479760000000  0.5132850000000 1.0
C      1  0.4982560000000  0.4664050000000  0.5570060000000 1.0
C      1  0.5131470000000  0.4790000000000  0.4417690000000 1.0
C      1  0.5056080000000  0.5442220000000  0.5011680000000 1.0
C      1  0.5279210000000  0.4702470000000  0.5545300000000 1.0
C      1  0.4648760000000  0.4437440000000  0.5206530000000 1.0
C      1  0.4487430000000  0.5103100000000  0.4396410000000 1.0
C      1  0.4497000000000  0.5479910000000  0.5418030000000 1.0
C      1  0.5469390000000  0.4477140000000  0.5134050000000 1.0
C      1  0.5575530000000  0.5174360000000  0.4359370000000 1.0
C      1  0.5321420000000  0.5408300000000  0.5626540000000 1.0
C      1  0.4592820000000  0.4345250000000  0.4708130000000 1.0
C      1  0.4536870000000  0.5607850000000  0.4571280000000 1.0
C      1  0.4512720000000  0.5058770000000  0.5707620000000 1.0
C      1  0.5462400000000  0.4334600000000  0.4616920000000 1.0
C      1  0.5394810000000  0.5610680000000  0.4579850000000 1.0
C      1  0.5368250000000  0.5046070000000  0.5788340000000 1.0
C      1  0.4321350000000  0.5206640000000  0.4857670000000 1.0
C      1  0.4222430000000  0.5261780000000  0.5239550000000 1.0
C      1  0.4429300000000  0.4821640000000  0.4867760000000 1.0
C      1  0.5725900000000  0.5161470000000  0.4725720000000 1.0
C      1  0.5611210000000  0.5006130000000  0.5290920000000 1.0
C      1  0.5491410000000  0.4842450000000  0.4782020000000 1.0
C      1  0.4517940000000  0.5333510000000  0.5080680000000 1.0
C      1  0.4702130000000  0.4668660000000  0.5418230000000 1.0
C      1  0.4608360000000  0.4933470000000  0.4664850000000 1.0
C      1  0.5517250000000  0.5320740000000  0.4935820000000 1.0
C      1  0.5410420000000  0.4758630000000  0.5284090000000 1.0
C      1  0.5422810000000  0.4893890000000  0.4478110000000 1.0
C      1  0.5464460000000  0.5656900000000  0.4970360000000 1.0
C      1  0.5449130000000  0.4664210000000  0.6054850000000 1.0
C      1  0.5463350000000  0.4615700000000  0.4287820000000 1.0
C      1  0.4595780000000  0.5908910000000  0.4966000000000 1.0
C      1  0.4654100000000  0.4641190000000  0.5914330000000 1.0
C      1  0.4537650000000  0.4607300000000  0.4346530000000 1.0
C      1  0.5716380000000  0.4979320000000  0.4996740000000 1.0
C      1  0.4196870000000  0.4982440000000  0.5064220000000 1.0
END
