TITL C-2782239-8622-68 0.000708336319263862 125000 -750.377847122739 0 0 123 (C1) n - 1
REM
REM in /home/nfs/bkarasulu/CARBON/AIRSS/Generating-Clusters/REBO/Higher-Symm/SD-CG/HFTN-CG
REM
REM
REM
REM
REM
REM ./C.cell (12c818d87b63d06a65506943cc24bca4)
REM
REM compiler GCC version 9.2.1 20190827 (Red Hat 9.2.1-1)
REM options -cpp -mtune=generic -march=x86-64 -g -O0 -fpre-include=/usr/include/finclude/math-vector-fortran.h
REM seed -734236976 -1762496043 -422441233 -299826383 1324364684 -1434029598 394107863 538346922 1101414242 -918089161 -1112141824 577395459 1489783288 -924332437 575902496 -446242710 -64445395 -1997883366 277826415 866560297 -881724029 -46455219 30937846 1698158010 -1657015605 491094609 1352640148 -590220507 1421857900 1007097906 896858799 -656900829 768502486
REM
CELL 1.54180   50.00000   50.00000   50.00000   90.00000   90.00000   90.00000
LATT -1
SFAC C  
C      1  0.4883200000000  0.5882000000000  0.4090840000000 1.0
C      1  0.5157230000000  0.5808490000000  0.6037110000000 1.0
C      1  0.4861420000000  0.4089480000000  0.4235330000000 1.0
C      1  0.5142090000000  0.4164110000000  0.6000750000000 1.0
C      1  0.5175960000000  0.5836660000000  0.3985790000000 1.0
C      1  0.4859590000000  0.5834520000000  0.5938880000000 1.0
C      1  0.5159590000000  0.4111770000000  0.4301630000000 1.0
C      1  0.4840690000000  0.4166250000000  0.6078700000000 1.0
C      1  0.5432240000000  0.4519630000000  0.5116410000000 1.0
C      1  0.4553420000000  0.4540400000000  0.4852780000000 1.0
C      1  0.5418060000000  0.5444470000000  0.5129960000000 1.0
C      1  0.4476280000000  0.5439460000000  0.4867160000000 1.0
C      1  0.4571420000000  0.4522900000000  0.5123340000000 1.0
C      1  0.5431150000000  0.4486910000000  0.4845570000000 1.0
C      1  0.4482760000000  0.5428720000000  0.5137860000000 1.0
C      1  0.5435360000000  0.5447240000000  0.4852570000000 1.0
C      1  0.4897600000000  0.3975250000000  0.4738230000000 1.0
C      1  0.5127200000000  0.3917610000000  0.5171090000000 1.0
C      1  0.4896450000000  0.5956220000000  0.4725080000000 1.0
C      1  0.5105050000000  0.6013310000000  0.5178350000000 1.0
C      1  0.5154720000000  0.3945430000000  0.4862960000000 1.0
C      1  0.4861060000000  0.3923910000000  0.5265340000000 1.0
C      1  0.5133940000000  0.5995040000000  0.4875000000000 1.0
C      1  0.4866030000000  0.5966980000000  0.5315000000000 1.0
C      1  0.5574950000000  0.5272170000000  0.5587750000000 1.0
C      1  0.4402560000000  0.5330770000000  0.4371850000000 1.0
C      1  0.5564570000000  0.4675750000000  0.5587720000000 1.0
C      1  0.4426620000000  0.4717790000000  0.4382340000000 1.0
C      1  0.4397720000000  0.5299060000000  0.5618350000000 1.0
C      1  0.5587700000000  0.5269690000000  0.4401070000000 1.0
C      1  0.4455890000000  0.4685660000000  0.5601990000000 1.0
C      1  0.5604220000000  0.4695260000000  0.4377050000000 1.0
C      1  0.4885370000000  0.5899210000000  0.5601250000000 1.0
C      1  0.5208410000000  0.5915080000000  0.4307320000000 1.0
C      1  0.4843840000000  0.4025480000000  0.5776610000000 1.0
C      1  0.5169130000000  0.4367420000000  0.4533390000000 1.0
C      1  0.5177630000000  0.5921980000000  0.5725520000000 1.0
C      1  0.4916670000000  0.5906320000000  0.4433980000000 1.0
C      1  0.5134010000000  0.4040900000000  0.5689270000000 1.0
C      1  0.4875290000000  0.4296700000000  0.4504490000000 1.0
C      1  0.4486420000000  0.4432340000000  0.4409110000000 1.0
C      1  0.5491910000000  0.4400490000000  0.5560590000000 1.0
C      1  0.4497240000000  0.5596890000000  0.4433450000000 1.0
C      1  0.5512590000000  0.5553260000000  0.5573070000000 1.0
C      1  0.5568170000000  0.4405540000000  0.4394800000000 1.0
C      1  0.4523070000000  0.4410220000000  0.5576760000000 1.0
C      1  0.5534910000000  0.5550690000000  0.4412030000000 1.0
C      1  0.4485110000000  0.5570120000000  0.5572430000000 1.0
C      1  0.5265940000000  0.5206650000000  0.4721180000000 1.0
C      1  0.4645620000000  0.5176940000000  0.5258230000000 1.0
C      1  0.5232590000000  0.4694640000000  0.4719140000000 1.0
C      1  0.4759140000000  0.4760820000000  0.5198090000000 1.0
C      1  0.4627270000000  0.5198810000000  0.4739310000000 1.0
C      1  0.5221030000000  0.5264940000000  0.5212080000000 1.0
C      1  0.4741870000000  0.4774660000000  0.4763440000000 1.0
C      1  0.5261720000000  0.4773360000000  0.5202960000000 1.0
C      1  0.5498680000000  0.5659980000000  0.4678530000000 1.0
C      1  0.4491900000000  0.5657790000000  0.5298330000000 1.0
C      1  0.5536350000000  0.4287960000000  0.4665480000000 1.0
C      1  0.4551670000000  0.4308830000000  0.5304930000000 1.0
C      1  0.4499500000000  0.5673340000000  0.4713200000000 1.0
C      1  0.5479710000000  0.5663190000000  0.5305840000000 1.0
C      1  0.4519770000000  0.4317550000000  0.4681520000000 1.0
C      1  0.5474470000000  0.4302100000000  0.5290490000000 1.0
C      1  0.5143390000000  0.4861820000000  0.5482460000000 1.0
C      1  0.4834320000000  0.4861070000000  0.4476140000000 1.0
C      1  0.5138910000000  0.5183940000000  0.5488360000000 1.0
C      1  0.4800210000000  0.5168960000000  0.4506420000000 1.0
C      1  0.4833080000000  0.4782800000000  0.5515250000000 1.0
C      1  0.5142790000000  0.4810060000000  0.4432640000000 1.0
C      1  0.4824290000000  0.5102850000000  0.5485560000000 1.0
C      1  0.5120270000000  0.5139590000000  0.4460460000000 1.0
C      1  0.4853940000000  0.5355440000000  0.4235200000000 1.0
C      1  0.5183340000000  0.5342060000000  0.5780680000000 1.0
C      1  0.4855440000000  0.4686820000000  0.4183230000000 1.0
C      1  0.5125460000000  0.4643170000000  0.5747160000000 1.0
C      1  0.5177150000000  0.5335780000000  0.4188000000000 1.0
C      1  0.4864740000000  0.5322680000000  0.5743960000000 1.0
C      1  0.5186910000000  0.4656350000000  0.4143970000000 1.0
C      1  0.4800330000000  0.4612950000000  0.5791230000000 1.0
C      1  0.5544680000000  0.4810270000000  0.4644560000000 1.0
C      1  0.4460290000000  0.4833820000000  0.5344080000000 1.0
C      1  0.5585540000000  0.5125530000000  0.4672620000000 1.0
C      1  0.4323710000000  0.5139940000000  0.5360480000000 1.0
C      1  0.4435090000000  0.4860470000000  0.4647460000000 1.0
C      1  0.5573780000000  0.4828160000000  0.5326960000000 1.0
C      1  0.4311470000000  0.5171480000000  0.4622650000000 1.0
C      1  0.5687840000000  0.5131860000000  0.5377400000000 1.0
C      1  0.5846430000000  0.5153620000000  0.4863310000000 1.0
C      1  0.4085340000000  0.5130160000000  0.5140770000000 1.0
C      1  0.5795210000000  0.4827740000000  0.4831120000000 1.0
C      1  0.4208420000000  0.4821320000000  0.5154130000000 1.0
C      1  0.4068660000000  0.5174570000000  0.4834850000000 1.0
C      1  0.5899780000000  0.5186780000000  0.5165840000000 1.0
C      1  0.4196530000000  0.4874210000000  0.4858590000000 1.0
C      1  0.5824710000000  0.4858770000000  0.5127470000000 1.0
C      1  0.5412870000000  0.4052350000000  0.5146990000000 1.0
C      1  0.4649920000000  0.4089990000000  0.4841720000000 1.0
C      1  0.5403630000000  0.5908990000000  0.5155840000000 1.0
C      1  0.4658170000000  0.5872110000000  0.4861500000000 1.0
C      1  0.4642890000000  0.4073910000000  0.5150940000000 1.0
C      1  0.5451970000000  0.4043810000000  0.4812560000000 1.0
C      1  0.4644530000000  0.5869290000000  0.5163520000000 1.0
C      1  0.5429840000000  0.5907400000000  0.4817200000000 1.0
C      1  0.5448840000000  0.4843520000000  0.4178690000000 1.0
C      1  0.4579280000000  0.4865420000000  0.5813050000000 1.0
C      1  0.5426730000000  0.5121910000000  0.4204250000000 1.0
C      1  0.4578710000000  0.5145780000000  0.5796100000000 1.0
C      1  0.4575600000000  0.4881290000000  0.4174680000000 1.0
C      1  0.5403310000000  0.4829710000000  0.5782460000000 1.0
C      1  0.4572860000000  0.5168430000000  0.4180780000000 1.0
C      1  0.5408140000000  0.5108290000000  0.5773730000000 1.0
C      1  0.4754000000000  0.5649580000000  0.4288060000000 1.0
C      1  0.5313700000000  0.5627400000000  0.5795430000000 1.0
C      1  0.4729850000000  0.4395920000000  0.4218250000000 1.0
C      1  0.5255420000000  0.4349300000000  0.5739020000000 1.0
C      1  0.5321510000000  0.5618700000000  0.4202630000000 1.0
C      1  0.4743340000000  0.5615800000000  0.5716080000000 1.0
C      1  0.5320150000000  0.4372610000000  0.4208060000000 1.0
C      1  0.4687140000000  0.4317110000000  0.5821250000000 1.0
C      1  0.5012980000000  0.4774530000000  0.4969900000000 1.0
C      1  0.4797640000000  0.5134020000000  0.4989500000000 1.0
C      1  0.5081330000000  0.5167710000000  0.4982640000000 1.0
END
