TITL C-2782234-8014-1265 -0.00482223399148045 125000 -649.217985399377 0 0 113 (C1) n - 1
REM
REM in /home/nfs/bkarasulu/CARBON/AIRSS/Generating-Clusters/REBO/Higher-Symm/SD-CG/HFTN-CG
REM
REM
REM
REM
REM
REM ./C.cell (12c818d87b63d06a65506943cc24bca4)
REM
REM compiler GCC version 9.2.1 20190827 (Red Hat 9.2.1-1)
REM options -cpp -mtune=generic -march=x86-64 -g -O0 -fpre-include=/usr/include/finclude/math-vector-fortran.h
REM seed 810460923 -365755 1663981834 610621871 -768099219 705449648 -819897179 -1650114646 -288153602 -959976035 251766745 -108850090 -1653522412 969576194 359784019 -1216692178 2070546706 -389677704 1399850176 132404770 -1853000686 -1989866770 1110527604 1670621556 1344687048 -107326061 -1792582738 1292818856 577316954 1590520592 298825470 1982069102 1315286479
REM
CELL 1.54180   50.00000   50.00000   50.00000   90.00000   90.00000   90.00000
LATT -1
SFAC C  
C      1  0.4503170000000  0.5815760000000  0.4275530000000 1.0
C      1  0.4877200000000  0.5822440000000  0.5427270000000 1.0
C      1  0.4798700000000  0.4663800000000  0.5813910000000 1.0
C      1  0.4821860000000  0.4108220000000  0.4572860000000 1.0
C      1  0.5019240000000  0.4519110000000  0.5040170000000 1.0
C      1  0.5009010000000  0.4841260000000  0.4423030000000 1.0
C      1  0.4828890000000  0.5433510000000  0.4974920000000 1.0
C      1  0.4978440000000  0.5125640000000  0.5511910000000 1.0
C      1  0.4976370000000  0.4821510000000  0.5090850000000 1.0
C      1  0.5027280000000  0.4924240000000  0.4707730000000 1.0
C      1  0.5001500000000  0.5185090000000  0.4840830000000 1.0
C      1  0.5012040000000  0.5145210000000  0.5176460000000 1.0
C      1  0.5341290000000  0.6020560000000  0.5116060000000 1.0
C      1  0.5468430000000  0.4907200000000  0.5785070000000 1.0
C      1  0.5470250000000  0.4222550000000  0.4902260000000 1.0
C      1  0.5460550000000  0.5101640000000  0.4090010000000 1.0
C      1  0.4730180000000  0.4743610000000  0.4353330000000 1.0
C      1  0.4669310000000  0.5625430000000  0.4839200000000 1.0
C      1  0.4716830000000  0.5305090000000  0.5611900000000 1.0
C      1  0.4781940000000  0.4377810000000  0.5176620000000 1.0
C      1  0.5236000000000  0.4896070000000  0.4174580000000 1.0
C      1  0.5251880000000  0.5822110000000  0.4871240000000 1.0
C      1  0.5239420000000  0.5114200000000  0.5714160000000 1.0
C      1  0.5204850000000  0.4247330000000  0.5070490000000 1.0
C      1  0.4177750000000  0.5493930000000  0.5218330000000 1.0
C      1  0.4264950000000  0.4840760000000  0.5466030000000 1.0
C      1  0.4258880000000  0.4497480000000  0.4777190000000 1.0
C      1  0.4324300000000  0.5173340000000  0.4554630000000 1.0
C      1  0.6001600000000  0.5141000000000  0.5021140000000 1.0
C      1  0.5984930000000  0.4912260000000  0.5236970000000 1.0
C      1  0.5944520000000  0.4655660000000  0.5048910000000 1.0
C      1  0.5940980000000  0.4891510000000  0.4841410000000 1.0
C      1  0.4647820000000  0.4533640000000  0.4680890000000 1.0
C      1  0.4697880000000  0.5307670000000  0.4598110000000 1.0
C      1  0.4571630000000  0.5464350000000  0.5277050000000 1.0
C      1  0.4644080000000  0.4721290000000  0.5450850000000 1.0
C      1  0.4955600000000  0.4615370000000  0.4748850000000 1.0
C      1  0.5008740000000  0.5446320000000  0.4622040000000 1.0
C      1  0.4913980000000  0.5449700000000  0.5287450000000 1.0
C      1  0.4941060000000  0.4827770000000  0.5408520000000 1.0
C      1  0.5012720000000  0.5794180000000  0.5113080000000 1.0
C      1  0.5072650000000  0.4849330000000  0.5784810000000 1.0
C      1  0.5037880000000  0.4193400000000  0.4809200000000 1.0
C      1  0.5088170000000  0.5181300000000  0.4230060000000 1.0
C      1  0.4908510000000  0.4429720000000  0.4190360000000 1.0
C      1  0.4739030000000  0.5852170000000  0.4517170000000 1.0
C      1  0.4975360000000  0.5603530000000  0.5673750000000 1.0
C      1  0.4885040000000  0.4208920000000  0.5519980000000 1.0
C      1  0.4785120000000  0.5003640000000  0.5863690000000 1.0
C      1  0.4723960000000  0.4097860000000  0.4898660000000 1.0
C      1  0.4828710000000  0.5067670000000  0.4147110000000 1.0
C      1  0.4683540000000  0.5875150000000  0.5150340000000 1.0
C      1  0.5162290000000  0.4098280000000  0.5355850000000 1.0
C      1  0.5191510000000  0.4578500000000  0.4183230000000 1.0
C      1  0.5012470000000  0.5754190000000  0.4683790000000 1.0
C      1  0.5245490000000  0.5426040000000  0.5779330000000 1.0
C      1  0.5421740000000  0.5419800000000  0.5312640000000 1.0
C      1  0.5374280000000  0.4547360000000  0.5342440000000 1.0
C      1  0.5346540000000  0.4679500000000  0.4698370000000 1.0
C      1  0.5373960000000  0.5322200000000  0.4727620000000 1.0
C      1  0.5688740000000  0.4744500000000  0.4407610000000 1.0
C      1  0.5722940000000  0.5613010000000  0.4923330000000 1.0
C      1  0.5728880000000  0.5182000000000  0.5600510000000 1.0
C      1  0.5687970000000  0.4249800000000  0.5235950000000 1.0
C      1  0.5539520000000  0.4823950000000  0.5350210000000 1.0
C      1  0.5437000000000  0.4636820000000  0.5015730000000 1.0
C      1  0.5449100000000  0.4998480000000  0.4766530000000 1.0
C      1  0.5503310000000  0.5279900000000  0.5044990000000 1.0
C      1  0.4110210000000  0.4982750000000  0.5197280000000 1.0
C      1  0.4131870000000  0.4720640000000  0.4987190000000 1.0
C      1  0.4150130000000  0.5000270000000  0.4794000000000 1.0
C      1  0.4080710000000  0.5258810000000  0.5002020000000 1.0
C      1  0.5730180000000  0.4900240000000  0.4644770000000 1.0
C      1  0.5822530000000  0.5352640000000  0.5016740000000 1.0
C      1  0.5780090000000  0.4946190000000  0.5444460000000 1.0
C      1  0.5720470000000  0.4483630000000  0.5072470000000 1.0
C      1  0.4300060000000  0.4636270000000  0.5246220000000 1.0
C      1  0.4275670000000  0.4755040000000  0.4617790000000 1.0
C      1  0.4231830000000  0.5386450000000  0.4748880000000 1.0
C      1  0.4232250000000  0.5237600000000  0.5370040000000 1.0
C      1  0.4435470000000  0.5190150000000  0.5551760000000 1.0
C      1  0.4496490000000  0.4456930000000  0.5186890000000 1.0
C      1  0.4465710000000  0.4820470000000  0.4438260000000 1.0
C      1  0.4375890000000  0.5609690000000  0.4816690000000 1.0
C      1  0.5448880000000  0.4249880000000  0.5383920000000 1.0
C      1  0.5433000000000  0.4619470000000  0.4383550000000 1.0
C      1  0.5467480000000  0.5613840000000  0.4828430000000 1.0
C      1  0.5514260000000  0.5367200000000  0.5578630000000 1.0
C      1  0.4757290000000  0.4350350000000  0.4416240000000 1.0
C      1  0.4574400000000  0.5563430000000  0.4457670000000 1.0
C      1  0.4663370000000  0.5613710000000  0.5551660000000 1.0
C      1  0.4759360000000  0.4444000000000  0.5604660000000 1.0
C      1  0.4590430000000  0.5117980000000  0.4348230000000 1.0
C      1  0.4409960000000  0.5703440000000  0.5131780000000 1.0
C      1  0.4517680000000  0.4910490000000  0.5675280000000 1.0
C      1  0.4510020000000  0.4327760000000  0.4888560000000 1.0
C      1  0.5312830000000  0.5912430000000  0.5347310000000 1.0
C      1  0.5422010000000  0.4666640000000  0.5720380000000 1.0
C      1  0.5449150000000  0.4295030000000  0.4659680000000 1.0
C      1  0.5459110000000  0.5327770000000  0.4203820000000 1.0
C      1  0.4853650000000  0.4062830000000  0.5211690000000 1.0
C      1  0.4885530000000  0.4743830000000  0.4057350000000 1.0
C      1  0.4770240000000  0.5942590000000  0.4834990000000 1.0
C      1  0.4929400000000  0.5314170000000  0.5860640000000 1.0
C      1  0.4551070000000  0.5194770000000  0.5132650000000 1.0
C      1  0.4643670000000  0.4873040000000  0.5146240000000 1.0
C      1  0.4619840000000  0.4823350000000  0.4809410000000 1.0
C      1  0.4606540000000  0.5127450000000  0.4840700000000 1.0
C      1  0.5144920000000  0.4623470000000  0.5541080000000 1.0
C      1  0.5155850000000  0.4419920000000  0.4583760000000 1.0
C      1  0.5242840000000  0.5369240000000  0.4434350000000 1.0
C      1  0.5193780000000  0.5604710000000  0.5328990000000 1.0
C      1  0.5447670000000  0.4968050000000  0.5087840000000 1.0
END
