TITL C-2782226-7400-1076 -0.000358259158936037 125000 -249.367666307883 0 0 45 (C1) n - 1
REM
REM in /home/nfs/bkarasulu/CARBON/AIRSS/Generating-Clusters/REBO/Higher-Symm/SD-CG/HFTN-CG
REM
REM
REM
REM
REM
REM ./C.cell (12c818d87b63d06a65506943cc24bca4)
REM
REM compiler GCC version 9.2.1 20190827 (Red Hat 9.2.1-1)
REM options -cpp -mtune=generic -march=x86-64 -g -O0 -fpre-include=/usr/include/finclude/math-vector-fortran.h
REM seed 1364988366 1727158081 386983324 -1113329420 393864599 1897781597 -963425224 1171314386 389081099 180943762 984924188 -585201900 269154684 -1610864421 1707290747 66720410 -1522061628 -1059847433 -1166383757 1307398726 -192255444 -1929761389 -2041647027 1120669173 342355660 2100905826 1958821782 -150173429 1209360611 1250542702 140345373 638479795 1279955911
REM
CELL 1.54180   50.00000   50.00000   50.00000   90.00000   90.00000   90.00000
LATT -1
SFAC C  
C      1  0.5120050000000  0.4794410000000  0.5246250000000 1.0
C      1  0.4824000000000  0.5219700000000  0.5234720000000 1.0
C      1  0.5150670000000  0.5627990000000  0.4916390000000 1.0
C      1  0.4854590000000  0.4384070000000  0.4915420000000 1.0
C      1  0.4774160000000  0.4497730000000  0.5228840000000 1.0
C      1  0.5248790000000  0.5523220000000  0.5225530000000 1.0
C      1  0.4794260000000  0.4608940000000  0.5516360000000 1.0
C      1  0.5296090000000  0.5445920000000  0.5512900000000 1.0
C      1  0.4900550000000  0.4578040000000  0.4428600000000 1.0
C      1  0.5143220000000  0.5411790000000  0.4444060000000 1.0
C      1  0.4732170000000  0.5356860000000  0.4941410000000 1.0
C      1  0.5259630000000  0.4693160000000  0.4959600000000 1.0
C      1  0.5399130000000  0.5332700000000  0.5020410000000 1.0
C      1  0.4588450000000  0.4661050000000  0.5025070000000 1.0
C      1  0.4410460000000  0.4896110000000  0.5135730000000 1.0
C      1  0.5529660000000  0.5072650000000  0.5143860000000 1.0
C      1  0.5714350000000  0.4944910000000  0.5587770000000 1.0
C      1  0.4247560000000  0.4954750000000  0.5597970000000 1.0
C      1  0.5019930000000  0.5140190000000  0.4410570000000 1.0
C      1  0.5027610000000  0.4854930000000  0.4408270000000 1.0
C      1  0.5523450000000  0.4865970000000  0.4942730000000 1.0
C      1  0.4380770000000  0.5090840000000  0.4942450000000 1.0
C      1  0.4708770000000  0.5066030000000  0.5461140000000 1.0
C      1  0.5195990000000  0.4929720000000  0.5523540000000 1.0
C      1  0.4441330000000  0.4976190000000  0.5409630000000 1.0
C      1  0.5503010000000  0.4990370000000  0.5415300000000 1.0
C      1  0.5591980000000  0.5489400000000  0.4842510000000 1.0
C      1  0.4428010000000  0.4469800000000  0.4847830000000 1.0
C      1  0.5057870000000  0.4787120000000  0.4729700000000 1.0
C      1  0.4901460000000  0.5227380000000  0.4703390000000 1.0
C      1  0.5354260000000  0.4946200000000  0.4667000000000 1.0
C      1  0.4595550000000  0.5088990000000  0.4705480000000 1.0
C      1  0.4773400000000  0.4860340000000  0.4862070000000 1.0
C      1  0.5190360000000  0.5155470000000  0.4857060000000 1.0
C      1  0.5092210000000  0.4474200000000  0.5132050000000 1.0
C      1  0.4927610000000  0.5527350000000  0.5150920000000 1.0
C      1  0.4883460000000  0.4866120000000  0.5560190000000 1.0
C      1  0.5262930000000  0.5228150000000  0.5627610000000 1.0
C      1  0.5753020000000  0.5620260000000  0.4693950000000 1.0
C      1  0.4294270000000  0.4310390000000  0.4700090000000 1.0
C      1  0.5174560000000  0.5579500000000  0.4657260000000 1.0
C      1  0.4846020000000  0.4427000000000  0.4652490000000 1.0
C      1  0.5481060000000  0.4971310000000  0.4399310000000 1.0
C      1  0.4473860000000  0.5060280000000  0.4429830000000 1.0
C      1  0.4981720000000  0.5009210000000  0.5053120000000 1.0
END
