TITL C-2782235-7892-955 0.00190685411484938 125000 -363.991275634733 0 0 62 (C1) n - 1
REM
REM in /home/nfs/bkarasulu/CARBON/AIRSS/Generating-Clusters/REBO/Higher-Symm/SD-CG/HFTN-CG
REM
REM
REM
REM
REM
REM ./C.cell (12c818d87b63d06a65506943cc24bca4)
REM
REM compiler GCC version 9.2.1 20190827 (Red Hat 9.2.1-1)
REM options -cpp -mtune=generic -march=x86-64 -g -O0 -fpre-include=/usr/include/finclude/math-vector-fortran.h
REM seed 2072214065 -1272780746 -1020657737 225104319 1419922946 -105898313 272959007 -1440228454 -970379910 203693122 1124654737 -1489210837 -634867817 2089936310 1428689539 -955440074 715771717 -1628455762 1104031994 -1562468698 1650731366 -961710482 -541995815 110097047 33330936 547079302 97812907 299694855 1293590493 1648265083 -745675381 1061976192 1681506984
REM
CELL 1.54180   50.00000   50.00000   50.00000   90.00000   90.00000   90.00000
LATT -1
SFAC C  
C      1  0.5257310000000  0.4500340000000  0.5334810000000 1.0
C      1  0.5237690000000  0.5483630000000  0.4662690000000 1.0
C      1  0.4729690000000  0.4500610000000  0.5354470000000 1.0
C      1  0.4725030000000  0.5421390000000  0.4648910000000 1.0
C      1  0.5263340000000  0.4970720000000  0.5672090000000 1.0
C      1  0.5255970000000  0.5004990000000  0.4330140000000 1.0
C      1  0.4743410000000  0.4971330000000  0.5672030000000 1.0
C      1  0.4749460000000  0.4986650000000  0.4322640000000 1.0
C      1  0.5236970000000  0.4299380000000  0.5119390000000 1.0
C      1  0.5216460000000  0.5692930000000  0.4868730000000 1.0
C      1  0.4723490000000  0.4331400000000  0.5099470000000 1.0
C      1  0.4709460000000  0.5607590000000  0.4901780000000 1.0
C      1  0.5505130000000  0.4968430000000  0.5449400000000 1.0
C      1  0.5496560000000  0.5049600000000  0.4548450000000 1.0
C      1  0.4528530000000  0.4970020000000  0.5424930000000 1.0
C      1  0.4532850000000  0.5086710000000  0.4544420000000 1.0
C      1  0.4178640000000  0.5102910000000  0.5111820000000 1.0
C      1  0.4180140000000  0.4979160000000  0.4853420000000 1.0
C      1  0.5852590000000  0.5079010000000  0.5121950000000 1.0
C      1  0.5852160000000  0.4949420000000  0.4865290000000 1.0
C      1  0.5269790000000  0.5236350000000  0.4815250000000 1.0
C      1  0.5292980000000  0.4753470000000  0.5192580000000 1.0
C      1  0.4736890000000  0.5200240000000  0.4863300000000 1.0
C      1  0.4754150000000  0.4747000000000  0.5187910000000 1.0
C      1  0.4286460000000  0.4949960000000  0.5324130000000 1.0
C      1  0.4290540000000  0.5129710000000  0.4640150000000 1.0
C      1  0.5744030000000  0.4936160000000  0.5341940000000 1.0
C      1  0.5736310000000  0.5092830000000  0.4649370000000 1.0
C      1  0.4868630000000  0.4975340000000  0.5357220000000 1.0
C      1  0.4851690000000  0.4996770000000  0.4648800000000 1.0
C      1  0.5171420000000  0.4981710000000  0.5353620000000 1.0
C      1  0.5167140000000  0.5003660000000  0.4650370000000 1.0
C      1  0.4844330000000  0.4327820000000  0.4830570000000 1.0
C      1  0.4828560000000  0.5669910000000  0.5166360000000 1.0
C      1  0.5134780000000  0.4305520000000  0.4841150000000 1.0
C      1  0.5118740000000  0.5697130000000  0.5145950000000 1.0
C      1  0.5786030000000  0.4671770000000  0.4845860000000 1.0
C      1  0.5776030000000  0.5354240000000  0.5136930000000 1.0
C      1  0.4253720000000  0.4703860000000  0.4836400000000 1.0
C      1  0.4257250000000  0.5376540000000  0.5136240000000 1.0
C      1  0.4733590000000  0.4493230000000  0.4580700000000 1.0
C      1  0.4736950000000  0.5506720000000  0.5451450000000 1.0
C      1  0.5272970000000  0.4484280000000  0.4606220000000 1.0
C      1  0.5253470000000  0.5512790000000  0.5399040000000 1.0
C      1  0.5279930000000  0.5264040000000  0.5091090000000 1.0
C      1  0.5290400000000  0.4732020000000  0.4916370000000 1.0
C      1  0.4757600000000  0.5279330000000  0.5124900000000 1.0
C      1  0.4763330000000  0.4710530000000  0.4913420000000 1.0
C      1  0.4843090000000  0.5307770000000  0.4400160000000 1.0
C      1  0.4855890000000  0.4657200000000  0.5597810000000 1.0
C      1  0.5133580000000  0.5317200000000  0.4405880000000 1.0
C      1  0.5144600000000  0.4660090000000  0.5588310000000 1.0
C      1  0.5516050000000  0.5412100000000  0.5220000000000 1.0
C      1  0.5525600000000  0.4601030000000  0.4769400000000 1.0
C      1  0.4514900000000  0.5431850000000  0.5234610000000 1.0
C      1  0.4510020000000  0.4611790000000  0.4771490000000 1.0
C      1  0.4861790000000  0.4683630000000  0.4400440000000 1.0
C      1  0.4853730000000  0.5287830000000  0.5612520000000 1.0
C      1  0.5147710000000  0.4689870000000  0.4404340000000 1.0
C      1  0.5141960000000  0.5283780000000  0.5612060000000 1.0
C      1  0.5021870000000  0.4684390000000  0.4800320000000 1.0
C      1  0.5015050000000  0.5322330000000  0.5228550000000 1.0
END
