TITL C-2782229-3092-123 -0.00201520282326755 125000 -666.621902259573 0 0 117 (C1) n - 1
REM
REM in /home/nfs/bkarasulu/CARBON/AIRSS/Generating-Clusters/REBO/Higher-Symm/SD-CG/HFTN-CG
REM
REM
REM
REM
REM
REM ./C.cell (12c818d87b63d06a65506943cc24bca4)
REM
REM compiler GCC version 9.2.1 20190827 (Red Hat 9.2.1-1)
REM options -cpp -mtune=generic -march=x86-64 -g -O0 -fpre-include=/usr/include/finclude/math-vector-fortran.h
REM seed 466608243 -661375056 1758118616 1282449558 1308206580 -199549555 431822179 -1143707757 -1446543018 1319253219 1330620769 467105054 14572797 -2133802681 -724738170 955061891 -1188801617 -2098613149 1814975267 1362408086 -157532991 1867515744 463253338 119762567 -206647043 -2092814530 -867788648 2109831022 -312184349 -1988856615 1560483342 1143241108 1609035634
REM
CELL 1.54180   50.00000   50.00000   50.00000   90.00000   90.00000   90.00000
LATT -1
SFAC C  
C      1  0.5147060000000  0.4037590000000  0.4816230000000 1.0
C      1  0.5135590000000  0.4027960000000  0.5061580000000 1.0
C      1  0.5206630000000  0.5505060000000  0.4064230000000 1.0
C      1  0.5181590000000  0.5374640000000  0.5919010000000 1.0
C      1  0.5284230000000  0.5064130000000  0.4812670000000 1.0
C      1  0.5249830000000  0.5077710000000  0.5150970000000 1.0
C      1  0.5050930000000  0.4595480000000  0.5330660000000 1.0
C      1  0.5197560000000  0.4727300000000  0.4615540000000 1.0
C      1  0.5628860000000  0.5378220000000  0.4829700000000 1.0
C      1  0.5644340000000  0.5394130000000  0.5170710000000 1.0
C      1  0.4740640000000  0.4658600000000  0.4312760000000 1.0
C      1  0.4622070000000  0.4698780000000  0.5738230000000 1.0
C      1  0.4994050000000  0.4885580000000  0.5186050000000 1.0
C      1  0.5038820000000  0.4875970000000  0.4878680000000 1.0
C      1  0.4741390000000  0.4693900000000  0.5419780000000 1.0
C      1  0.4878150000000  0.4637940000000  0.4603730000000 1.0
C      1  0.5024050000000  0.5047120000000  0.5631840000000 1.0
C      1  0.5002210000000  0.5039440000000  0.4392370000000 1.0
C      1  0.5714930000000  0.4467570000000  0.5194200000000 1.0
C      1  0.5774400000000  0.4488630000000  0.4835400000000 1.0
C      1  0.5426820000000  0.4850610000000  0.4109590000000 1.0
C      1  0.5453510000000  0.4831130000000  0.5878820000000 1.0
C      1  0.5845940000000  0.4838230000000  0.4655850000000 1.0
C      1  0.5862620000000  0.4910600000000  0.5260990000000 1.0
C      1  0.4512290000000  0.5093310000000  0.6028780000000 1.0
C      1  0.4512350000000  0.5090470000000  0.4099560000000 1.0
C      1  0.4236870000000  0.5045020000000  0.4828030000000 1.0
C      1  0.4149410000000  0.5105330000000  0.5154010000000 1.0
C      1  0.5586780000000  0.4500790000000  0.5511130000000 1.0
C      1  0.5661500000000  0.4582560000000  0.4522900000000 1.0
C      1  0.5378220000000  0.5537230000000  0.5616470000000 1.0
C      1  0.5385300000000  0.5578900000000  0.4410400000000 1.0
C      1  0.4643380000000  0.5379220000000  0.5432370000000 1.0
C      1  0.4797630000000  0.5327160000000  0.4576190000000 1.0
C      1  0.5176020000000  0.4424770000000  0.5081370000000 1.0
C      1  0.5216030000000  0.4427630000000  0.4760570000000 1.0
C      1  0.4457380000000  0.5275400000000  0.4383710000000 1.0
C      1  0.4455780000000  0.5276280000000  0.5766040000000 1.0
C      1  0.5573270000000  0.5085710000000  0.5595950000000 1.0
C      1  0.5523060000000  0.5115530000000  0.4392920000000 1.0
C      1  0.4717890000000  0.4496740000000  0.5137680000000 1.0
C      1  0.4776810000000  0.4455950000000  0.4873720000000 1.0
C      1  0.5272800000000  0.5182600000000  0.5465060000000 1.0
C      1  0.5228180000000  0.5195960000000  0.4537360000000 1.0
C      1  0.5126400000000  0.4500740000000  0.4282950000000 1.0
C      1  0.5123480000000  0.4530530000000  0.5729410000000 1.0
C      1  0.4695760000000  0.5092910000000  0.5601090000000 1.0
C      1  0.4677790000000  0.5025150000000  0.4454720000000 1.0
C      1  0.4670920000000  0.4959160000000  0.5234560000000 1.0
C      1  0.4725590000000  0.4845460000000  0.4802680000000 1.0
C      1  0.4889050000000  0.5662370000000  0.4778150000000 1.0
C      1  0.4902980000000  0.5660090000000  0.5123380000000 1.0
C      1  0.4175020000000  0.5054500000000  0.5455450000000 1.0
C      1  0.4193540000000  0.4885910000000  0.4574400000000 1.0
C      1  0.5775690000000  0.5175600000000  0.5376620000000 1.0
C      1  0.5752900000000  0.5157870000000  0.4605110000000 1.0
C      1  0.4876140000000  0.5624010000000  0.5465050000000 1.0
C      1  0.4894910000000  0.5694970000000  0.4468370000000 1.0
C      1  0.4456740000000  0.4766660000000  0.4463960000000 1.0
C      1  0.4421600000000  0.4891610000000  0.5555310000000 1.0
C      1  0.4702220000000  0.5343130000000  0.4074860000000 1.0
C      1  0.4707520000000  0.5366560000000  0.6022340000000 1.0
C      1  0.5387630000000  0.5471610000000  0.5317150000000 1.0
C      1  0.5362150000000  0.5468610000000  0.4698980000000 1.0
C      1  0.4344790000000  0.5334880000000  0.5052420000000 1.0
C      1  0.4400170000000  0.5322940000000  0.4715500000000 1.0
C      1  0.4458100000000  0.4465840000000  0.4566310000000 1.0
C      1  0.4369430000000  0.4568850000000  0.5460290000000 1.0
C      1  0.4377240000000  0.4456680000000  0.4857880000000 1.0
C      1  0.4321040000000  0.4540540000000  0.5155750000000 1.0
C      1  0.4682050000000  0.4862690000000  0.5985550000000 1.0
C      1  0.4620800000000  0.4836180000000  0.4106930000000 1.0
C      1  0.5515030000000  0.4904070000000  0.5247020000000 1.0
C      1  0.5551290000000  0.4876730000000  0.4800100000000 1.0
C      1  0.5136650000000  0.4205640000000  0.5329150000000 1.0
C      1  0.5167600000000  0.4200790000000  0.4541430000000 1.0
C      1  0.5466790000000  0.5307900000000  0.5791130000000 1.0
C      1  0.5461310000000  0.5365050000000  0.4211170000000 1.0
C      1  0.4997230000000  0.5353840000000  0.3951150000000 1.0
C      1  0.4974820000000  0.5231420000000  0.6040450000000 1.0
C      1  0.4608910000000  0.4290020000000  0.5304990000000 1.0
C      1  0.4689120000000  0.4204200000000  0.4759530000000 1.0
C      1  0.4385610000000  0.5821200000000  0.5275900000000 1.0
C      1  0.4354940000000  0.5720070000000  0.4716450000000 1.0
C      1  0.4768340000000  0.5164110000000  0.4819030000000 1.0
C      1  0.4638650000000  0.5220820000000  0.5068590000000 1.0
C      1  0.4675600000000  0.5537570000000  0.5731690000000 1.0
C      1  0.4672060000000  0.5528280000000  0.4332760000000 1.0
C      1  0.4658200000000  0.4255430000000  0.4463130000000 1.0
C      1  0.4603270000000  0.4379560000000  0.5621650000000 1.0
C      1  0.4369140000000  0.4868120000000  0.5160770000000 1.0
C      1  0.4447740000000  0.4778570000000  0.4863120000000 1.0
C      1  0.5095470000000  0.5606230000000  0.5699230000000 1.0
C      1  0.5130890000000  0.5710300000000  0.4310270000000 1.0
C      1  0.4583340000000  0.5595120000000  0.5195390000000 1.0
C      1  0.4600480000000  0.5560970000000  0.4860470000000 1.0
C      1  0.5321580000000  0.4383200000000  0.5545030000000 1.0
C      1  0.5405640000000  0.4405550000000  0.4409660000000 1.0
C      1  0.5948650000000  0.4669610000000  0.5146480000000 1.0
C      1  0.6045090000000  0.4685100000000  0.4862100000000 1.0
C      1  0.4945580000000  0.5065120000000  0.4065770000000 1.0
C      1  0.4950660000000  0.4948620000000  0.6012520000000 1.0
C      1  0.4207090000000  0.5948480000000  0.5113260000000 1.0
C      1  0.4189320000000  0.5896790000000  0.4843470000000 1.0
C      1  0.5111670000000  0.4793470000000  0.4185310000000 1.0
C      1  0.5151860000000  0.4807710000000  0.5828790000000 1.0
C      1  0.5223910000000  0.5664830000000  0.5178770000000 1.0
C      1  0.5195200000000  0.5669110000000  0.4850650000000 1.0
C      1  0.5617290000000  0.4757010000000  0.5647070000000 1.0
C      1  0.5428460000000  0.4801160000000  0.4428610000000 1.0
C      1  0.5471420000000  0.4588360000000  0.4871830000000 1.0
C      1  0.5418350000000  0.4625030000000  0.5175850000000 1.0
C      1  0.4914480000000  0.4289760000000  0.4346300000000 1.0
C      1  0.4921660000000  0.4359320000000  0.5543500000000 1.0
C      1  0.5325420000000  0.5984300000000  0.4817990000000 1.0
C      1  0.5350020000000  0.5947810000000  0.5090630000000 1.0
C      1  0.5624100000000  0.5106000000000  0.5013270000000 1.0
END
