TITL C-2782238-9940-217 0.00297377505031598 125000 -348.252930558836 0 0 56 (C1) n - 1
REM
REM in /home/nfs/bkarasulu/CARBON/AIRSS/Generating-Clusters/REBO/Higher-Symm/SD-CG/HFTN-CG
REM
REM
REM
REM
REM
REM ./C.cell (12c818d87b63d06a65506943cc24bca4)
REM
REM compiler GCC version 9.2.1 20190827 (Red Hat 9.2.1-1)
REM options -cpp -mtune=generic -march=x86-64 -g -O0 -fpre-include=/usr/include/finclude/math-vector-fortran.h
REM seed 1469216651 -1920112167 910904565 -1858393028 -917586310 -1514543001 1323430247 1700990906 -1775331698 1059280099 2034167091 959462279 -276694636 891433718 2012041912 -358128503 -369583603 -1734373041 1224795260 -1269779211 -569735298 1126427196 573260113 566881276 385684179 1412204183 -1428690328 576890901 1148279898 1067066590 -329354606 1403860285 -141326266
REM
CELL 1.54180   50.00000   50.00000   50.00000   90.00000   90.00000   90.00000
LATT -1
SFAC C  
C      1  0.5565350000000  0.5085540000000  0.5393180000000 1.0
C      1  0.5563670000000  0.4601470000000  0.4839260000000 1.0
C      1  0.5536770000000  0.5331490000000  0.4722800000000 1.0
C      1  0.4384500000000  0.4919510000000  0.5413040000000 1.0
C      1  0.4402590000000  0.5412420000000  0.4878870000000 1.0
C      1  0.4438700000000  0.4686470000000  0.4742390000000 1.0
C      1  0.4484990000000  0.4955540000000  0.4613520000000 1.0
C      1  0.4395730000000  0.5395470000000  0.5176910000000 1.0
C      1  0.4380060000000  0.4664150000000  0.5256410000000 1.0
C      1  0.5523980000000  0.5067160000000  0.4576310000000 1.0
C      1  0.5555100000000  0.4618170000000  0.5140050000000 1.0
C      1  0.5568420000000  0.5343190000000  0.5239940000000 1.0
C      1  0.5363120000000  0.5044160000000  0.5582400000000 1.0
C      1  0.5397880000000  0.4414490000000  0.4705000000000 1.0
C      1  0.5348110000000  0.5529760000000  0.4640670000000 1.0
C      1  0.4594400000000  0.4959870000000  0.5594670000000 1.0
C      1  0.4595360000000  0.5577370000000  0.4754750000000 1.0
C      1  0.4607600000000  0.4467260000000  0.4690780000000 1.0
C      1  0.4723230000000  0.4996510000000  0.4453260000000 1.0
C      1  0.4596110000000  0.5538860000000  0.5317810000000 1.0
C      1  0.4572010000000  0.4463710000000  0.5309160000000 1.0
C      1  0.5306330000000  0.5018810000000  0.4393990000000 1.0
C      1  0.5347920000000  0.4484470000000  0.5275290000000 1.0
C      1  0.5375430000000  0.5543830000000  0.5288150000000 1.0
C      1  0.5169740000000  0.4779610000000  0.4399550000000 1.0
C      1  0.5078840000000  0.5561620000000  0.5140670000000 1.0
C      1  0.5063280000000  0.4583060000000  0.5410880000000 1.0
C      1  0.4876290000000  0.5241730000000  0.4440560000000 1.0
C      1  0.4860350000000  0.4453240000000  0.5161280000000 1.0
C      1  0.4890960000000  0.5410190000000  0.5391670000000 1.0
C      1  0.4864890000000  0.5128420000000  0.5557110000000 1.0
C      1  0.4901970000000  0.4408800000000  0.4833290000000 1.0
C      1  0.4837020000000  0.5449640000000  0.4626620000000 1.0
C      1  0.5093520000000  0.4870120000000  0.5565340000000 1.0
C      1  0.5098990000000  0.5574130000000  0.4804390000000 1.0
C      1  0.5111820000000  0.4509310000000  0.4575340000000 1.0
C      1  0.4763810000000  0.4479630000000  0.5544520000000 1.0
C      1  0.4872260000000  0.4761270000000  0.4378620000000 1.0
C      1  0.4790810000000  0.5738840000000  0.5194730000000 1.0
C      1  0.5186600000000  0.5522550000000  0.5520730000000 1.0
C      1  0.5143810000000  0.5247560000000  0.4323480000000 1.0
C      1  0.5150180000000  0.4313730000000  0.5131310000000 1.0
C      1  0.5278810000000  0.5497050000000  0.4364750000000 1.0
C      1  0.5157110000000  0.5254420000000  0.5644320000000 1.0
C      1  0.5200300000000  0.4239400000000  0.4851200000000 1.0
C      1  0.4791290000000  0.4484730000000  0.4459100000000 1.0
C      1  0.4800660000000  0.4750110000000  0.5660290000000 1.0
C      1  0.4814720000000  0.5736630000000  0.4898990000000 1.0
C      1  0.5660370000000  0.4862500000000  0.4739870000000 1.0
C      1  0.4275440000000  0.5135010000000  0.5245310000000 1.0
C      1  0.4324210000000  0.5153300000000  0.4766060000000 1.0
C      1  0.5675710000000  0.4873570000000  0.5221850000000 1.0
C      1  0.5675480000000  0.5286490000000  0.4974380000000 1.0
C      1  0.4283100000000  0.4726210000000  0.4987000000000 1.0
C      1  0.4194780000000  0.5006880000000  0.4989050000000 1.0
C      1  0.5769350000000  0.5006790000000  0.4974870000000 1.0
END
