TITL C-2782234-8014-1172 -0.00515070000051523 125000 -575.5541170213 0 0 99 (C1) n - 1
REM
REM in /home/nfs/bkarasulu/CARBON/AIRSS/Generating-Clusters/REBO/Higher-Symm/SD-CG/HFTN-CG
REM
REM
REM
REM
REM
REM ./C.cell (12c818d87b63d06a65506943cc24bca4)
REM
REM compiler GCC version 9.2.1 20190827 (Red Hat 9.2.1-1)
REM options -cpp -mtune=generic -march=x86-64 -g -O0 -fpre-include=/usr/include/finclude/math-vector-fortran.h
REM seed 1697538445 2051251411 -382226835 334053660 -1462216126 -500010102 1336686399 -503918278 -237000962 -1733704487 1917054392 1336031190 1861981589 -1725267936 1923725290 1819171434 132938753 -913931043 -1901481596 -1270609025 -797932367 -103220725 1121932466 757117055 -485644501 -597757341 323252011 -504206620 -1431913935 488081553 1198861398 633878429 388718762
REM
CELL 1.54180   50.00000   50.00000   50.00000   90.00000   90.00000   90.00000
LATT -1
SFAC C  
C      1  0.4526410000000  0.5499550000000  0.4596340000000 1.0
C      1  0.4496610000000  0.4505150000000  0.5387110000000 1.0
C      1  0.4820950000000  0.4177810000000  0.5061670000000 1.0
C      1  0.4829360000000  0.5787300000000  0.4977800000000 1.0
C      1  0.4627290000000  0.5410930000000  0.5617940000000 1.0
C      1  0.4665470000000  0.4549840000000  0.4407490000000 1.0
C      1  0.5943640000000  0.5113890000000  0.4892800000000 1.0
C      1  0.5906540000000  0.4847350000000  0.5020230000000 1.0
C      1  0.5528430000000  0.5536780000000  0.4527010000000 1.0
C      1  0.5522270000000  0.4465360000000  0.5477680000000 1.0
C      1  0.4248690000000  0.4722490000000  0.5023960000000 1.0
C      1  0.4256060000000  0.5237250000000  0.4976650000000 1.0
C      1  0.4318370000000  0.4554520000000  0.4744960000000 1.0
C      1  0.4311440000000  0.5398320000000  0.5254130000000 1.0
C      1  0.4346460000000  0.5243360000000  0.4646120000000 1.0
C      1  0.4273880000000  0.4731970000000  0.5364930000000 1.0
C      1  0.4986160000000  0.4308570000000  0.5549880000000 1.0
C      1  0.4999440000000  0.5702030000000  0.4495990000000 1.0
C      1  0.5250970000000  0.4373640000000  0.5668980000000 1.0
C      1  0.5252310000000  0.5658640000000  0.4367030000000 1.0
C      1  0.5183350000000  0.5385640000000  0.5765950000000 1.0
C      1  0.5184420000000  0.4617060000000  0.4251690000000 1.0
C      1  0.5243970000000  0.4813880000000  0.4594180000000 1.0
C      1  0.5371790000000  0.5402970000000  0.5307840000000 1.0
C      1  0.5568290000000  0.4588450000000  0.4663410000000 1.0
C      1  0.5681250000000  0.5361210000000  0.5291140000000 1.0
C      1  0.5016700000000  0.4946710000000  0.5403440000000 1.0
C      1  0.5106650000000  0.5028550000000  0.4436360000000 1.0
C      1  0.5348640000000  0.4845050000000  0.4176900000000 1.0
C      1  0.5371280000000  0.5161930000000  0.5785250000000 1.0
C      1  0.5549650000000  0.4392420000000  0.5142360000000 1.0
C      1  0.5589920000000  0.5602600000000  0.4858490000000 1.0
C      1  0.5163040000000  0.5210160000000  0.4864870000000 1.0
C      1  0.5241920000000  0.4782410000000  0.5117650000000 1.0
C      1  0.4409910000000  0.4286840000000  0.4788660000000 1.0
C      1  0.4401790000000  0.5666370000000  0.5211900000000 1.0
C      1  0.5273080000000  0.4479840000000  0.4533690000000 1.0
C      1  0.5220180000000  0.5544900000000  0.5530950000000 1.0
C      1  0.4398410000000  0.4981060000000  0.4432440000000 1.0
C      1  0.4326930000000  0.4983880000000  0.5587820000000 1.0
C      1  0.4765370000000  0.5518570000000  0.5387180000000 1.0
C      1  0.4800470000000  0.4485960000000  0.4651800000000 1.0
C      1  0.4711740000000  0.4675580000000  0.5181470000000 1.0
C      1  0.4710890000000  0.5306650000000  0.4809830000000 1.0
C      1  0.4907150000000  0.4899450000000  0.4199490000000 1.0
C      1  0.4901810000000  0.5125500000000  0.5657200000000 1.0
C      1  0.5635800000000  0.5137060000000  0.4765910000000 1.0
C      1  0.5619520000000  0.4881020000000  0.5186950000000 1.0
C      1  0.5661060000000  0.4619580000000  0.4966260000000 1.0
C      1  0.5744450000000  0.5369620000000  0.4990820000000 1.0
C      1  0.4798520000000  0.5545180000000  0.4046390000000 1.0
C      1  0.4753990000000  0.4532240000000  0.5947920000000 1.0
C      1  0.4870700000000  0.5366900000000  0.5835520000000 1.0
C      1  0.4873350000000  0.4607770000000  0.4203830000000 1.0
C      1  0.5050900000000  0.4163280000000  0.4887990000000 1.0
C      1  0.5048460000000  0.5810220000000  0.5162900000000 1.0
C      1  0.5414030000000  0.5139370000000  0.5097020000000 1.0
C      1  0.5416300000000  0.4907790000000  0.4846510000000 1.0
C      1  0.5557580000000  0.4969210000000  0.4335890000000 1.0
C      1  0.5591410000000  0.5034630000000  0.5641700000000 1.0
C      1  0.5317270000000  0.5697570000000  0.5043710000000 1.0
C      1  0.5253870000000  0.4393240000000  0.4965880000000 1.0
C      1  0.4688440000000  0.4453800000000  0.5627460000000 1.0
C      1  0.4731550000000  0.5554500000000  0.4377640000000 1.0
C      1  0.4790530000000  0.5324430000000  0.5133950000000 1.0
C      1  0.4787530000000  0.4724460000000  0.4869410000000 1.0
C      1  0.4708120000000  0.5035930000000  0.4418290000000 1.0
C      1  0.4641250000000  0.4977520000000  0.5531380000000 1.0
C      1  0.4321970000000  0.4948170000000  0.4806890000000 1.0
C      1  0.4357290000000  0.5005760000000  0.5194580000000 1.0
C      1  0.4847630000000  0.4738890000000  0.5621950000000 1.0
C      1  0.4886640000000  0.5273190000000  0.4321390000000 1.0
C      1  0.5200710000000  0.5312710000000  0.4560580000000 1.0
C      1  0.5204350000000  0.4701210000000  0.5446750000000 1.0
C      1  0.5591070000000  0.4787720000000  0.5483840000000 1.0
C      1  0.5586010000000  0.5226900000000  0.4473010000000 1.0
C      1  0.4651690000000  0.4986580000000  0.4741790000000 1.0
C      1  0.4670930000000  0.5016580000000  0.5216350000000 1.0
C      1  0.5770090000000  0.5227660000000  0.5513540000000 1.0
C      1  0.5692980000000  0.4761250000000  0.4486210000000 1.0
C      1  0.5115600000000  0.5422120000000  0.5098050000000 1.0
C      1  0.5103140000000  0.4661420000000  0.4846150000000 1.0
C      1  0.4985170000000  0.4727090000000  0.5933050000000 1.0
C      1  0.5033630000000  0.5352730000000  0.4024560000000 1.0
C      1  0.4995610000000  0.5686060000000  0.5415140000000 1.0
C      1  0.5032490000000  0.4325220000000  0.4641720000000 1.0
C      1  0.4420990000000  0.5753910000000  0.4741340000000 1.0
C      1  0.4399080000000  0.4237920000000  0.5260510000000 1.0
C      1  0.5275770000000  0.5572050000000  0.4751740000000 1.0
C      1  0.5251900000000  0.4419780000000  0.5278350000000 1.0
C      1  0.5258060000000  0.5381160000000  0.4229250000000 1.0
C      1  0.5229950000000  0.4663780000000  0.5773820000000 1.0
C      1  0.4381810000000  0.5280930000000  0.5512720000000 1.0
C      1  0.4409170000000  0.4682010000000  0.4496120000000 1.0
C      1  0.4878710000000  0.5598770000000  0.4756030000000 1.0
C      1  0.4858710000000  0.4382560000000  0.5273620000000 1.0
C      1  0.4537130000000  0.5801770000000  0.5001190000000 1.0
C      1  0.4531710000000  0.4165390000000  0.5015940000000 1.0
C      1  0.5032300000000  0.5031240000000  0.5100460000000 1.0
END
