TITL C-2782227-3064-730 -0.00427013339061654 125000 -1181.08663069992 0 0 200 (C1) n - 1
REM
REM in /home/nfs/bkarasulu/CARBON/AIRSS/Generating-Clusters/REBO/Higher-Symm/SD-CG/HFTN-CG
REM
REM
REM
REM
REM
REM ./C.cell (12c818d87b63d06a65506943cc24bca4)
REM
REM compiler GCC version 9.2.1 20190827 (Red Hat 9.2.1-1)
REM options -cpp -mtune=generic -march=x86-64 -g -O0 -fpre-include=/usr/include/finclude/math-vector-fortran.h
REM seed 38677408 348363055 966094046 1210554518 -76922589 2039531381 -1077645836 1631838931 571188457 -1472961408 2082761498 -919517962 -669709531 63640066 -1873270130 214302216 390472778 1440134555 925727632 129609279 -1954411477 -415551764 -163599586 19810362 1317176879 -1307831024 1377891193 -2106706658 1907040153 534836836 -752830473 -833674687 100166070
REM
CELL 1.54180   50.00000   50.00000   50.00000   90.00000   90.00000   90.00000
LATT -1
SFAC C  
C      1  0.5668340000000  0.5379260000000  0.5848980000000 1.0
C      1  0.5377690000000  0.5859110000000  0.5655260000000 1.0
C      1  0.5865380000000  0.5683570000000  0.5385060000000 1.0
C      1  0.5650930000000  0.4631700000000  0.4142490000000 1.0
C      1  0.4374180000000  0.5374380000000  0.4131550000000 1.0
C      1  0.4348010000000  0.4610660000000  0.5887230000000 1.0
C      1  0.5385510000000  0.4114560000000  0.4332200000000 1.0
C      1  0.4613500000000  0.5874900000000  0.4360940000000 1.0
C      1  0.4616350000000  0.4161030000000  0.5645370000000 1.0
C      1  0.5838590000000  0.4332090000000  0.4622930000000 1.0
C      1  0.4153770000000  0.5631110000000  0.4634550000000 1.0
C      1  0.4138010000000  0.4346540000000  0.5372490000000 1.0
C      1  0.4371950000000  0.5365070000000  0.5845380000000 1.0
C      1  0.4622880000000  0.5897710000000  0.5647410000000 1.0
C      1  0.4118160000000  0.5661750000000  0.5403900000000 1.0
C      1  0.4345940000000  0.4619730000000  0.4154030000000 1.0
C      1  0.5658450000000  0.5393270000000  0.4119320000000 1.0
C      1  0.5646250000000  0.4617020000000  0.5887260000000 1.0
C      1  0.4629450000000  0.4144930000000  0.4347230000000 1.0
C      1  0.5375240000000  0.5853220000000  0.4368450000000 1.0
C      1  0.5384320000000  0.4131480000000  0.5639680000000 1.0
C      1  0.4110970000000  0.4322460000000  0.4605300000000 1.0
C      1  0.5876620000000  0.5636740000000  0.4622630000000 1.0
C      1  0.5870220000000  0.4365720000000  0.5378340000000 1.0
C      1  0.4842920000000  0.3997330000000  0.5478450000000 1.0
C      1  0.3984120000000  0.5458020000000  0.4874530000000 1.0
C      1  0.5474290000000  0.4868310000000  0.3971940000000 1.0
C      1  0.4844700000000  0.6036760000000  0.4518630000000 1.0
C      1  0.5153860000000  0.3966540000000  0.4515200000000 1.0
C      1  0.5158390000000  0.6036010000000  0.5484950000000 1.0
C      1  0.3974520000000  0.4524820000000  0.5132340000000 1.0
C      1  0.6024870000000  0.5488830000000  0.5161860000000 1.0
C      1  0.6010460000000  0.4510060000000  0.4841630000000 1.0
C      1  0.5495150000000  0.5157650000000  0.6028210000000 1.0
C      1  0.4514510000000  0.4841440000000  0.6047650000000 1.0
C      1  0.4550680000000  0.5129660000000  0.3976660000000 1.0
C      1  0.5131280000000  0.3986700000000  0.5464660000000 1.0
C      1  0.6028350000000  0.5459390000000  0.4869890000000 1.0
C      1  0.4526240000000  0.4838620000000  0.3984880000000 1.0
C      1  0.5136100000000  0.6024850000000  0.4539890000000 1.0
C      1  0.4862600000000  0.3983280000000  0.4536480000000 1.0
C      1  0.4866000000000  0.6049230000000  0.5463790000000 1.0
C      1  0.6023010000000  0.4537960000000  0.5133070000000 1.0
C      1  0.3965890000000  0.5484600000000  0.5167900000000 1.0
C      1  0.3961210000000  0.4501860000000  0.4839710000000 1.0
C      1  0.4541250000000  0.5133590000000  0.6028940000000 1.0
C      1  0.5468850000000  0.4863080000000  0.6041450000000 1.0
C      1  0.5498020000000  0.5161630000000  0.3956810000000 1.0
C      1  0.4561290000000  0.6016090000000  0.4850810000000 1.0
C      1  0.5970450000000  0.4844340000000  0.4587950000000 1.0
C      1  0.4847660000000  0.4563780000000  0.6015890000000 1.0
C      1  0.4522140000000  0.3963440000000  0.5151610000000 1.0
C      1  0.5432190000000  0.6017950000000  0.5162550000000 1.0
C      1  0.5401570000000  0.4007430000000  0.4850640000000 1.0
C      1  0.5972990000000  0.5150500000000  0.5406650000000 1.0
C      1  0.4049000000000  0.4823310000000  0.5472430000000 1.0
C      1  0.4027290000000  0.5149260000000  0.4504730000000 1.0
C      1  0.4849550000000  0.5487650000000  0.4031250000000 1.0
C      1  0.5162170000000  0.4491680000000  0.3999010000000 1.0
C      1  0.5151990000000  0.5405950000000  0.5953970000000 1.0
C      1  0.5508960000000  0.5997620000000  0.4850110000000 1.0
C      1  0.4025960000000  0.4843360000000  0.4589240000000 1.0
C      1  0.5153600000000  0.4473710000000  0.6016460000000 1.0
C      1  0.5483430000000  0.4018480000000  0.5157440000000 1.0
C      1  0.4479100000000  0.6018010000000  0.5162540000000 1.0
C      1  0.4454550000000  0.3958370000000  0.4830710000000 1.0
C      1  0.4039980000000  0.5134680000000  0.5409540000000 1.0
C      1  0.5961200000000  0.4841180000000  0.5477450000000 1.0
C      1  0.5986780000000  0.5149330000000  0.4498160000000 1.0
C      1  0.5158430000000  0.5415580000000  0.4020450000000 1.0
C      1  0.4852000000000  0.4574230000000  0.4004780000000 1.0
C      1  0.4842780000000  0.5477160000000  0.5945390000000 1.0
C      1  0.4750270000000  0.4649670000000  0.5704310000000 1.0
C      1  0.4633810000000  0.5701910000000  0.4764440000000 1.0
C      1  0.5648420000000  0.4755740000000  0.4644690000000 1.0
C      1  0.4724410000000  0.5377740000000  0.4329880000000 1.0
C      1  0.5285510000000  0.4616820000000  0.4296240000000 1.0
C      1  0.5256460000000  0.5363400000000  0.5636860000000 1.0
C      1  0.4622550000000  0.4272330000000  0.5247160000000 1.0
C      1  0.5370730000000  0.5707450000000  0.5275190000000 1.0
C      1  0.5345930000000  0.4320140000000  0.4750440000000 1.0
C      1  0.5657460000000  0.5249560000000  0.5357080000000 1.0
C      1  0.4354910000000  0.4696200000000  0.5384710000000 1.0
C      1  0.4323580000000  0.5269080000000  0.4626060000000 1.0
C      1  0.5279950000000  0.4623000000000  0.5733810000000 1.0
C      1  0.5385310000000  0.5697130000000  0.4735770000000 1.0
C      1  0.4340910000000  0.4739740000000  0.4649750000000 1.0
C      1  0.5253890000000  0.5363130000000  0.4335030000000 1.0
C      1  0.4759980000000  0.4643390000000  0.4320730000000 1.0
C      1  0.4714240000000  0.5389360000000  0.5640700000000 1.0
C      1  0.5378590000000  0.4317360000000  0.5285830000000 1.0
C      1  0.4603330000000  0.5723690000000  0.5291240000000 1.0
C      1  0.4603570000000  0.4256360000000  0.4727180000000 1.0
C      1  0.4356870000000  0.5224670000000  0.5363140000000 1.0
C      1  0.5656340000000  0.4715680000000  0.5385250000000 1.0
C      1  0.5693190000000  0.5282370000000  0.4615670000000 1.0
C      1  0.4851590000000  0.5216270000000  0.3859880000000 1.0
C      1  0.5100050000000  0.3862500000000  0.4834660000000 1.0
C      1  0.3866800000000  0.4833710000000  0.5212440000000 1.0
C      1  0.4838120000000  0.4877770000000  0.6146290000000 1.0
C      1  0.5171870000000  0.5117020000000  0.6124070000000 1.0
C      1  0.5167560000000  0.4783140000000  0.3868990000000 1.0
C      1  0.5116350000000  0.6145620000000  0.5167250000000 1.0
C      1  0.4853510000000  0.3879700000000  0.5163170000000 1.0
C      1  0.4876350000000  0.6145300000000  0.4836810000000 1.0
C      1  0.3872800000000  0.5154310000000  0.4787190000000 1.0
C      1  0.6130970000000  0.4826130000000  0.4878560000000 1.0
C      1  0.6139910000000  0.5170640000000  0.5121450000000 1.0
C      1  0.5178280000000  0.5121050000000  0.3858260000000 1.0
C      1  0.4764910000000  0.3883890000000  0.4834800000000 1.0
C      1  0.6139310000000  0.4842830000000  0.5213110000000 1.0
C      1  0.5163570000000  0.4778110000000  0.6133550000000 1.0
C      1  0.4846440000000  0.5216090000000  0.6127600000000 1.0
C      1  0.4841250000000  0.4880150000000  0.3862610000000 1.0
C      1  0.4776260000000  0.6146400000000  0.5161770000000 1.0
C      1  0.5194670000000  0.3867090000000  0.5161650000000 1.0
C      1  0.5216740000000  0.6131380000000  0.4842720000000 1.0
C      1  0.6132080000000  0.5153150000000  0.4784120000000 1.0
C      1  0.3862210000000  0.4825460000000  0.4877220000000 1.0
C      1  0.3869100000000  0.5162710000000  0.5123590000000 1.0
C      1  0.4515890000000  0.5108670000000  0.5153430000000 1.0
C      1  0.5148110000000  0.5153110000000  0.4511940000000 1.0
C      1  0.5155220000000  0.4473030000000  0.5191320000000 1.0
C      1  0.4530360000000  0.4839440000000  0.4858650000000 1.0
C      1  0.5537080000000  0.5187990000000  0.4832020000000 1.0
C      1  0.5468980000000  0.4818630000000  0.5179480000000 1.0
C      1  0.5200590000000  0.4849220000000  0.5584700000000 1.0
C      1  0.4814850000000  0.5171210000000  0.5476810000000 1.0
C      1  0.4882230000000  0.4855410000000  0.4492430000000 1.0
C      1  0.5168950000000  0.5538010000000  0.4839510000000 1.0
C      1  0.4819100000000  0.4412020000000  0.4816160000000 1.0
C      1  0.4825630000000  0.5579830000000  0.5206010000000 1.0
C      1  0.5497300000000  0.5134550000000  0.5147980000000 1.0
C      1  0.4830450000000  0.5172890000000  0.4511690000000 1.0
C      1  0.4842840000000  0.4415100000000  0.5134630000000 1.0
C      1  0.5461200000000  0.4863500000000  0.4856790000000 1.0
C      1  0.4482400000000  0.5168500000000  0.4840660000000 1.0
C      1  0.4542860000000  0.4793510000000  0.5180100000000 1.0
C      1  0.4876160000000  0.4859930000000  0.5526400000000 1.0
C      1  0.5145070000000  0.5150380000000  0.5469800000000 1.0
C      1  0.5206190000000  0.4840980000000  0.4447200000000 1.0
C      1  0.4853810000000  0.5545200000000  0.4880930000000 1.0
C      1  0.5129820000000  0.4485170000000  0.4865470000000 1.0
C      1  0.5148480000000  0.5566120000000  0.5165630000000 1.0
C      1  0.4396890000000  0.4845560000000  0.5667270000000 1.0
C      1  0.4862750000000  0.5660040000000  0.4391730000000 1.0
C      1  0.5637580000000  0.4373590000000  0.4875660000000 1.0
C      1  0.4392440000000  0.5128890000000  0.4343390000000 1.0
C      1  0.5611920000000  0.4887000000000  0.4346200000000 1.0
C      1  0.5619820000000  0.5124470000000  0.5651600000000 1.0
C      1  0.4879260000000  0.4361680000000  0.5633980000000 1.0
C      1  0.5125740000000  0.5656320000000  0.5600060000000 1.0
C      1  0.5146840000000  0.4335900000000  0.4366380000000 1.0
C      1  0.5659780000000  0.5646980000000  0.5136220000000 1.0
C      1  0.4330060000000  0.4344000000000  0.5113080000000 1.0
C      1  0.4342370000000  0.5632940000000  0.4896770000000 1.0
C      1  0.5611850000000  0.4866060000000  0.5669380000000 1.0
C      1  0.5121760000000  0.5652690000000  0.4396430000000 1.0
C      1  0.4321750000000  0.4333930000000  0.4855720000000 1.0
C      1  0.5622340000000  0.5146520000000  0.4334450000000 1.0
C      1  0.4388120000000  0.4870340000000  0.4357300000000 1.0
C      1  0.4404090000000  0.5103820000000  0.5655560000000 1.0
C      1  0.5138040000000  0.4346770000000  0.5637510000000 1.0
C      1  0.4865730000000  0.5673740000000  0.5598360000000 1.0
C      1  0.4887640000000  0.4347710000000  0.4376320000000 1.0
C      1  0.4328250000000  0.5647950000000  0.5152840000000 1.0
C      1  0.5655930000000  0.4380420000000  0.5133320000000 1.0
C      1  0.5669030000000  0.5632680000000  0.4878340000000 1.0
C      1  0.4137030000000  0.4570070000000  0.4419320000000 1.0
C      1  0.4581820000000  0.4407350000000  0.4132310000000 1.0
C      1  0.4359850000000  0.4100540000000  0.4536150000000 1.0
C      1  0.4156920000000  0.5405520000000  0.5581780000000 1.0
C      1  0.5860740000000  0.4560360000000  0.5628200000000 1.0
C      1  0.5884470000000  0.5442880000000  0.4369040000000 1.0
C      1  0.4559200000000  0.5627760000000  0.5845950000000 1.0
C      1  0.5446230000000  0.4357890000000  0.5887570000000 1.0
C      1  0.5419640000000  0.5601870000000  0.4139870000000 1.0
C      1  0.4354370000000  0.5902010000000  0.5457390000000 1.0
C      1  0.5632410000000  0.4128860000000  0.5439370000000 1.0
C      1  0.5633720000000  0.5868480000000  0.4561010000000 1.0
C      1  0.5845300000000  0.4575390000000  0.4418690000000 1.0
C      1  0.5455230000000  0.4370000000000  0.4118060000000 1.0
C      1  0.5577460000000  0.4116550000000  0.4579870000000 1.0
C      1  0.5863770000000  0.5427760000000  0.5573340000000 1.0
C      1  0.4144650000000  0.4542430000000  0.5622730000000 1.0
C      1  0.4146200000000  0.5438520000000  0.4377120000000 1.0
C      1  0.5425040000000  0.5582690000000  0.5849940000000 1.0
C      1  0.4577740000000  0.4399300000000  0.5887360000000 1.0
C      1  0.4563650000000  0.5625960000000  0.4133860000000 1.0
C      1  0.5609310000000  0.5904670000000  0.5433670000000 1.0
C      1  0.4377850000000  0.4107780000000  0.5427960000000 1.0
C      1  0.4389320000000  0.5876720000000  0.4588010000000 1.0
C      1  0.5163800000000  0.4788500000000  0.4768450000000 1.0
C      1  0.4825920000000  0.5243120000000  0.5141420000000 1.0
C      1  0.4778920000000  0.5249540000000  0.4800340000000 1.0
C      1  0.4842240000000  0.4716870000000  0.5236750000000 1.0
C      1  0.5172170000000  0.5226730000000  0.5137040000000 1.0
C      1  0.5223810000000  0.5231000000000  0.4794290000000 1.0
C      1  0.4824420000000  0.4739840000000  0.4783640000000 1.0
C      1  0.5176120000000  0.4774680000000  0.5276840000000 1.0
END
