TITL C-2782239-8622-378 -0.00450145939483516 125000 -890.352055164755 0 0 153 (C1) n - 1
REM
REM in /home/nfs/bkarasulu/CARBON/AIRSS/Generating-Clusters/REBO/Higher-Symm/SD-CG/HFTN-CG
REM
REM
REM
REM
REM
REM ./C.cell (12c818d87b63d06a65506943cc24bca4)
REM
REM compiler GCC version 9.2.1 20190827 (Red Hat 9.2.1-1)
REM options -cpp -mtune=generic -march=x86-64 -g -O0 -fpre-include=/usr/include/finclude/math-vector-fortran.h
REM seed -248597493 -27250528 -2092303922 -1671343096 -264894514 -664142055 1158848781 503816841 -2016563468 -2101458696 99935164 -1820098465 2090652230 768158950 1410737533 -304224637 639753945 -102675105 1804464369 -82351011 1853486306 -1741119455 1737096504 -842334746 -839658147 -1971689005 2119954158 1106243697 -1437633850 -1164138177 -304872193 -940018578 302400229
REM
CELL 1.54180   50.00000   50.00000   50.00000   90.00000   90.00000   90.00000
LATT -1
SFAC C  
C      1  0.3940470000000  0.4841220000000  0.4906470000000 1.0
C      1  0.5405480000000  0.4886400000000  0.5970800000000 1.0
C      1  0.5624690000000  0.4858840000000  0.4146400000000 1.0
C      1  0.5746380000000  0.5359010000000  0.5619950000000 1.0
C      1  0.5157360000000  0.5351230000000  0.4046430000000 1.0
C      1  0.4099380000000  0.5310960000000  0.5375230000000 1.0
C      1  0.4566510000000  0.4670190000000  0.4169860000000 1.0
C      1  0.4371790000000  0.4733190000000  0.5831480000000 1.0
C      1  0.5933600000000  0.4661940000000  0.5038380000000 1.0
C      1  0.5415910000000  0.5854930000000  0.5188340000000 1.0
C      1  0.4892500000000  0.5855670000000  0.4562360000000 1.0
C      1  0.4650870000000  0.5801660000000  0.5300600000000 1.0
C      1  0.5018160000000  0.4464880000000  0.4633900000000 1.0
C      1  0.4676040000000  0.4413470000000  0.5137960000000 1.0
C      1  0.5292530000000  0.4449960000000  0.5196380000000 1.0
C      1  0.4275340000000  0.4842730000000  0.4613970000000 1.0
C      1  0.4990910000000  0.4904760000000  0.5826140000000 1.0
C      1  0.5712350000000  0.4845420000000  0.4554470000000 1.0
C      1  0.4040950000000  0.5083560000000  0.5127520000000 1.0
C      1  0.5548220000000  0.5130350000000  0.5777690000000 1.0
C      1  0.5389600000000  0.5103960000000  0.4091950000000 1.0
C      1  0.4662170000000  0.5226590000000  0.4217110000000 1.0
C      1  0.4521860000000  0.5161890000000  0.5710230000000 1.0
C      1  0.5871380000000  0.5217240000000  0.5108900000000 1.0
C      1  0.4895230000000  0.4708180000000  0.4120300000000 1.0
C      1  0.4309330000000  0.4675870000000  0.5543490000000 1.0
C      1  0.5806180000000  0.4710230000000  0.5342950000000 1.0
C      1  0.5040700000000  0.5560990000000  0.5152930000000 1.0
C      1  0.5244300000000  0.5556780000000  0.4809400000000 1.0
C      1  0.4843290000000  0.5524220000000  0.4927450000000 1.0
C      1  0.4540500000000  0.4464590000000  0.4867980000000 1.0
C      1  0.5132370000000  0.4490580000000  0.5473540000000 1.0
C      1  0.5320170000000  0.4503590000000  0.4652370000000 1.0
C      1  0.5440280000000  0.5585530000000  0.4355900000000 1.0
C      1  0.4179870000000  0.5572170000000  0.4984010000000 1.0
C      1  0.5384610000000  0.5634390000000  0.5737730000000 1.0
C      1  0.5282050000000  0.4317000000000  0.4167680000000 1.0
C      1  0.4142390000000  0.4317050000000  0.5114200000000 1.0
C      1  0.5528230000000  0.4360960000000  0.5724380000000 1.0
C      1  0.4982910000000  0.4138820000000  0.4409830000000 1.0
C      1  0.4545510000000  0.4140760000000  0.5297020000000 1.0
C      1  0.5533700000000  0.4137770000000  0.5234990000000 1.0
C      1  0.5171430000000  0.5590430000000  0.4195090000000 1.0
C      1  0.4210020000000  0.5556560000000  0.5285380000000 1.0
C      1  0.5631560000000  0.5614330000000  0.5573410000000 1.0
C      1  0.4411240000000  0.4950680000000  0.5057030000000 1.0
C      1  0.5340490000000  0.4968050000000  0.5477030000000 1.0
C      1  0.5245670000000  0.5007190000000  0.4451960000000 1.0
C      1  0.4682080000000  0.5791980000000  0.4789540000000 1.0
C      1  0.4951290000000  0.5798580000000  0.5375650000000 1.0
C      1  0.5357640000000  0.5864020000000  0.4903350000000 1.0
C      1  0.5065030000000  0.4843560000000  0.4648250000000 1.0
C      1  0.4682110000000  0.4825920000000  0.5115220000000 1.0
C      1  0.5277800000000  0.4830990000000  0.5210310000000 1.0
C      1  0.5255700000000  0.4406640000000  0.5743720000000 1.0
C      1  0.5470990000000  0.4393560000000  0.4411340000000 1.0
C      1  0.4240270000000  0.4373220000000  0.4861060000000 1.0
C      1  0.4820110000000  0.4349490000000  0.5678380000000 1.0
C      1  0.5598410000000  0.4141150000000  0.4705400000000 1.0
C      1  0.4496710000000  0.4353100000000  0.4486660000000 1.0
C      1  0.4831520000000  0.4916440000000  0.4848430000000 1.0
C      1  0.4973100000000  0.4917920000000  0.5218450000000 1.0
C      1  0.5225080000000  0.4945150000000  0.4911800000000 1.0
C      1  0.5435010000000  0.4758390000000  0.5691390000000 1.0
C      1  0.5373560000000  0.4763760000000  0.4298400000000 1.0
C      1  0.4192380000000  0.4725050000000  0.5042900000000 1.0
C      1  0.5988900000000  0.5109470000000  0.4859310000000 1.0
C      1  0.4384400000000  0.5128300000000  0.4236490000000 1.0
C      1  0.4584990000000  0.5099500000000  0.6008650000000 1.0
C      1  0.5217320000000  0.5997110000000  0.5373980000000 1.0
C      1  0.5157240000000  0.5980190000000  0.4658990000000 1.0
C      1  0.4557810000000  0.5953310000000  0.5045280000000 1.0
C      1  0.4562880000000  0.5546570000000  0.5083870000000 1.0
C      1  0.5326860000000  0.5549410000000  0.5314020000000 1.0
C      1  0.5056220000000  0.5553400000000  0.4591640000000 1.0
C      1  0.4999140000000  0.4757250000000  0.5519260000000 1.0
C      1  0.5450730000000  0.4773290000000  0.4727130000000 1.0
C      1  0.4556730000000  0.4741670000000  0.4742350000000 1.0
C      1  0.4751940000000  0.5365860000000  0.5964990000000 1.0
C      1  0.5940940000000  0.5285560000000  0.4636280000000 1.0
C      1  0.4220760000000  0.5296000000000  0.4407150000000 1.0
C      1  0.4858110000000  0.4535240000000  0.5880600000000 1.0
C      1  0.5771670000000  0.4301740000000  0.4504850000000 1.0
C      1  0.4275370000000  0.4462730000000  0.4473820000000 1.0
C      1  0.4917700000000  0.5718730000000  0.4257920000000 1.0
C      1  0.4419110000000  0.5658610000000  0.5459780000000 1.0
C      1  0.5681970000000  0.5731130000000  0.5308380000000 1.0
C      1  0.4385910000000  0.4847790000000  0.4308180000000 1.0
C      1  0.4672690000000  0.4801210000000  0.5903570000000 1.0
C      1  0.5908860000000  0.4838080000000  0.4814950000000 1.0
C      1  0.5629980000000  0.4458220000000  0.5197430000000 1.0
C      1  0.4859780000000  0.4447060000000  0.4335740000000 1.0
C      1  0.4520540000000  0.4452830000000  0.5434330000000 1.0
C      1  0.4730140000000  0.5493640000000  0.4530110000000 1.0
C      1  0.4766090000000  0.5466350000000  0.5493750000000 1.0
C      1  0.5553310000000  0.5521570000000  0.4956050000000 1.0
C      1  0.4489340000000  0.5444620000000  0.4765420000000 1.0
C      1  0.5097890000000  0.5454940000000  0.5529750000000 1.0
C      1  0.5581750000000  0.5458410000000  0.4623170000000 1.0
C      1  0.5486140000000  0.5294890000000  0.5183240000000 1.0
C      1  0.4948540000000  0.5241700000000  0.4500730000000 1.0
C      1  0.4633330000000  0.5287910000000  0.5271520000000 1.0
C      1  0.5044540000000  0.4031790000000  0.5252400000000 1.0
C      1  0.5296460000000  0.4025030000000  0.4814240000000 1.0
C      1  0.4794570000000  0.4022160000000  0.4839080000000 1.0
C      1  0.4956500000000  0.5244550000000  0.5221580000000 1.0
C      1  0.5257480000000  0.5256190000000  0.4939170000000 1.0
C      1  0.4828380000000  0.5240000000000  0.4820210000000 1.0
C      1  0.5051010000000  0.5223270000000  0.5909470000000 1.0
C      1  0.5772620000000  0.5150750000000  0.4438920000000 1.0
C      1  0.4139020000000  0.5147490000000  0.4639040000000 1.0
C      1  0.5084440000000  0.5144540000000  0.5523010000000 1.0
C      1  0.5449440000000  0.5168630000000  0.4671260000000 1.0
C      1  0.4501040000000  0.5130330000000  0.4802740000000 1.0
C      1  0.4781590000000  0.4734620000000  0.4499930000000 1.0
C      1  0.4684890000000  0.4742990000000  0.5427290000000 1.0
C      1  0.5543220000000  0.4747650000000  0.5045900000000 1.0
C      1  0.4742570000000  0.4295410000000  0.4688360000000 1.0
C      1  0.4904840000000  0.4296550000000  0.5362880000000 1.0
C      1  0.5389440000000  0.4331070000000  0.4904680000000 1.0
C      1  0.4345440000000  0.5554250000000  0.4474510000000 1.0
C      1  0.4911340000000  0.5591510000000  0.5776610000000 1.0
C      1  0.5881930000000  0.5569010000000  0.4740670000000 1.0
C      1  0.5583440000000  0.5288530000000  0.4266240000000 1.0
C      1  0.4109510000000  0.5291460000000  0.4885080000000 1.0
C      1  0.5311190000000  0.5353420000000  0.5849630000000 1.0
C      1  0.4890720000000  0.5220250000000  0.4072190000000 1.0
C      1  0.4273350000000  0.5175740000000  0.5585690000000 1.0
C      1  0.5859110000000  0.5225130000000  0.5379130000000 1.0
C      1  0.5032610000000  0.4021740000000  0.4657760000000 1.0
C      1  0.4771340000000  0.4006420000000  0.5123010000000 1.0
C      1  0.5300320000000  0.4019430000000  0.5137180000000 1.0
C      1  0.4187080000000  0.4728360000000  0.6020610000000 1.0
C      1  0.6055570000000  0.4414430000000  0.4999070000000 1.0
C      1  0.4463890000000  0.4426260000000  0.4081030000000 1.0
C      1  0.4663440000000  0.5050680000000  0.4512110000000 1.0
C      1  0.4749270000000  0.5067830000000  0.5511950000000 1.0
C      1  0.5604300000000  0.5063770000000  0.4957830000000 1.0
C      1  0.5732640000000  0.4601720000000  0.4345390000000 1.0
C      1  0.4061850000000  0.4606480000000  0.4689220000000 1.0
C      1  0.5166520000000  0.4642610000000  0.5958050000000 1.0
C      1  0.4591920000000  0.5659970000000  0.4287960000000 1.0
C      1  0.4569050000000  0.5562060000000  0.5749650000000 1.0
C      1  0.5839110000000  0.5658990000000  0.5045740000000 1.0
C      1  0.5177830000000  0.5828620000000  0.5639900000000 1.0
C      1  0.5426240000000  0.5821160000000  0.4570970000000 1.0
C      1  0.4342990000000  0.5796480000000  0.4864880000000 1.0
C      1  0.5668430000000  0.4592480000000  0.5609530000000 1.0
C      1  0.5193240000000  0.4589520000000  0.4167690000000 1.0
C      1  0.4163870000000  0.4552980000000  0.5284020000000 1.0
C      1  0.4252730000000  0.4947420000000  0.5362630000000 1.0
C      1  0.5682440000000  0.4989960000000  0.5490490000000 1.0
C      1  0.5074910000000  0.4978250000000  0.4151880000000 1.0
END
