TITL C-2782239-8622-752 -0.000898872686963286 125000 -396.781549596033 0 0 68 (C1) n - 1
REM
REM in /home/nfs/bkarasulu/CARBON/AIRSS/Generating-Clusters/REBO/Higher-Symm/SD-CG/HFTN-CG
REM
REM
REM
REM
REM
REM ./C.cell (12c818d87b63d06a65506943cc24bca4)
REM
REM compiler GCC version 9.2.1 20190827 (Red Hat 9.2.1-1)
REM options -cpp -mtune=generic -march=x86-64 -g -O0 -fpre-include=/usr/include/finclude/math-vector-fortran.h
REM seed 1855879203 1115396880 1433778451 1042847987 -1679293642 -1086286268 353399547 -1829988054 -418898524 1552936195 16830292 -247341719 2129643009 -1224285263 661581505 73746889 -857751770 -1361017053 -1126182559 -1190543104 -658954948 1111009041 1529112194 -690754441 -1902103053 2101274776 -2002677931 -87219867 1951661801 1881140184 -1103868816 -1232679681 -1173534720
REM
CELL 1.54180   50.00000   50.00000   50.00000   90.00000   90.00000   90.00000
LATT -1
SFAC C  
C      1  0.4816050000000  0.4850060000000  0.4684500000000 1.0
C      1  0.5148250000000  0.4862800000000  0.4665210000000 1.0
C      1  0.4586850000000  0.4223390000000  0.4922680000000 1.0
C      1  0.5410050000000  0.4235760000000  0.4903300000000 1.0
C      1  0.4873350000000  0.4484890000000  0.4834140000000 1.0
C      1  0.5121300000000  0.4497610000000  0.4824130000000 1.0
C      1  0.5419010000000  0.4992230000000  0.5707930000000 1.0
C      1  0.4581160000000  0.4987190000000  0.5721110000000 1.0
C      1  0.5254090000000  0.4781390000000  0.5512670000000 1.0
C      1  0.4749390000000  0.4775640000000  0.5526310000000 1.0
C      1  0.5488920000000  0.4863800000000  0.4612320000000 1.0
C      1  0.4481490000000  0.4840420000000  0.4610650000000 1.0
C      1  0.4859640000000  0.5620850000000  0.5694660000000 1.0
C      1  0.5128640000000  0.5622200000000  0.5696140000000 1.0
C      1  0.4833130000000  0.4615750000000  0.4361930000000 1.0
C      1  0.5139210000000  0.4634800000000  0.4338420000000 1.0
C      1  0.5135610000000  0.4174580000000  0.5059400000000 1.0
C      1  0.4864990000000  0.4164780000000  0.5072820000000 1.0
C      1  0.5317950000000  0.5531340000000  0.4875690000000 1.0
C      1  0.4656030000000  0.5534310000000  0.4883990000000 1.0
C      1  0.5363950000000  0.5497800000000  0.5657510000000 1.0
C      1  0.4626010000000  0.5493430000000  0.5655600000000 1.0
C      1  0.5619920000000  0.4922820000000  0.5448050000000 1.0
C      1  0.4379160000000  0.4912520000000  0.5467370000000 1.0
C      1  0.4490690000000  0.4690040000000  0.5234980000000 1.0
C      1  0.5504760000000  0.4706500000000  0.5210520000000 1.0
C      1  0.5352140000000  0.4402930000000  0.5189970000000 1.0
C      1  0.4647730000000  0.4388850000000  0.5210080000000 1.0
C      1  0.5117010000000  0.5389520000000  0.5062600000000 1.0
C      1  0.4851640000000  0.5385330000000  0.5068570000000 1.0
C      1  0.5278520000000  0.4738070000000  0.4954560000000 1.0
C      1  0.4710550000000  0.4716340000000  0.4974320000000 1.0
C      1  0.5513000000000  0.5029030000000  0.5092320000000 1.0
C      1  0.4458800000000  0.4999980000000  0.5097060000000 1.0
C      1  0.5147020000000  0.5107710000000  0.5534680000000 1.0
C      1  0.4845240000000  0.5105300000000  0.5538520000000 1.0
C      1  0.4505380000000  0.5160480000000  0.4552480000000 1.0
C      1  0.5534110000000  0.5165520000000  0.4540170000000 1.0
C      1  0.4332400000000  0.5217910000000  0.5319610000000 1.0
C      1  0.5651130000000  0.5236140000000  0.5311100000000 1.0
C      1  0.4428840000000  0.5338170000000  0.4750330000000 1.0
C      1  0.5561670000000  0.5335370000000  0.4755240000000 1.0
C      1  0.4600340000000  0.4561110000000  0.4512360000000 1.0
C      1  0.5379890000000  0.4580710000000  0.4503590000000 1.0
C      1  0.5506690000000  0.5281770000000  0.5587010000000 1.0
C      1  0.4486160000000  0.5273570000000  0.5591610000000 1.0
C      1  0.4396130000000  0.5397580000000  0.5063570000000 1.0
C      1  0.5585630000000  0.5420870000000  0.5060600000000 1.0
C      1  0.5450780000000  0.4351480000000  0.4651950000000 1.0
C      1  0.4540150000000  0.4335990000000  0.4671290000000 1.0
C      1  0.5147470000000  0.4883860000000  0.5204930000000 1.0
C      1  0.4842830000000  0.4876260000000  0.5212540000000 1.0
C      1  0.5255650000000  0.5191380000000  0.5231440000000 1.0
C      1  0.4719230000000  0.5176320000000  0.5231740000000 1.0
C      1  0.5175530000000  0.5980850000000  0.4607250000000 1.0
C      1  0.4904660000000  0.5951590000000  0.4633140000000 1.0
C      1  0.4743940000000  0.5215110000000  0.4412100000000 1.0
C      1  0.5341230000000  0.5243340000000  0.4337950000000 1.0
C      1  0.4811620000000  0.5657860000000  0.4665370000000 1.0
C      1  0.5175320000000  0.5657460000000  0.4643080000000 1.0
C      1  0.4865790000000  0.4521850000000  0.5394190000000 1.0
C      1  0.5137720000000  0.4527250000000  0.5384090000000 1.0
C      1  0.5213210000000  0.4968460000000  0.4342480000000 1.0
C      1  0.4896920000000  0.4949690000000  0.4367660000000 1.0
C      1  0.4889510000000  0.5453530000000  0.4444420000000 1.0
C      1  0.5180450000000  0.5466180000000  0.4384450000000 1.0
C      1  0.4322850000000  0.4966710000000  0.4850810000000 1.0
C      1  0.5645480000000  0.4875660000000  0.4876750000000 1.0
END
