TITL C-2782225-7408-125 0.00207381358685683 125000 -1077.76852585972 0 0 185 (C1) n - 1
REM
REM in /home/nfs/bkarasulu/CARBON/AIRSS/Generating-Clusters/REBO/Higher-Symm/SD-CG/HFTN-CG
REM
REM
REM
REM
REM
REM ./C.cell (12c818d87b63d06a65506943cc24bca4)
REM
REM compiler GCC version 9.2.1 20190827 (Red Hat 9.2.1-1)
REM options -cpp -mtune=generic -march=x86-64 -g -O0 -fpre-include=/usr/include/finclude/math-vector-fortran.h
REM seed -154644228 -148825011 -1160989767 1989650656 397569877 -1027024926 2039058803 1071213432 1997324944 1757945302 767850049 852314998 310419830 659729532 -400476519 2098326745 925887327 185936639 -254104873 -2050803563 1902468872 1491040091 437527329 1449341429 -2132151023 -747776449 -1557175990 164108087 1816588528 -1573404767 -1137926735 -195967462 -744166603
REM
CELL 1.54180   50.00000   50.00000   50.00000   90.00000   90.00000   90.00000
LATT -1
SFAC C  
C      1  0.5245800000000  0.4136250000000  0.4185390000000 1.0
C      1  0.4325270000000  0.4216910000000  0.4472670000000 1.0
C      1  0.4267970000000  0.4190270000000  0.5526120000000 1.0
C      1  0.5294110000000  0.4212670000000  0.5843860000000 1.0
C      1  0.5827400000000  0.4132990000000  0.5151720000000 1.0
C      1  0.5216390000000  0.5696840000000  0.5838420000000 1.0
C      1  0.4296190000000  0.5806810000000  0.5592300000000 1.0
C      1  0.4232630000000  0.5798730000000  0.4520020000000 1.0
C      1  0.5297660000000  0.5811510000000  0.4158320000000 1.0
C      1  0.5858400000000  0.5820000000000  0.4961720000000 1.0
C      1  0.4429670000000  0.4478900000000  0.4865800000000 1.0
C      1  0.4697140000000  0.4461340000000  0.5514670000000 1.0
C      1  0.5372710000000  0.4504540000000  0.5427560000000 1.0
C      1  0.5559740000000  0.4443530000000  0.4833810000000 1.0
C      1  0.5013370000000  0.4551760000000  0.4350830000000 1.0
C      1  0.4432250000000  0.5525940000000  0.5207400000000 1.0
C      1  0.4638120000000  0.5552330000000  0.4492660000000 1.0
C      1  0.5379410000000  0.5575990000000  0.4373090000000 1.0
C      1  0.5600360000000  0.5610120000000  0.5183710000000 1.0
C      1  0.5004850000000  0.5523390000000  0.5649280000000 1.0
C      1  0.4781830000000  0.4421150000000  0.5125910000000 1.0
C      1  0.5027280000000  0.4404880000000  0.5249100000000 1.0
C      1  0.5228190000000  0.4425380000000  0.5056720000000 1.0
C      1  0.5101390000000  0.4417790000000  0.4812000000000 1.0
C      1  0.4825180000000  0.4425360000000  0.4853540000000 1.0
C      1  0.4835350000000  0.5573890000000  0.4882450000000 1.0
C      1  0.5079190000000  0.5591200000000  0.4757490000000 1.0
C      1  0.5285820000000  0.5623340000000  0.4938420000000 1.0
C      1  0.5155940000000  0.5619350000000  0.5182850000000 1.0
C      1  0.4885660000000  0.5590220000000  0.5148890000000 1.0
C      1  0.5893730000000  0.5615340000000  0.4744620000000 1.0
C      1  0.5104080000000  0.5572030000000  0.4069690000000 1.0
C      1  0.4085040000000  0.5630480000000  0.4684110000000 1.0
C      1  0.4397290000000  0.5642640000000  0.5793140000000 1.0
C      1  0.5463340000000  0.5506810000000  0.5792660000000 1.0
C      1  0.5884090000000  0.4285320000000  0.5374300000000 1.0
C      1  0.5115760000000  0.4417760000000  0.5945890000000 1.0
C      1  0.4133320000000  0.4401530000000  0.5387960000000 1.0
C      1  0.4402390000000  0.4433710000000  0.4303910000000 1.0
C      1  0.5465930000000  0.4297490000000  0.4201310000000 1.0
C      1  0.5066780000000  0.4806020000000  0.3872590000000 1.0
C      1  0.4012770000000  0.4784440000000  0.4606710000000 1.0
C      1  0.4325890000000  0.4793700000000  0.5828130000000 1.0
C      1  0.5577900000000  0.4776610000000  0.5945400000000 1.0
C      1  0.5968610000000  0.4818440000000  0.4618830000000 1.0
C      1  0.5035050000000  0.5189510000000  0.6076120000000 1.0
C      1  0.3952130000000  0.5174870000000  0.5344270000000 1.0
C      1  0.4369900000000  0.5197520000000  0.4059050000000 1.0
C      1  0.5581580000000  0.5218920000000  0.4081130000000 1.0
C      1  0.6010980000000  0.5139610000000  0.5347470000000 1.0
C      1  0.5420040000000  0.5341390000000  0.5293380000000 1.0
C      1  0.5419220000000  0.5380240000000  0.4650720000000 1.0
C      1  0.4867040000000  0.5303670000000  0.4444780000000 1.0
C      1  0.4473370000000  0.5267210000000  0.4987610000000 1.0
C      1  0.4855130000000  0.5268750000000  0.5510010000000 1.0
C      1  0.5384140000000  0.4656030000000  0.4660720000000 1.0
C      1  0.5447240000000  0.4814270000000  0.5339210000000 1.0
C      1  0.4926680000000  0.4712260000000  0.5483820000000 1.0
C      1  0.4519470000000  0.4739920000000  0.5065880000000 1.0
C      1  0.4786260000000  0.4762340000000  0.4501870000000 1.0
C      1  0.5922250000000  0.4587380000000  0.5466610000000 1.0
C      1  0.5567470000000  0.4599990000000  0.4194690000000 1.0
C      1  0.4477500000000  0.4641060000000  0.4051130000000 1.0
C      1  0.3942510000000  0.4623640000000  0.5220880000000 1.0
C      1  0.4887900000000  0.4634630000000  0.6079160000000 1.0
C      1  0.5973420000000  0.5381810000000  0.4554230000000 1.0
C      1  0.5633610000000  0.5248350000000  0.5674220000000 1.0
C      1  0.4455810000000  0.5352520000000  0.5924680000000 1.0
C      1  0.3996500000000  0.5333620000000  0.4789980000000 1.0
C      1  0.4886090000000  0.5338350000000  0.3951370000000 1.0
C      1  0.4812410000000  0.4355020000000  0.5808730000000 1.0
C      1  0.5618590000000  0.4346620000000  0.5557790000000 1.0
C      1  0.5596770000000  0.4353750000000  0.4508440000000 1.0
C      1  0.4735510000000  0.4407210000000  0.4242540000000 1.0
C      1  0.4185120000000  0.4360230000000  0.5053970000000 1.0
C      1  0.4811320000000  0.5645070000000  0.4215420000000 1.0
C      1  0.5670810000000  0.5655070000000  0.4505920000000 1.0
C      1  0.5622610000000  0.5641580000000  0.5521660000000 1.0
C      1  0.4713530000000  0.5612780000000  0.5766180000000 1.0
C      1  0.4204000000000  0.5616850000000  0.4980100000000 1.0
C      1  0.3898610000000  0.4860550000000  0.5453010000000 1.0
C      1  0.5093220000000  0.4882900000000  0.6190980000000 1.0
C      1  0.6024670000000  0.4813370000000  0.5249100000000 1.0
C      1  0.5631440000000  0.4886560000000  0.4026460000000 1.0
C      1  0.4242530000000  0.4882130000000  0.4077300000000 1.0
C      1  0.4015590000000  0.5113550000000  0.4545250000000 1.0
C      1  0.5115740000000  0.5134230000000  0.3797980000000 1.0
C      1  0.6072080000000  0.5122570000000  0.4733720000000 1.0
C      1  0.5585550000000  0.5090670000000  0.6048860000000 1.0
C      1  0.4231400000000  0.5122210000000  0.5853530000000 1.0
C      1  0.5472550000000  0.4130420000000  0.5335950000000 1.0
C      1  0.5354390000000  0.4155500000000  0.4649640000000 1.0
C      1  0.4759530000000  0.4211940000000  0.4522820000000 1.0
C      1  0.4465340000000  0.4178670000000  0.5126280000000 1.0
C      1  0.4936770000000  0.4149590000000  0.5565350000000 1.0
C      1  0.5466230000000  0.5866010000000  0.4677960000000 1.0
C      1  0.5384830000000  0.5862480000000  0.5401510000000 1.0
C      1  0.4779690000000  0.5815790000000  0.5498020000000 1.0
C      1  0.4478970000000  0.5812800000000  0.4933560000000 1.0
C      1  0.4920480000000  0.5832890000000  0.4482470000000 1.0
C      1  0.4805150000000  0.4675160000000  0.4038950000000 1.0
C      1  0.4067970000000  0.4644080000000  0.4905490000000 1.0
C      1  0.4620470000000  0.4629440000000  0.5872590000000 1.0
C      1  0.5655930000000  0.4673460000000  0.5649010000000 1.0
C      1  0.5734660000000  0.4654470000000  0.4472150000000 1.0
C      1  0.4784590000000  0.5308350000000  0.5901200000000 1.0
C      1  0.4097320000000  0.5333430000000  0.5104930000000 1.0
C      1  0.4625460000000  0.5377370000000  0.4135200000000 1.0
C      1  0.5705350000000  0.5348880000000  0.4359970000000 1.0
C      1  0.5793820000000  0.5361360000000  0.5428230000000 1.0
C      1  0.4521490000000  0.5022280000000  0.5994100000000 1.0
C      1  0.5812540000000  0.4997770000000  0.5816520000000 1.0
C      1  0.6008750000000  0.5079070000000  0.4402900000000 1.0
C      1  0.4803290000000  0.5024210000000  0.3845220000000 1.0
C      1  0.3906810000000  0.5007550000000  0.4845670000000 1.0
C      1  0.4536170000000  0.4946670000000  0.3912130000000 1.0
C      1  0.5880390000000  0.5063240000000  0.4142540000000 1.0
C      1  0.5978150000000  0.4901880000000  0.5582010000000 1.0
C      1  0.4779550000000  0.4958100000000  0.6092240000000 1.0
C      1  0.3866250000000  0.4937120000000  0.5118870000000 1.0
C      1  0.5193880000000  0.4885190000000  0.4759870000000 1.0
C      1  0.4873330000000  0.4866500000000  0.4769840000000 1.0
C      1  0.4782780000000  0.4861470000000  0.5074890000000 1.0
C      1  0.5053360000000  0.4881580000000  0.5267520000000 1.0
C      1  0.5319370000000  0.4909550000000  0.5056790000000 1.0
C      1  0.5135730000000  0.5212970000000  0.5230790000000 1.0
C      1  0.4811460000000  0.5183900000000  0.5182830000000 1.0
C      1  0.4766450000000  0.5182700000000  0.4844580000000 1.0
C      1  0.5068200000000  0.5198080000000  0.4685940000000 1.0
C      1  0.5298790000000  0.5226000000000  0.4930620000000 1.0
C      1  0.5232580000000  0.5938600000000  0.4453620000000 1.0
C      1  0.4544010000000  0.5858250000000  0.4606370000000 1.0
C      1  0.4484770000000  0.5840630000000  0.5329340000000 1.0
C      1  0.5130560000000  0.5910820000000  0.5615260000000 1.0
C      1  0.5564870000000  0.5899240000000  0.5002640000000 1.0
C      1  0.5254820000000  0.4083320000000  0.5582820000000 1.0
C      1  0.4556260000000  0.4154650000000  0.5454170000000 1.0
C      1  0.4485120000000  0.4173670000000  0.4727430000000 1.0
C      1  0.5136160000000  0.4057560000000  0.4424570000000 1.0
C      1  0.5541250000000  0.4181320000000  0.5007650000000 1.0
C      1  0.4899340000000  0.5044720000000  0.5717980000000 1.0
C      1  0.5681690000000  0.5221540000000  0.5137190000000 1.0
C      1  0.5473990000000  0.5126900000000  0.4459950000000 1.0
C      1  0.4571630000000  0.5169450000000  0.4402020000000 1.0
C      1  0.4335650000000  0.5134370000000  0.5243980000000 1.0
C      1  0.4983300000000  0.4876910000000  0.4255010000000 1.0
C      1  0.5580630000000  0.4910440000000  0.4631970000000 1.0
C      1  0.5474270000000  0.4964130000000  0.5608640000000 1.0
C      1  0.4673090000000  0.4839500000000  0.5636120000000 1.0
C      1  0.4316030000000  0.4860260000000  0.4853750000000 1.0
C      1  0.4817500000000  0.4047400000000  0.5263060000000 1.0
C      1  0.5154930000000  0.4026220000000  0.5257030000000 1.0
C      1  0.5243140000000  0.4043300000000  0.4941250000000 1.0
C      1  0.4978290000000  0.4047650000000  0.4726890000000 1.0
C      1  0.4715800000000  0.4050620000000  0.4939300000000 1.0
C      1  0.4818200000000  0.5959660000000  0.4783670000000 1.0
C      1  0.5158280000000  0.5981310000000  0.4785900000000 1.0
C      1  0.5268380000000  0.5994770000000  0.5108020000000 1.0
C      1  0.5007500000000  0.5970620000000  0.5302760000000 1.0
C      1  0.4725300000000  0.5953890000000  0.5112990000000 1.0
C      1  0.4640820000000  0.4519790000000  0.4613040000000 1.0
C      1  0.4499130000000  0.4493940000000  0.5258380000000 1.0
C      1  0.5099060000000  0.4449740000000  0.5549070000000 1.0
C      1  0.5504510000000  0.4561820000000  0.5125250000000 1.0
C      1  0.5208580000000  0.4438490000000  0.4520850000000 1.0
C      1  0.4701980000000  0.5512260000000  0.5380100000000 1.0
C      1  0.4543650000000  0.5510520000000  0.4798810000000 1.0
C      1  0.5092940000000  0.5532390000000  0.4469090000000 1.0
C      1  0.5603820000000  0.5524150000000  0.4875050000000 1.0
C      1  0.5242130000000  0.5558500000000  0.5465160000000 1.0
C      1  0.4166850000000  0.4698780000000  0.5542520000000 1.0
C      1  0.5267130000000  0.4704040000000  0.5980010000000 1.0
C      1  0.5961550000000  0.4777600000000  0.4957620000000 1.0
C      1  0.5318580000000  0.4787510000000  0.4058750000000 1.0
C      1  0.4239440000000  0.4721050000000  0.4360720000000 1.0
C      1  0.4235110000000  0.5171970000000  0.4351690000000 1.0
C      1  0.5275020000000  0.5296980000000  0.4025690000000 1.0
C      1  0.5994870000000  0.5168060000000  0.5022450000000 1.0
C      1  0.5338130000000  0.5242460000000  0.5943100000000 1.0
C      1  0.4196630000000  0.5104800000000  0.5554300000000 1.0
C      1  0.5259800000000  0.5056050000000  0.4252640000000 1.0
C      1  0.4435180000000  0.4889760000000  0.5456950000000 1.0
C      1  0.5197130000000  0.4973730000000  0.5783450000000 1.0
C      1  0.5722210000000  0.4999420000000  0.4881260000000 1.0
C      1  0.4377140000000  0.4944390000000  0.4569680000000 1.0
END
