TITL C-2782227-3064-940 0.000958106517823186 125000 -524.375804166299 0 0 92 (C1) n - 1
REM
REM in /home/nfs/bkarasulu/CARBON/AIRSS/Generating-Clusters/REBO/Higher-Symm/SD-CG/HFTN-CG
REM
REM
REM
REM
REM
REM ./C.cell (12c818d87b63d06a65506943cc24bca4)
REM
REM compiler GCC version 9.2.1 20190827 (Red Hat 9.2.1-1)
REM options -cpp -mtune=generic -march=x86-64 -g -O0 -fpre-include=/usr/include/finclude/math-vector-fortran.h
REM seed -1015841323 -1063572213 1094222694 -145339945 44187507 494736924 -1517210730 855894791 -2079482075 -605296045 -613524815 282496537 1622206086 666572281 119051159 -660438122 797629618 -1728174041 -2009659441 1529546465 290944522 2029862847 -52260461 -270344028 1121509758 1079800775 1803056563 1865455954 -1159324616 -1396860242 -1835828181 -546343823 -1062625181
REM
CELL 1.54180   50.00000   50.00000   50.00000   90.00000   90.00000   90.00000
LATT -1
SFAC C  
C      1  0.4443350000000  0.4644640000000  0.4318020000000 1.0
C      1  0.5586550000000  0.5333290000000  0.4291390000000 1.0
C      1  0.5573530000000  0.4662840000000  0.5653860000000 1.0
C      1  0.4407780000000  0.5343470000000  0.5707350000000 1.0
C      1  0.4634110000000  0.4444620000000  0.4337030000000 1.0
C      1  0.5382170000000  0.5520990000000  0.4308280000000 1.0
C      1  0.4600240000000  0.5541260000000  0.5687140000000 1.0
C      1  0.5370690000000  0.4474430000000  0.5648810000000 1.0
C      1  0.5278250000000  0.4477620000000  0.4524430000000 1.0
C      1  0.4738490000000  0.5509950000000  0.4547800000000 1.0
C      1  0.4709180000000  0.4473150000000  0.5414680000000 1.0
C      1  0.5257720000000  0.5509820000000  0.5487500000000 1.0
C      1  0.4484200000000  0.5294240000000  0.4563450000000 1.0
C      1  0.5541660000000  0.4691720000000  0.4544970000000 1.0
C      1  0.4466530000000  0.4700770000000  0.5474460000000 1.0
C      1  0.5507000000000  0.5286980000000  0.5425540000000 1.0
C      1  0.4886510000000  0.5315220000000  0.4931890000000 1.0
C      1  0.5089890000000  0.4868000000000  0.4922140000000 1.0
C      1  0.5175360000000  0.5409710000000  0.5110050000000 1.0
C      1  0.4875100000000  0.4701330000000  0.5095800000000 1.0
C      1  0.5322750000000  0.4960370000000  0.5011690000000 1.0
C      1  0.4667870000000  0.5115630000000  0.4893590000000 1.0
C      1  0.5380840000000  0.5244590000000  0.5048460000000 1.0
C      1  0.4657430000000  0.4885390000000  0.5143020000000 1.0
C      1  0.4305220000000  0.4819250000000  0.4500050000000 1.0
C      1  0.5738440000000  0.5162320000000  0.4466940000000 1.0
C      1  0.5737540000000  0.4830960000000  0.5490660000000 1.0
C      1  0.4273780000000  0.5172870000000  0.5518990000000 1.0
C      1  0.4806870000000  0.4310740000000  0.4519910000000 1.0
C      1  0.5215910000000  0.5645190000000  0.4505460000000 1.0
C      1  0.4775690000000  0.5681510000000  0.5513230000000 1.0
C      1  0.5201330000000  0.4322220000000  0.5477800000000 1.0
C      1  0.4541330000000  0.4776460000000  0.5786500000000 1.0
C      1  0.5375160000000  0.5198560000000  0.5708080000000 1.0
C      1  0.5393280000000  0.4763880000000  0.4272380000000 1.0
C      1  0.4595210000000  0.5260580000000  0.4270380000000 1.0
C      1  0.4760780000000  0.4572690000000  0.5711350000000 1.0
C      1  0.5148790000000  0.5395860000000  0.5763550000000 1.0
C      1  0.4846180000000  0.5435570000000  0.4245980000000 1.0
C      1  0.5147630000000  0.4583170000000  0.4244190000000 1.0
C      1  0.5001220000000  0.4766120000000  0.4567250000000 1.0
C      1  0.5000190000000  0.5158430000000  0.4489240000000 1.0
C      1  0.4969400000000  0.4809840000000  0.5468610000000 1.0
C      1  0.4974690000000  0.5220260000000  0.5438460000000 1.0
C      1  0.4738030000000  0.4988050000000  0.4521380000000 1.0
C      1  0.5269330000000  0.4979560000000  0.4582730000000 1.0
C      1  0.4723040000000  0.5003670000000  0.5514550000000 1.0
C      1  0.5231690000000  0.4999140000000  0.5397160000000 1.0
C      1  0.4254610000000  0.4451480000000  0.4921010000000 1.0
C      1  0.5797510000000  0.5538530000000  0.4887010000000 1.0
C      1  0.5787390000000  0.4429380000000  0.5101600000000 1.0
C      1  0.4239220000000  0.5549940000000  0.5104710000000 1.0
C      1  0.4446090000000  0.4253820000000  0.4933190000000 1.0
C      1  0.5560770000000  0.5679000000000  0.4920570000000 1.0
C      1  0.4429900000000  0.5748690000000  0.5094120000000 1.0
C      1  0.5587370000000  0.4278910000000  0.5093830000000 1.0
C      1  0.4331280000000  0.5081050000000  0.4682160000000 1.0
C      1  0.5696970000000  0.4910320000000  0.4674400000000 1.0
C      1  0.5685360000000  0.5095920000000  0.5287110000000 1.0
C      1  0.4313060000000  0.4913760000000  0.5339060000000 1.0
C      1  0.5083120000000  0.4314530000000  0.4674040000000 1.0
C      1  0.4945340000000  0.5673980000000  0.4707600000000 1.0
C      1  0.5051340000000  0.5686560000000  0.5358720000000 1.0
C      1  0.4922600000000  0.4321350000000  0.5282560000000 1.0
C      1  0.5049320000000  0.4681430000000  0.5769060000000 1.0
C      1  0.4878660000000  0.5265910000000  0.5766660000000 1.0
C      1  0.4883570000000  0.4742580000000  0.4245060000000 1.0
C      1  0.5094860000000  0.5270750000000  0.4187650000000 1.0
C      1  0.4656780000000  0.5059080000000  0.5835170000000 1.0
C      1  0.5261920000000  0.4903130000000  0.5723130000000 1.0
C      1  0.4659030000000  0.4958130000000  0.4198580000000 1.0
C      1  0.5302150000000  0.5056460000000  0.4250370000000 1.0
C      1  0.4798770000000  0.5411730000000  0.5219110000000 1.0
C      1  0.5158540000000  0.4639200000000  0.5242530000000 1.0
C      1  0.5129880000000  0.5322900000000  0.4724900000000 1.0
C      1  0.4828390000000  0.4589640000000  0.4805190000000 1.0
C      1  0.5441300000000  0.4787490000000  0.5229720000000 1.0
C      1  0.4591950000000  0.5191170000000  0.5279200000000 1.0
C      1  0.5453560000000  0.5218560000000  0.4739590000000 1.0
C      1  0.4612380000000  0.4809000000000  0.4754190000000 1.0
C      1  0.5765850000000  0.5297260000000  0.4746820000000 1.0
C      1  0.4306580000000  0.4688830000000  0.4784330000000 1.0
C      1  0.4284560000000  0.5309210000000  0.5238280000000 1.0
C      1  0.5751940000000  0.4718500000000  0.5180970000000 1.0
C      1  0.5328050000000  0.5594550000000  0.4791410000000 1.0
C      1  0.4691880000000  0.4294800000000  0.4807860000000 1.0
C      1  0.5300600000000  0.4339190000000  0.5164480000000 1.0
C      1  0.4677920000000  0.5707130000000  0.5217440000000 1.0
C      1  0.5719940000000  0.4971170000000  0.4970840000000 1.0
C      1  0.4363480000000  0.5001030000000  0.5012150000000 1.0
C      1  0.5015630000000  0.5681750000000  0.5019690000000 1.0
C      1  0.5052620000000  0.4295300000000  0.4967730000000 1.0
END
