TITL C-2782225-7408-1445 0.00416879645516734 125000 -820.257726358888 0 0 135 (C3) n - 1
REM
REM in /home/nfs/bkarasulu/CARBON/AIRSS/Generating-Clusters/REBO/Higher-Symm/SD-CG/HFTN-CG
REM
REM
REM
REM
REM
REM ./C.cell (12c818d87b63d06a65506943cc24bca4)
REM
REM compiler GCC version 9.2.1 20190827 (Red Hat 9.2.1-1)
REM options -cpp -mtune=generic -march=x86-64 -g -O0 -fpre-include=/usr/include/finclude/math-vector-fortran.h
REM seed -2058979718 -694698142 1790444987 699460941 -1161194355 -1892140632 -198154781 2119158529 -1740903594 1610041362 -1883969863 675371055 -508683848 -533323191 -1351862097 -2064927362 -210018273 -40206769 -1189393088 -820847329 678562729 -382181022 -1226315053 1006798305 -445864871 -189828330 -1214950044 -533352626 1009495985 1649968207 106504895 -754005399 56944244
REM
CELL 1.54180   50.00000   50.00000   50.00000   90.00000   90.00000   90.00000
LATT -1
SFAC C  
C      1  0.5654020000000  0.5486290000000  0.4623930000000 1.0
C      1  0.5093820000000  0.4190510000000  0.4623740000000 1.0
C      1  0.4251740000000  0.5323540000000  0.4624410000000 1.0
C      1  0.5663120000000  0.5493240000000  0.5379530000000 1.0
C      1  0.5095920000000  0.4179050000000  0.5379350000000 1.0
C      1  0.4241390000000  0.5327360000000  0.5380020000000 1.0
C      1  0.4390080000000  0.5781320000000  0.4714440000000 1.0
C      1  0.5981370000000  0.5137590000000  0.4713640000000 1.0
C      1  0.4628240000000  0.4081360000000  0.4713830000000 1.0
C      1  0.4410410000000  0.5762490000000  0.5258640000000 1.0
C      1  0.5955350000000  0.5129320000000  0.5257860000000 1.0
C      1  0.4634540000000  0.4107950000000  0.5258050000000 1.0
C      1  0.4574280000000  0.4724900000000  0.5544230000000 1.0
C      1  0.4975080000000  0.5506170000000  0.5544320000000 1.0
C      1  0.5451270000000  0.4768430000000  0.5543910000000 1.0
C      1  0.4583010000000  0.4731260000000  0.4473710000000 1.0
C      1  0.4975320000000  0.5495560000000  0.4473790000000 1.0
C      1  0.5441070000000  0.4773660000000  0.4473400000000 1.0
C      1  0.5403080000000  0.6215080000000  0.5115470000000 1.0
C      1  0.5850850000000  0.4043370000000  0.5114640000000 1.0
C      1  0.3746210000000  0.4741440000000  0.5115650000000 1.0
C      1  0.5404650000000  0.6202550000000  0.4865350000000 1.0
C      1  0.5839000000000  0.4048300000000  0.4864530000000 1.0
C      1  0.3756200000000  0.4749270000000  0.4865540000000 1.0
C      1  0.4984560000000  0.4418940000000  0.4853360000000 1.0
C      1  0.4504390000000  0.5303920000000  0.4853820000000 1.0
C      1  0.5510890000000  0.5277270000000  0.4853430000000 1.0
C      1  0.5019870000000  0.4418040000000  0.5169950000000 1.0
C      1  0.4486210000000  0.5273750000000  0.5170410000000 1.0
C      1  0.5494110000000  0.5308050000000  0.5170040000000 1.0
C      1  0.4923680000000  0.4565980000000  0.5799540000000 1.0
C      1  0.4662950000000  0.5283000000000  0.5799860000000 1.0
C      1  0.5414280000000  0.5150280000000  0.5799530000000 1.0
C      1  0.4926800000000  0.4566630000000  0.4201850000000 1.0
C      1  0.4660630000000  0.5280190000000  0.4202170000000 1.0
C      1  0.5411670000000  0.5153920000000  0.4201850000000 1.0
C      1  0.4895980000000  0.4329640000000  0.5611700000000 1.0
C      1  0.4471980000000  0.5425180000000  0.5612190000000 1.0
C      1  0.5632740000000  0.5244610000000  0.5611700000000 1.0
C      1  0.4897400000000  0.4334070000000  0.4385600000000 1.0
C      1  0.4474080000000  0.5421900000000  0.4386090000000 1.0
C      1  0.5627830000000  0.5244590000000  0.4385600000000 1.0
C      1  0.5282670000000  0.4533580000000  0.5271470000000 1.0
C      1  0.4454960000000  0.4988380000000  0.5271930000000 1.0
C      1  0.5262680000000  0.5477790000000  0.5271770000000 1.0
C      1  0.5229190000000  0.4552590000000  0.4722740000000 1.0
C      1  0.4497710000000  0.5025260000000  0.4723170000000 1.0
C      1  0.5272800000000  0.5422400000000  0.4722990000000 1.0
C      1  0.5241070000000  0.5733250000000  0.5133350000000 1.0
C      1  0.5514590000000  0.4424580000000  0.5132850000000 1.0
C      1  0.4244490000000  0.4842040000000  0.5133460000000 1.0
C      1  0.5204530000000  0.5709400000000  0.4820040000000 1.0
C      1  0.5511950000000  0.4468200000000  0.4819550000000 1.0
C      1  0.4283320000000  0.4822570000000  0.4820120000000 1.0
C      1  0.5721300000000  0.4785970000000  0.4480260000000 1.0
C      1  0.4453570000000  0.4482420000000  0.4480650000000 1.0
C      1  0.4824550000000  0.5732080000000  0.4480890000000 1.0
C      1  0.5725530000000  0.4785350000000  0.5499630000000 1.0
C      1  0.4451760000000  0.4478930000000  0.5500020000000 1.0
C      1  0.4823280000000  0.5735260000000  0.5500260000000 1.0
C      1  0.4931780000000  0.5336620000000  0.5901230000000 1.0
C      1  0.5326390000000  0.4890650000000  0.5900950000000 1.0
C      1  0.4742860000000  0.4771900000000  0.5901130000000 1.0
C      1  0.4926360000000  0.5343100000000  0.4108780000000 1.0
C      1  0.5333210000000  0.4892330000000  0.4108490000000 1.0
C      1  0.4739410000000  0.4765380000000  0.4108670000000 1.0
C      1  0.5210520000000  0.5350890000000  0.5825060000000 1.0
C      1  0.5199320000000  0.4642130000000  0.5824850000000 1.0
C      1  0.4591110000000  0.5006210000000  0.5825190000000 1.0
C      1  0.5202640000000  0.5350620000000  0.4179590000000 1.0
C      1  0.5201640000000  0.4649310000000  0.4179380000000 1.0
C      1  0.4594790000000  0.5000820000000  0.4179720000000 1.0
C      1  0.4852730000000  0.4878930000000  0.5465500000000 1.0
C      1  0.4969180000000  0.5188010000000  0.5465550000000 1.0
C      1  0.5178620000000  0.4932630000000  0.5465390000000 1.0
C      1  0.4850700000000  0.4879350000000  0.4584870000000 1.0
C      1  0.4969820000000  0.5189680000000  0.4584920000000 1.0
C      1  0.5179010000000  0.4931350000000  0.4584760000000 1.0
C      1  0.5295380000000  0.4833270000000  0.5183540000000 1.0
C      1  0.4708070000000  0.4827530000000  0.5183760000000 1.0
C      1  0.4996760000000  0.5339030000000  0.5183800000000 1.0
C      1  0.5335820000000  0.4835630000000  0.4856400000000 1.0
C      1  0.4689620000000  0.4791370000000  0.4856630000000 1.0
C      1  0.4974400000000  0.5373130000000  0.4856700000000 1.0
C      1  0.5926090000000  0.4829310000000  0.4819610000000 1.0
C      1  0.4388990000000  0.4283350000000  0.4820020000000 1.0
C      1  0.4684720000000  0.5887500000000  0.4820400000000 1.0
C      1  0.5854910000000  0.4847070000000  0.5126690000000 1.0
C      1  0.4440210000000  0.4336070000000  0.5127070000000 1.0
C      1  0.4705030000000  0.5816740000000  0.5127420000000 1.0
C      1  0.5820190000000  0.5049040000000  0.4475820000000 1.0
C      1  0.4631940000000  0.4265240000000  0.4476030000000 1.0
C      1  0.4547270000000  0.5686190000000  0.4476490000000 1.0
C      1  0.5820040000000  0.5048690000000  0.5507100000000 1.0
C      1  0.4632580000000  0.4265410000000  0.5507320000000 1.0
C      1  0.4547970000000  0.5685420000000  0.5507780000000 1.0
C      1  0.5408790000000  0.4201590000000  0.4544130000000 1.0
C      1  0.4103790000000  0.5045240000000  0.4544880000000 1.0
C      1  0.5486910000000  0.5753580000000  0.4544570000000 1.0
C      1  0.5417450000000  0.4200940000000  0.5447900000000 1.0
C      1  0.4099650000000  0.5037950000000  0.5448660000000 1.0
C      1  0.5483420000000  0.5760690000000  0.5448350000000 1.0
C      1  0.3991430000000  0.4761800000000  0.4667370000000 1.0
C      1  0.5297720000000  0.5992590000000  0.4667250000000 1.0
C      1  0.5710470000000  0.4245920000000  0.4666560000000 1.0
C      1  0.3985210000000  0.4755140000000  0.5310290000000 1.0
C      1  0.5295600000000  0.6001220000000  0.5310170000000 1.0
C      1  0.5719550000000  0.4243350000000  0.5309470000000 1.0
C      1  0.4195760000000  0.4486010000000  0.5306170000000 1.0
C      1  0.4957250000000  0.5953450000000  0.5306330000000 1.0
C      1  0.5847350000000  0.4560260000000  0.5305570000000 1.0
C      1  0.4177970000000  0.4477200000000  0.4649150000000 1.0
C      1  0.4957970000000  0.5973340000000  0.4649310000000 1.0
C      1  0.5863660000000  0.4549770000000  0.4648530000000 1.0
C      1  0.4892890000000  0.4042490000000  0.5138460000000 1.0
C      1  0.4224450000000  0.5571490000000  0.5139180000000 1.0
C      1  0.5882820000000  0.5385880000000  0.5138490000000 1.0
C      1  0.4887860000000  0.4033290000000  0.4846310000000 1.0
C      1  0.4218750000000  0.5580490000000  0.4847040000000 1.0
C      1  0.5893220000000  0.5386360000000  0.4846350000000 1.0
C      1  0.5554870000000  0.5005530000000  0.5142950000000 1.0
C      1  0.4727480000000  0.4516690000000  0.5143120000000 1.0
C      1  0.4717820000000  0.5477650000000  0.5143420000000 1.0
C      1  0.5632170000000  0.4975020000000  0.4821010000000 1.0
C      1  0.4662130000000  0.4465040000000  0.4821220000000 1.0
C      1  0.4705500000000  0.5560100000000  0.4821540000000 1.0
C      1  0.4384440000000  0.4974050000000  0.4407750000000 1.0
C      1  0.5284820000000  0.5546140000000  0.4407590000000 1.0
C      1  0.5330070000000  0.4480340000000  0.4407250000000 1.0
C      1  0.4374770000000  0.4965420000000  0.5601920000000 1.0
C      1  0.5283170000000  0.5558680000000  0.5601760000000 1.0
C      1  0.5342750000000  0.4475350000000  0.5601400000000 1.0
C      1  0.5043270000000  0.5967080000000  0.4977640000000 1.0
C      1  0.4140840000000  0.4553940000000  0.4977550000000 1.0
C      1  0.5815870000000  0.4478990000000  0.4976890000000 1.0
END
