TITL C-2782229-3092-1220 -0.00359267535015742 125000 -606.254307728876 0 0 101 (C2) n - 1
REM
REM in /home/nfs/bkarasulu/CARBON/AIRSS/Generating-Clusters/REBO/Higher-Symm/SD-CG/HFTN-CG
REM
REM
REM
REM
REM
REM ./C.cell (12c818d87b63d06a65506943cc24bca4)
REM
REM compiler GCC version 9.2.1 20190827 (Red Hat 9.2.1-1)
REM options -cpp -mtune=generic -march=x86-64 -g -O0 -fpre-include=/usr/include/finclude/math-vector-fortran.h
REM seed 1290734771 1937825530 -1534188280 931634361 1693378915 -1618644976 439731173 1041763559 -1296788865 -1211943479 -1439947969 1979391633 637592216 1841409683 -34756944 -1811849740 900945122 -597485430 1480780278 1140700414 439775627 -277828478 1835105521 -507737081 1635464180 -1394015267 -197628798 -1421092890 2119254160 -405944602 -1964792858 2091789705 522559453
REM
CELL 1.54180   50.00000   50.00000   50.00000   90.00000   90.00000   90.00000
LATT -1
SFAC C  
C      1  0.5386370000000  0.4149620000000  0.4783830000000 1.0
C      1  0.4711590000000  0.5810650000000  0.4855750000000 1.0
C      1  0.4619020000000  0.4149690000000  0.5217290000000 1.0
C      1  0.5294320000000  0.5810530000000  0.5145670000000 1.0
C      1  0.5138530000000  0.5611640000000  0.4916900000000 1.0
C      1  0.4911280000000  0.4404450000000  0.4813640000000 1.0
C      1  0.4867310000000  0.5611660000000  0.5084480000000 1.0
C      1  0.5094180000000  0.4404380000000  0.5187520000000 1.0
C      1  0.4623390000000  0.5915110000000  0.5153010000000 1.0
C      1  0.5377850000000  0.4114100000000  0.5078920000000 1.0
C      1  0.5382550000000  0.5915020000000  0.4848430000000 1.0
C      1  0.4627530000000  0.4114230000000  0.4922190000000 1.0
C      1  0.4852640000000  0.4858700000000  0.4257860000000 1.0
C      1  0.5135370000000  0.5130150000000  0.4283070000000 1.0
C      1  0.5152970000000  0.4858520000000  0.5743380000000 1.0
C      1  0.4870320000000  0.5130060000000  0.5718230000000 1.0
C      1  0.5733210000000  0.5453800000000  0.5133950000000 1.0
C      1  0.4288930000000  0.4582190000000  0.5135450000000 1.0
C      1  0.4272580000000  0.5454050000000  0.4867410000000 1.0
C      1  0.5716600000000  0.4582000000000  0.4865750000000 1.0
C      1  0.4765490000000  0.4606990000000  0.5172930000000 1.0
C      1  0.5307420000000  0.5418200000000  0.5218340000000 1.0
C      1  0.5240030000000  0.4606950000000  0.4828280000000 1.0
C      1  0.4698360000000  0.5418340000000  0.4783010000000 1.0
C      1  0.4821090000000  0.5186510000000  0.4343820000000 1.0
C      1  0.5172890000000  0.4807050000000  0.4309550000000 1.0
C      1  0.5184620000000  0.5186330000000  0.5657490000000 1.0
C      1  0.4832700000000  0.4806980000000  0.5691680000000 1.0
C      1  0.5218660000000  0.5492380000000  0.5648060000000 1.0
C      1  0.4779560000000  0.4509820000000  0.5678660000000 1.0
C      1  0.4787140000000  0.5492560000000  0.4353300000000 1.0
C      1  0.5225940000000  0.4509880000000  0.4322530000000 1.0
C      1  0.5274910000000  0.4405680000000  0.5540250000000 1.0
C      1  0.4735390000000  0.5556270000000  0.5525230000000 1.0
C      1  0.4730560000000  0.4405860000000  0.4460910000000 1.0
C      1  0.5270430000000  0.5556290000000  0.4476150000000 1.0
C      1  0.5495230000000  0.4492620000000  0.4421680000000 1.0
C      1  0.4517300000000  0.5548250000000  0.4421990000000 1.0
C      1  0.4510270000000  0.4492660000000  0.5579500000000 1.0
C      1  0.5488520000000  0.5547990000000  0.5579380000000 1.0
C      1  0.5477200000000  0.4421360000000  0.4725970000000 1.0
C      1  0.4475670000000  0.5671820000000  0.4717670000000 1.0
C      1  0.4528280000000  0.4421460000000  0.5275200000000 1.0
C      1  0.5530190000000  0.5671610000000  0.5283720000000 1.0
C      1  0.4400130000000  0.4754840000000  0.4417040000000 1.0
C      1  0.5605750000000  0.5223140000000  0.4423120000000 1.0
C      1  0.5605440000000  0.4754550000000  0.5584190000000 1.0
C      1  0.4399970000000  0.5223220000000  0.5578200000000 1.0
C      1  0.4931280000000  0.5870790000000  0.4643800000000 1.0
C      1  0.5130290000000  0.4123580000000  0.4634850000000 1.0
C      1  0.5074640000000  0.5870700000000  0.5357630000000 1.0
C      1  0.4875090000000  0.4123560000000  0.5366270000000 1.0
C      1  0.4661500000000  0.4631140000000  0.4867190000000 1.0
C      1  0.5361910000000  0.5366200000000  0.4899220000000 1.0
C      1  0.5344040000000  0.4631010000000  0.5134020000000 1.0
C      1  0.4643850000000  0.5366290000000  0.5102120000000 1.0
C      1  0.5627240000000  0.4758180000000  0.4588240000000 1.0
C      1  0.4373150000000  0.5314190000000  0.4584330000000 1.0
C      1  0.4378340000000  0.4758300000000  0.5412990000000 1.0
C      1  0.5632600000000  0.5313920000000  0.5417000000000 1.0
C      1  0.5456130000000  0.4928180000000  0.5132640000000 1.0
C      1  0.4558590000000  0.5067050000000  0.5130730000000 1.0
C      1  0.4549500000000  0.4928340000000  0.4868620000000 1.0
C      1  0.5447080000000  0.5066940000000  0.4870550000000 1.0
C      1  0.5742150000000  0.5469120000000  0.4848680000000 1.0
C      1  0.4275110000000  0.4535940000000  0.4853770000000 1.0
C      1  0.4263640000000  0.5469320000000  0.5152680000000 1.0
C      1  0.5730400000000  0.4535690000000  0.5147420000000 1.0
C      1  0.5077580000000  0.4070480000000  0.5136710000000 1.0
C      1  0.4925180000000  0.6003220000000  0.5133280000000 1.0
C      1  0.4927790000000  0.4070530000000  0.4864390000000 1.0
C      1  0.5080780000000  0.6003220000000  0.4868180000000 1.0
C      1  0.4916870000000  0.5130180000000  0.5321770000000 1.0
C      1  0.5124320000000  0.4935060000000  0.5353540000000 1.0
C      1  0.5088830000000  0.5130220000000  0.4679530000000 1.0
C      1  0.4881320000000  0.4935160000000  0.4647730000000 1.0
C      1  0.5476740000000  0.4345170000000  0.5270790000000 1.0
C      1  0.4527930000000  0.5637660000000  0.5287320000000 1.0
C      1  0.4528700000000  0.4345370000000  0.4730360000000 1.0
C      1  0.5477920000000  0.5637570000000  0.4714070000000 1.0
C      1  0.4664880000000  0.5309420000000  0.5648660000000 1.0
C      1  0.5345240000000  0.4661620000000  0.5663500000000 1.0
C      1  0.5340860000000  0.5309430000000  0.4352670000000 1.0
C      1  0.4660310000000  0.4661840000000  0.4337710000000 1.0
C      1  0.5676370000000  0.4772860000000  0.5309870000000 1.0
C      1  0.4329390000000  0.5220440000000  0.5300810000000 1.0
C      1  0.4329210000000  0.4773130000000  0.4691360000000 1.0
C      1  0.5676330000000  0.5220290000000  0.4700500000000 1.0
C      1  0.5003730000000  0.5660460000000  0.5541470000000 1.0
C      1  0.4980600000000  0.4321270000000  0.5561930000000 1.0
C      1  0.5002120000000  0.5660560000000  0.4459920000000 1.0
C      1  0.5024840000000  0.4321360000000  0.4439220000000 1.0
C      1  0.4594380000000  0.5088790000000  0.4582170000000 1.0
C      1  0.5349760000000  0.4948230000000  0.4566810000000 1.0
C      1  0.5411290000000  0.5088590000000  0.5419120000000 1.0
C      1  0.4655870000000  0.4948260000000  0.5434460000000 1.0
C      1  0.5016530000000  0.5382190000000  0.5254930000000 1.0
C      1  0.5027800000000  0.4669450000000  0.5373020000000 1.0
C      1  0.4989230000000  0.5382240000000  0.4746410000000 1.0
C      1  0.4977750000000  0.4669530000000  0.4628190000000 1.0
C      1  0.5002790000000  0.4784320000000  0.5000620000000 1.0
END
