TITL C-2782239-8622-1145 -0.00104869591840752 125000 -539.20816306435 0 0 93 (C1) n - 1
REM
REM in /home/nfs/bkarasulu/CARBON/AIRSS/Generating-Clusters/REBO/Higher-Symm/SD-CG/HFTN-CG
REM
REM
REM
REM
REM
REM ./C.cell (12c818d87b63d06a65506943cc24bca4)
REM
REM compiler GCC version 9.2.1 20190827 (Red Hat 9.2.1-1)
REM options -cpp -mtune=generic -march=x86-64 -g -O0 -fpre-include=/usr/include/finclude/math-vector-fortran.h
REM seed -193330386 2140949529 -680884561 -1880243716 1254625214 604214942 796375337 1544601720 -1574742483 1088028574 -1715437452 1564044102 -26921947 754949715 611634040 -290279665 2143244130 414801936 1631044730 -290913123 629538252 -279627217 -1985196695 895900602 1959023487 1402223709 -998785334 1356850997 -1933466657 1864464300 -1279924085 1043423212 1197140167
REM
CELL 1.54180   50.00000   50.00000   50.00000   90.00000   90.00000   90.00000
LATT -1
SFAC C  
C      1  0.4862580000000  0.5187350000000  0.5780780000000 1.0
C      1  0.4892550000000  0.5667750000000  0.4441060000000 1.0
C      1  0.4845830000000  0.4199680000000  0.4777870000000 1.0
C      1  0.4062260000000  0.5177300000000  0.5315590000000 1.0
C      1  0.4062450000000  0.5186170000000  0.4691750000000 1.0
C      1  0.4078470000000  0.4657320000000  0.4995230000000 1.0
C      1  0.5434360000000  0.5631650000000  0.5163650000000 1.0
C      1  0.5459000000000  0.4825370000000  0.4328910000000 1.0
C      1  0.5423310000000  0.4578480000000  0.5494520000000 1.0
C      1  0.4251390000000  0.4674730000000  0.4747590000000 1.0
C      1  0.4245790000000  0.4955060000000  0.5428830000000 1.0
C      1  0.4233740000000  0.5415840000000  0.4827790000000 1.0
C      1  0.4258450000000  0.4956150000000  0.4610780000000 1.0
C      1  0.4241930000000  0.4696690000000  0.5242990000000 1.0
C      1  0.4224620000000  0.5372740000000  0.5145690000000 1.0
C      1  0.5383860000000  0.4940760000000  0.5210480000000 1.0
C      1  0.5469750000000  0.5215750000000  0.4880050000000 1.0
C      1  0.5301040000000  0.4835970000000  0.4835800000000 1.0
C      1  0.4525020000000  0.5443090000000  0.5534690000000 1.0
C      1  0.4612370000000  0.5265240000000  0.4383840000000 1.0
C      1  0.4518200000000  0.4321080000000  0.5127430000000 1.0
C      1  0.4914760000000  0.4167610000000  0.4488120000000 1.0
C      1  0.4901130000000  0.4978050000000  0.5973800000000 1.0
C      1  0.4909620000000  0.5913990000000  0.4585130000000 1.0
C      1  0.5662770000000  0.4747050000000  0.5416830000000 1.0
C      1  0.5696270000000  0.5484480000000  0.5059740000000 1.0
C      1  0.5686990000000  0.4751970000000  0.4557910000000 1.0
C      1  0.4570730000000  0.4264180000000  0.4833650000000 1.0
C      1  0.4585340000000  0.5207660000000  0.5711740000000 1.0
C      1  0.4629490000000  0.5540920000000  0.4481250000000 1.0
C      1  0.4941110000000  0.4366820000000  0.5389690000000 1.0
C      1  0.4943330000000  0.5646010000000  0.5337680000000 1.0
C      1  0.4990260000000  0.4933150000000  0.4228100000000 1.0
C      1  0.4510340000000  0.5528130000000  0.5090480000000 1.0
C      1  0.4539650000000  0.4798080000000  0.4502460000000 1.0
C      1  0.4516800000000  0.4663680000000  0.5414530000000 1.0
C      1  0.5845800000000  0.4963470000000  0.5830900000000 1.0
C      1  0.5761780000000  0.5836640000000  0.4679480000000 1.0
C      1  0.5829850000000  0.4231940000000  0.4480010000000 1.0
C      1  0.5697040000000  0.4978100000000  0.5603560000000 1.0
C      1  0.5588420000000  0.5634510000000  0.4772830000000 1.0
C      1  0.5651510000000  0.4413100000000  0.4587450000000 1.0
C      1  0.4760050000000  0.5090160000000  0.5301800000000 1.0
C      1  0.4764100000000  0.5208940000000  0.4749260000000 1.0
C      1  0.4788390000000  0.4688750000000  0.4936330000000 1.0
C      1  0.5817890000000  0.5166910000000  0.5069600000000 1.0
C      1  0.5870700000000  0.4960890000000  0.4798420000000 1.0
C      1  0.5765020000000  0.4826470000000  0.5103060000000 1.0
C      1  0.5292180000000  0.5753240000000  0.4896730000000 1.0
C      1  0.5383540000000  0.4523260000000  0.4433500000000 1.0
C      1  0.5244010000000  0.4711300000000  0.5706340000000 1.0
C      1  0.4811490000000  0.4887260000000  0.4695170000000 1.0
C      1  0.4739130000000  0.4798970000000  0.5240290000000 1.0
C      1  0.4718040000000  0.5298510000000  0.5044890000000 1.0
C      1  0.5224330000000  0.4559900000000  0.4711040000000 1.0
C      1  0.5174480000000  0.4887900000000  0.5447120000000 1.0
C      1  0.5233360000000  0.5457940000000  0.4808040000000 1.0
C      1  0.4480630000000  0.4889170000000  0.5667180000000 1.0
C      1  0.4495530000000  0.5627140000000  0.4765390000000 1.0
C      1  0.4483250000000  0.4478730000000  0.4614050000000 1.0
C      1  0.5046430000000  0.5915900000000  0.4872380000000 1.0
C      1  0.5082060000000  0.4430600000000  0.4365440000000 1.0
C      1  0.5029420000000  0.4698450000000  0.5886960000000 1.0
C      1  0.4649540000000  0.5653350000000  0.5363300000000 1.0
C      1  0.4701580000000  0.5013370000000  0.4295980000000 1.0
C      1  0.4652230000000  0.4357140000000  0.5394670000000 1.0
C      1  0.4735580000000  0.4446310000000  0.4416590000000 1.0
C      1  0.4693460000000  0.4752130000000  0.5876670000000 1.0
C      1  0.4712100000000  0.5872390000000  0.4837150000000 1.0
C      1  0.4996190000000  0.4665080000000  0.5311400000000 1.0
C      1  0.4976570000000  0.5396280000000  0.5176340000000 1.0
C      1  0.4922320000000  0.4712920000000  0.4435600000000 1.0
C      1  0.5256690000000  0.5021460000000  0.4273060000000 1.0
C      1  0.5260920000000  0.4371690000000  0.5365580000000 1.0
C      1  0.5248990000000  0.5597850000000  0.5385750000000 1.0
C      1  0.5569110000000  0.5136150000000  0.5259200000000 1.0
C      1  0.5699680000000  0.5196130000000  0.4690570000000 1.0
C      1  0.5591730000000  0.4688520000000  0.4869910000000 1.0
C      1  0.4998590000000  0.4434190000000  0.4893000000000 1.0
C      1  0.5019730000000  0.5159140000000  0.5513680000000 1.0
C      1  0.4985790000000  0.5403040000000  0.4599280000000 1.0
C      1  0.4454120000000  0.5228390000000  0.4657510000000 1.0
C      1  0.4474560000000  0.4615120000000  0.4999200000000 1.0
C      1  0.4457970000000  0.5204110000000  0.5333490000000 1.0
C      1  0.5550840000000  0.4369100000000  0.4893640000000 1.0
C      1  0.5534120000000  0.5234870000000  0.5535340000000 1.0
C      1  0.5519700000000  0.5401520000000  0.4534550000000 1.0
C      1  0.5274970000000  0.5356870000000  0.5539060000000 1.0
C      1  0.5252160000000  0.5237790000000  0.4479960000000 1.0
C      1  0.5292650000000  0.4362060000000  0.5050030000000 1.0
C      1  0.5137860000000  0.5073980000000  0.4756880000000 1.0
C      1  0.5227150000000  0.4677840000000  0.5110890000000 1.0
C      1  0.5189140000000  0.5247100000000  0.5048070000000 1.0
END
