TITL C-2782234-8014-1263 -0.0875075281796888 125000 -388.681144549025 0 0 68 (C1) n - 1
REM
REM in /home/nfs/bkarasulu/CARBON/AIRSS/Generating-Clusters/REBO/Higher-Symm/SD-CG/HFTN-CG
REM
REM
REM
REM
REM
REM ./C.cell (12c818d87b63d06a65506943cc24bca4)
REM
REM compiler GCC version 9.2.1 20190827 (Red Hat 9.2.1-1)
REM options -cpp -mtune=generic -march=x86-64 -g -O0 -fpre-include=/usr/include/finclude/math-vector-fortran.h
REM seed 288228525 -1908944101 145406269 1573571405 -31161456 890729342 205655479 1857906954 446094896 988889952 1868305786 1558986988 741714909 651617199 1322111712 360850124 1822954907 1509259462 -1799988621 823101897 443288818 1935913051 -1687427535 -741367136 1376564535 2037782857 -464489719 1730035721 -1602142705 2003390823 -271584704 -2034716404 -474096619
REM
CELL 1.54180   50.00000   50.00000   50.00000   90.00000   90.00000   90.00000
LATT -1
SFAC C  
C      1  0.5007150000000  0.5135120000000  0.4939220000000 1.0
C      1  0.5230850000000  0.5716020000000  0.5368180000000 1.0
C      1  0.5044420000000  0.5307940000000  0.5615390000000 1.0
C      1  0.5406400000000  0.5788090000000  0.4656230000000 1.0
C      1  0.5252850000000  0.4554960000000  0.4554500000000 1.0
C      1  0.5033180000000  0.4870950000000  0.4448320000000 1.0
C      1  0.4504410000000  0.5449450000000  0.5337970000000 1.0
C      1  0.5022120000000  0.5719650000000  0.5115800000000 1.0
C      1  0.4572590000000  0.4902620000000  0.4641520000000 1.0
C      1  0.4545540000000  0.4577300000000  0.4696640000000 1.0
C      1  0.5484190000000  0.5633790000000  0.5323560000000 1.0
C      1  0.4818570000000  0.5125740000000  0.5634210000000 1.0
C      1  0.4504320000000  0.4533090000000  0.5348910000000 1.0
C      1  0.5025190000000  0.4632010000000  0.5623600000000 1.0
C      1  0.5446640000000  0.4473890000000  0.4894090000000 1.0
C      1  0.5444450000000  0.4725170000000  0.5325980000000 1.0
C      1  0.5884150000000  0.4897620000000  0.5114440000000 1.0
C      1  0.4626130000000  0.5193740000000  0.5435870000000 1.0
C      1  0.5289650000000  0.4723690000000  0.5030670000000 1.0
C      1  0.4842800000000  0.5499320000000  0.4949850000000 1.0
C      1  0.5539480000000  0.5235070000000  0.4786450000000 1.0
C      1  0.4234210000000  0.5003030000000  0.5257030000000 1.0
C      1  0.4365210000000  0.4472220000000  0.4909130000000 1.0
C      1  0.5202990000000  0.5642830000000  0.4860930000000 1.0
C      1  0.4908760000000  0.4609380000000  0.4358250000000 1.0
C      1  0.4842080000000  0.4594960000000  0.4828570000000 1.0
C      1  0.4532200000000  0.4377770000000  0.5121330000000 1.0
C      1  0.4642090000000  0.4748400000000  0.4350530000000 1.0
C      1  0.5193370000000  0.5461220000000  0.4569450000000 1.0
C      1  0.5532250000000  0.5653640000000  0.4481850000000 1.0
C      1  0.5269840000000  0.5328270000000  0.4937200000000 1.0
C      1  0.5497620000000  0.5333870000000  0.4486810000000 1.0
C      1  0.4996710000000  0.5563860000000  0.5482020000000 1.0
C      1  0.4792740000000  0.4852930000000  0.5735510000000 1.0
C      1  0.5792450000000  0.5350520000000  0.4980550000000 1.0
C      1  0.5024430000000  0.4247810000000  0.4760380000000 1.0
C      1  0.5190040000000  0.4507440000000  0.5351060000000 1.0
C      1  0.5113260000000  0.4655800000000  0.4775280000000 1.0
C      1  0.5521700000000  0.5379690000000  0.5157520000000 1.0
C      1  0.5435930000000  0.5123190000000  0.5304200000000 1.0
C      1  0.5178450000000  0.4977280000000  0.5165770000000 1.0
C      1  0.4348920000000  0.4814720000000  0.5460550000000 1.0
C      1  0.4530630000000  0.4765510000000  0.5733970000000 1.0
C      1  0.4130100000000  0.4626880000000  0.4939290000000 1.0
C      1  0.5523080000000  0.5020690000000  0.4449820000000 1.0
C      1  0.4891520000000  0.4992330000000  0.4669970000000 1.0
C      1  0.4520530000000  0.5533340000000  0.5029390000000 1.0
C      1  0.4672370000000  0.4804590000000  0.5357870000000 1.0
C      1  0.4958520000000  0.4856920000000  0.5372540000000 1.0
C      1  0.5692000000000  0.4907290000000  0.5309770000000 1.0
C      1  0.4828150000000  0.4330450000000  0.5028550000000 1.0
C      1  0.4630570000000  0.5441500000000  0.4555580000000 1.0
C      1  0.5815440000000  0.5041270000000  0.4848420000000 1.0
C      1  0.5620190000000  0.4587690000000  0.4708930000000 1.0
C      1  0.5288790000000  0.4913930000000  0.4347790000000 1.0
C      1  0.5255830000000  0.4854190000000  0.5538190000000 1.0
C      1  0.4902280000000  0.5472820000000  0.4648590000000 1.0
C      1  0.4447350000000  0.5145880000000  0.5084680000000 1.0
C      1  0.4151840000000  0.4908280000000  0.4973790000000 1.0
C      1  0.4752100000000  0.5223250000000  0.5120610000000 1.0
C      1  0.4371340000000  0.5075090000000  0.4777040000000 1.0
C      1  0.5170540000000  0.4346360000000  0.5053600000000 1.0
C      1  0.5672550000000  0.4864130000000  0.4632250000000 1.0
C      1  0.4741680000000  0.5653140000000  0.5302100000000 1.0
C      1  0.4446410000000  0.5385610000000  0.4761710000000 1.0
C      1  0.4625130000000  0.4359330000000  0.4485440000000 1.0
C      1  0.4928460000000  0.4327130000000  0.4502530000000 1.0
C      1  0.5292210000000  0.5168330000000  0.5592260000000 1.0
END
