TITL C-2782234-8014-402 -0.00310892786999971 125000 -1083.89818554717 0 0 182 (C1) n - 1
REM
REM in /home/nfs/bkarasulu/CARBON/AIRSS/Generating-Clusters/REBO/Higher-Symm/SD-CG/HFTN-CG
REM
REM
REM
REM
REM
REM ./C.cell (12c818d87b63d06a65506943cc24bca4)
REM
REM compiler GCC version 9.2.1 20190827 (Red Hat 9.2.1-1)
REM options -cpp -mtune=generic -march=x86-64 -g -O0 -fpre-include=/usr/include/finclude/math-vector-fortran.h
REM seed 879295715 -1532662387 -392080134 -1370127856 -1168217490 438274752 -122397030 554624110 -1505048815 -244643205 -1047511246 -271552090 -1545167732 775041983 -1222542244 -796233402 837751209 1845179032 1367362650 -1353085320 2134362492 695294722 529454835 -1950666544 202950609 -1789358412 -1750276121 -1306600301 871447929 982276812 453927842 -17095483 -1753747722
REM
CELL 1.54180   50.00000   50.00000   50.00000   90.00000   90.00000   90.00000
LATT -1
SFAC C  
C      1  0.5971310000000  0.4807500000000  0.4365420000000 1.0
C      1  0.5367170000000  0.4286710000000  0.4429350000000 1.0
C      1  0.4601420000000  0.4102400000000  0.4326700000000 1.0
C      1  0.4146280000000  0.4773620000000  0.4365370000000 1.0
C      1  0.4317770000000  0.5590940000000  0.4417800000000 1.0
C      1  0.4905560000000  0.6027400000000  0.4400640000000 1.0
C      1  0.5651220000000  0.5567310000000  0.4398060000000 1.0
C      1  0.3960240000000  0.4947620000000  0.4875550000000 1.0
C      1  0.4428140000000  0.5775800000000  0.4936440000000 1.0
C      1  0.5274560000000  0.6024490000000  0.4864080000000 1.0
C      1  0.5991550000000  0.5434420000000  0.4840360000000 1.0
C      1  0.5930650000000  0.4511970000000  0.4895060000000 1.0
C      1  0.5201550000000  0.4027710000000  0.4865870000000 1.0
C      1  0.4376420000000  0.4180250000000  0.4848400000000 1.0
C      1  0.5013770000000  0.5359900000000  0.6060860000000 1.0
C      1  0.5249150000000  0.5211260000000  0.6088080000000 1.0
C      1  0.5299450000000  0.4938720000000  0.6128910000000 1.0
C      1  0.5094880000000  0.4746220000000  0.6108900000000 1.0
C      1  0.4816140000000  0.4770860000000  0.6081930000000 1.0
C      1  0.4666770000000  0.5001950000000  0.6040980000000 1.0
C      1  0.4752960000000  0.5267590000000  0.6050170000000 1.0
C      1  0.5671070000000  0.4402360000000  0.4425710000000 1.0
C      1  0.4880940000000  0.4081140000000  0.4395030000000 1.0
C      1  0.4192540000000  0.4462130000000  0.4374830000000 1.0
C      1  0.4138000000000  0.5307050000000  0.4482250000000 1.0
C      1  0.4662140000000  0.5964510000000  0.4522340000000 1.0
C      1  0.5396780000000  0.5770600000000  0.4417890000000 1.0
C      1  0.5947580000000  0.5114530000000  0.4405810000000 1.0
C      1  0.5130150000000  0.4391230000000  0.4730210000000 1.0
C      1  0.4662020000000  0.4453590000000  0.4734870000000 1.0
C      1  0.4365830000000  0.5051430000000  0.4851070000000 1.0
C      1  0.4565160000000  0.5477150000000  0.4709050000000 1.0
C      1  0.5085650000000  0.5578550000000  0.4700160000000 1.0
C      1  0.5637010000000  0.5293650000000  0.4727790000000 1.0
C      1  0.5651490000000  0.4716290000000  0.4696010000000 1.0
C      1  0.5784510000000  0.5270520000000  0.5421400000000 1.0
C      1  0.5760850000000  0.4462450000000  0.5528300000000 1.0
C      1  0.5057140000000  0.4127540000000  0.5517630000000 1.0
C      1  0.4307580000000  0.4403520000000  0.5466660000000 1.0
C      1  0.4055050000000  0.5077830000000  0.5490300000000 1.0
C      1  0.4623020000000  0.5858340000000  0.5539540000000 1.0
C      1  0.5368660000000  0.5913920000000  0.5449930000000 1.0
C      1  0.5638230000000  0.4702880000000  0.5095000000000 1.0
C      1  0.5119960000000  0.4375620000000  0.5044490000000 1.0
C      1  0.4491570000000  0.4527900000000  0.5000660000000 1.0
C      1  0.4242860000000  0.4969570000000  0.5156440000000 1.0
C      1  0.4559770000000  0.5433360000000  0.5208590000000 1.0
C      1  0.5141490000000  0.5669830000000  0.5231580000000 1.0
C      1  0.5637120000000  0.5272420000000  0.5109290000000 1.0
C      1  0.4821300000000  0.5965080000000  0.5096700000000 1.0
C      1  0.5747330000000  0.5881810000000  0.4973040000000 1.0
C      1  0.6051520000000  0.4979610000000  0.5082030000000 1.0
C      1  0.5559100000000  0.4051100000000  0.5195780000000 1.0
C      1  0.4722750000000  0.3929320000000  0.5103860000000 1.0
C      1  0.3858060000000  0.4492460000000  0.5085940000000 1.0
C      1  0.4062590000000  0.5456640000000  0.5090300000000 1.0
C      1  0.5726870000000  0.4974960000000  0.5093870000000 1.0
C      1  0.5415480000000  0.4539770000000  0.5027740000000 1.0
C      1  0.4809300000000  0.4458110000000  0.5030750000000 1.0
C      1  0.4297570000000  0.4736000000000  0.4944660000000 1.0
C      1  0.4339080000000  0.5269060000000  0.5104130000000 1.0
C      1  0.4809320000000  0.5650410000000  0.5152130000000 1.0
C      1  0.5405480000000  0.5457740000000  0.5276720000000 1.0
C      1  0.5146420000000  0.4776960000000  0.4281920000000 1.0
C      1  0.4903180000000  0.4645770000000  0.4300940000000 1.0
C      1  0.4655150000000  0.4840780000000  0.4363690000000 1.0
C      1  0.4710900000000  0.5121230000000  0.4409150000000 1.0
C      1  0.4966600000000  0.5292340000000  0.4332830000000 1.0
C      1  0.5256290000000  0.5258530000000  0.4356830000000 1.0
C      1  0.5364200000000  0.4963350000000  0.4350310000000 1.0
C      1  0.4547820000000  0.4568040000000  0.4465670000000 1.0
C      1  0.4485470000000  0.5172730000000  0.4616620000000 1.0
C      1  0.4864840000000  0.5453690000000  0.4582410000000 1.0
C      1  0.5347050000000  0.5414050000000  0.4605800000000 1.0
C      1  0.5596880000000  0.5000460000000  0.4559370000000 1.0
C      1  0.5363390000000  0.4576830000000  0.4611280000000 1.0
C      1  0.4904760000000  0.4449350000000  0.4534630000000 1.0
C      1  0.4611580000000  0.4085840000000  0.5306980000000 1.0
C      1  0.3897370000000  0.4646260000000  0.5309470000000 1.0
C      1  0.4201830000000  0.5531940000000  0.5370420000000 1.0
C      1  0.4948830000000  0.6116720000000  0.5307090000000 1.0
C      1  0.5795540000000  0.5749980000000  0.5230330000000 1.0
C      1  0.6008410000000  0.4815830000000  0.5328570000000 1.0
C      1  0.5391980000000  0.4091780000000  0.5440390000000 1.0
C      1  0.5219230000000  0.5993820000000  0.5175200000000 1.0
C      1  0.5907440000000  0.5466070000000  0.5168400000000 1.0
C      1  0.5880620000000  0.4528450000000  0.5232670000000 1.0
C      1  0.5162800000000  0.4104850000000  0.5195150000000 1.0
C      1  0.4387180000000  0.4275470000000  0.5178490000000 1.0
C      1  0.3928440000000  0.4945880000000  0.5216910000000 1.0
C      1  0.4447260000000  0.5748290000000  0.5276960000000 1.0
C      1  0.4911800000000  0.4581700000000  0.5648990000000 1.0
C      1  0.4716320000000  0.4775520000000  0.5599190000000 1.0
C      1  0.4756160000000  0.5071210000000  0.5656220000000 1.0
C      1  0.5011550000000  0.5242770000000  0.5646700000000 1.0
C      1  0.5271290000000  0.5124060000000  0.5654250000000 1.0
C      1  0.5287290000000  0.4856130000000  0.5739500000000 1.0
C      1  0.5174090000000  0.4663110000000  0.5573440000000 1.0
C      1  0.5193840000000  0.6014000000000  0.4545640000000 1.0
C      1  0.5931210000000  0.5443600000000  0.4502460000000 1.0
C      1  0.5963910000000  0.4527650000000  0.4551160000000 1.0
C      1  0.5364310000000  0.4044600000000  0.4600890000000 1.0
C      1  0.4335280000000  0.4174040000000  0.4510800000000 1.0
C      1  0.4006610000000  0.4991180000000  0.4541220000000 1.0
C      1  0.4372990000000  0.5827790000000  0.4594520000000 1.0
C      1  0.5021030000000  0.5384430000000  0.5355480000000 1.0
C      1  0.5387180000000  0.5164180000000  0.5399040000000 1.0
C      1  0.5348160000000  0.4949280000000  0.5216470000000 1.0
C      1  0.5195040000000  0.4728060000000  0.5303160000000 1.0
C      1  0.4935840000000  0.4706610000000  0.5171640000000 1.0
C      1  0.4711020000000  0.4913940000000  0.5293220000000 1.0
C      1  0.4729550000000  0.5243620000000  0.5367560000000 1.0
C      1  0.5955470000000  0.4825220000000  0.4805920000000 1.0
C      1  0.5471640000000  0.4214280000000  0.4945930000000 1.0
C      1  0.4679950000000  0.4036880000000  0.4852520000000 1.0
C      1  0.4022500000000  0.4610200000000  0.4848700000000 1.0
C      1  0.4248810000000  0.5527760000000  0.4816390000000 1.0
C      1  0.5021700000000  0.5829270000000  0.4868970000000 1.0
C      1  0.5714570000000  0.5613230000000  0.4788970000000 1.0
C      1  0.5349350000000  0.5008930000000  0.4933230000000 1.0
C      1  0.5213230000000  0.4817210000000  0.4762610000000 1.0
C      1  0.4946280000000  0.4784670000000  0.4846580000000 1.0
C      1  0.4740660000000  0.4981270000000  0.4965080000000 1.0
C      1  0.4790910000000  0.5253650000000  0.4919280000000 1.0
C      1  0.5035450000000  0.5348400000000  0.5025940000000 1.0
C      1  0.5271780000000  0.5279630000000  0.4889210000000 1.0
C      1  0.5577210000000  0.4843030000000  0.5986960000000 1.0
C      1  0.5193210000000  0.4493530000000  0.5982390000000 1.0
C      1  0.4679190000000  0.4519980000000  0.5967170000000 1.0
C      1  0.4391940000000  0.4967400000000  0.5876880000000 1.0
C      1  0.4528110000000  0.5454700000000  0.5931240000000 1.0
C      1  0.5070510000000  0.5644270000000  0.5923500000000 1.0
C      1  0.5470120000000  0.5338420000000  0.5937150000000 1.0
C      1  0.4753290000000  0.4183520000000  0.5538270000000 1.0
C      1  0.4101020000000  0.4590760000000  0.5502920000000 1.0
C      1  0.4183530000000  0.5320880000000  0.5563070000000 1.0
C      1  0.4883160000000  0.5982230000000  0.5547400000000 1.0
C      1  0.5558720000000  0.5712520000000  0.5386160000000 1.0
C      1  0.5856840000000  0.4973980000000  0.5542670000000 1.0
C      1  0.5545040000000  0.4267040000000  0.5652460000000 1.0
C      1  0.5678620000000  0.5110520000000  0.5799130000000 1.0
C      1  0.5495650000000  0.4534620000000  0.5857740000000 1.0
C      1  0.4923070000000  0.4328050000000  0.5848060000000 1.0
C      1  0.4405400000000  0.4639430000000  0.5835820000000 1.0
C      1  0.4334810000000  0.5276480000000  0.5797940000000 1.0
C      1  0.4774150000000  0.5675480000000  0.6007340000000 1.0
C      1  0.5367480000000  0.5610710000000  0.5765740000000 1.0
C      1  0.4755010000000  0.5208660000000  0.3919500000000 1.0
C      1  0.4978400000000  0.5393810000000  0.3894130000000 1.0
C      1  0.5231880000000  0.5290500000000  0.3833200000000 1.0
C      1  0.5395940000000  0.4996070000000  0.3855690000000 1.0
C      1  0.5257190000000  0.4700950000000  0.3905350000000 1.0
C      1  0.4923150000000  0.4682780000000  0.3871430000000 1.0
C      1  0.4715220000000  0.4929630000000  0.3876960000000 1.0
C      1  0.5141740000000  0.5849430000000  0.5671060000000 1.0
C      1  0.5618470000000  0.5414500000000  0.5645790000000 1.0
C      1  0.5736630000000  0.4727820000000  0.5707820000000 1.0
C      1  0.5243110000000  0.4234540000000  0.5779290000000 1.0
C      1  0.4558860000000  0.4380820000000  0.5678230000000 1.0
C      1  0.4163650000000  0.4847940000000  0.5655030000000 1.0
C      1  0.4558230000000  0.5744790000000  0.5782570000000 1.0
C      1  0.5518750000000  0.5867450000000  0.4721300000000 1.0
C      1  0.5935550000000  0.5123110000000  0.4730890000000 1.0
C      1  0.5668080000000  0.4375400000000  0.4764950000000 1.0
C      1  0.4927820000000  0.4085200000000  0.4696220000000 1.0
C      1  0.4145560000000  0.4381400000000  0.4694790000000 1.0
C      1  0.4035790000000  0.5273240000000  0.4808310000000 1.0
C      1  0.4719910000000  0.5771970000000  0.4771310000000 1.0
C      1  0.5651730000000  0.5238900000000  0.4313120000000 1.0
C      1  0.5736270000000  0.4654580000000  0.4244320000000 1.0
C      1  0.5095520000000  0.4279850000000  0.4266670000000 1.0
C      1  0.4470960000000  0.4373810000000  0.4197700000000 1.0
C      1  0.4326000000000  0.5063500000000  0.4328250000000 1.0
C      1  0.4550210000000  0.5560390000000  0.4235870000000 1.0
C      1  0.5083940000000  0.5781910000000  0.4278890000000 1.0
C      1  0.4888750000000  0.5569720000000  0.4169590000000 1.0
C      1  0.5443800000000  0.5244470000000  0.4079440000000 1.0
C      1  0.5506340000000  0.4800400000000  0.4111390000000 1.0
C      1  0.5096800000000  0.4432960000000  0.4023400000000 1.0
C      1  0.4663350000000  0.4582640000000  0.4063460000000 1.0
C      1  0.4471230000000  0.4865010000000  0.4090820000000 1.0
C      1  0.4609990000000  0.5284270000000  0.4154510000000 1.0
END
