TITL C-2782235-7892-612 -0.00107266278040756 125000 -721.125254948937 0 0 127 (C1) n - 1
REM
REM in /home/nfs/bkarasulu/CARBON/AIRSS/Generating-Clusters/REBO/Higher-Symm/SD-CG/HFTN-CG
REM
REM
REM
REM
REM
REM ./C.cell (12c818d87b63d06a65506943cc24bca4)
REM
REM compiler GCC version 9.2.1 20190827 (Red Hat 9.2.1-1)
REM options -cpp -mtune=generic -march=x86-64 -g -O0 -fpre-include=/usr/include/finclude/math-vector-fortran.h
REM seed -797344358 -1845310691 1900445604 -663178647 -1210508005 947315747 -1451403438 -584567571 -863042591 -225387468 -996117062 319158985 -47793918 1662772124 -390484577 50221920 1606689734 1241634148 1317494692 -896560916 230053988 204786000 -196772277 997292496 -399029246 -685714097 1003980106 -884014420 719222430 1696093712 764323426 1689674682 -1463762421
REM
CELL 1.54180   50.00000   50.00000   50.00000   90.00000   90.00000   90.00000
LATT -1
SFAC C  
C      1  0.4643280000000  0.4072200000000  0.5348950000000 1.0
C      1  0.4643810000000  0.5135420000000  0.3976320000000 1.0
C      1  0.4643000000000  0.5775510000000  0.5673550000000 1.0
C      1  0.4397630000000  0.4258850000000  0.5215560000000 1.0
C      1  0.4383650000000  0.5164550000000  0.4180750000000 1.0
C      1  0.4393960000000  0.5570780000000  0.5564670000000 1.0
C      1  0.4211120000000  0.5400320000000  0.4994750000000 1.0
C      1  0.4172660000000  0.4825490000000  0.5292950000000 1.0
C      1  0.4165680000000  0.4848080000000  0.4662110000000 1.0
C      1  0.4494410000000  0.4226220000000  0.5600420000000 1.0
C      1  0.4507240000000  0.4826250000000  0.4009770000000 1.0
C      1  0.4484480000000  0.5934700000000  0.5428830000000 1.0
C      1  0.5439730000000  0.4674870000000  0.4693330000000 1.0
C      1  0.5433010000000  0.5435740000000  0.4912060000000 1.0
C      1  0.5453790000000  0.4893470000000  0.5439950000000 1.0
C      1  0.4827020000000  0.5257370000000  0.5913720000000 1.0
C      1  0.4845000000000  0.4083280000000  0.4786370000000 1.0
C      1  0.4830510000000  0.5615070000000  0.4302900000000 1.0
C      1  0.5134050000000  0.5569540000000  0.4199770000000 1.0
C      1  0.5133220000000  0.5370480000000  0.5949970000000 1.0
C      1  0.5162520000000  0.4055830000000  0.4894920000000 1.0
C      1  0.5563180000000  0.5571610000000  0.4443880000000 1.0
C      1  0.5557820000000  0.5180420000000  0.5805590000000 1.0
C      1  0.5645620000000  0.4329830000000  0.4747250000000 1.0
C      1  0.4869380000000  0.5086350000000  0.4727410000000 1.0
C      1  0.4910550000000  0.5259900000000  0.5214960000000 1.0
C      1  0.4891390000000  0.4759080000000  0.5089570000000 1.0
C      1  0.4589890000000  0.4060400000000  0.5011460000000 1.0
C      1  0.4592980000000  0.5433790000000  0.4138270000000 1.0
C      1  0.4581640000000  0.5481570000000  0.5838040000000 1.0
C      1  0.4873080000000  0.5796380000000  0.4750190000000 1.0
C      1  0.4884430000000  0.4837760000000  0.5943010000000 1.0
C      1  0.4887180000000  0.4233220000000  0.4390350000000 1.0
C      1  0.4309260000000  0.4788090000000  0.5586080000000 1.0
C      1  0.4331970000000  0.4591240000000  0.4512930000000 1.0
C      1  0.4378150000000  0.5688480000000  0.4919640000000 1.0
C      1  0.5146880000000  0.4829390000000  0.5572910000000 1.0
C      1  0.5152840000000  0.4598500000000  0.4557240000000 1.0
C      1  0.5121260000000  0.5572740000000  0.4886750000000 1.0
C      1  0.5189680000000  0.4727570000000  0.5189840000000 1.0
C      1  0.5159390000000  0.5054080000000  0.4722720000000 1.0
C      1  0.5210280000000  0.5251970000000  0.5199910000000 1.0
C      1  0.4793930000000  0.5264470000000  0.4488620000000 1.0
C      1  0.4830640000000  0.5295420000000  0.5511190000000 1.0
C      1  0.4821300000000  0.4476210000000  0.4986420000000 1.0
C      1  0.5178260000000  0.5853090000000  0.4611060000000 1.0
C      1  0.5181820000000  0.4874110000000  0.5967060000000 1.0
C      1  0.5166580000000  0.4230250000000  0.4405940000000 1.0
C      1  0.4675210000000  0.4702490000000  0.5420510000000 1.0
C      1  0.4673260000000  0.4757550000000  0.4497330000000 1.0
C      1  0.4705800000000  0.5588320000000  0.5118010000000 1.0
C      1  0.5591420000000  0.5190370000000  0.5026040000000 1.0
C      1  0.5585270000000  0.4877080000000  0.5170460000000 1.0
C      1  0.5505700000000  0.4908870000000  0.4853740000000 1.0
C      1  0.5023460000000  0.4231380000000  0.5108290000000 1.0
C      1  0.5020200000000  0.5275440000000  0.4233760000000 1.0
C      1  0.5034880000000  0.5501550000000  0.5681780000000 1.0
C      1  0.4413150000000  0.4593400000000  0.5255700000000 1.0
C      1  0.4394510000000  0.4959300000000  0.4444330000000 1.0
C      1  0.4428600000000  0.5451640000000  0.5248020000000 1.0
C      1  0.5363220000000  0.4719850000000  0.4239600000000 1.0
C      1  0.5397880000000  0.5791230000000  0.5090670000000 1.0
C      1  0.5451060000000  0.4481510000000  0.5621080000000 1.0
C      1  0.5347240000000  0.4183270000000  0.4664730000000 1.0
C      1  0.5303640000000  0.5707220000000  0.4384000000000 1.0
C      1  0.5315490000000  0.5142860000000  0.5961630000000 1.0
C      1  0.4476740000000  0.5270890000000  0.4481790000000 1.0
C      1  0.4516900000000  0.5268450000000  0.5509450000000 1.0
C      1  0.4512030000000  0.4447760000000  0.4968320000000 1.0
C      1  0.4582250000000  0.4374410000000  0.4432200000000 1.0
C      1  0.4589050000000  0.5716300000000  0.4717530000000 1.0
C      1  0.4578010000000  0.4827190000000  0.5794950000000 1.0
C      1  0.5454880000000  0.4998750000000  0.4132110000000 1.0
C      1  0.5431770000000  0.5844550000000  0.5397510000000 1.0
C      1  0.5497250000000  0.4224750000000  0.5448200000000 1.0
C      1  0.4743230000000  0.4982850000000  0.5279060000000 1.0
C      1  0.4728090000000  0.4815960000000  0.4797650000000 1.0
C      1  0.4766190000000  0.5322450000000  0.4936350000000 1.0
C      1  0.5290310000000  0.4449220000000  0.4251610000000 1.0
C      1  0.5355980000000  0.5892650000000  0.4838800000000 1.0
C      1  0.5329270000000  0.4668760000000  0.5784720000000 1.0
C      1  0.4477060000000  0.5837920000000  0.5174660000000 1.0
C      1  0.4503910000000  0.4525690000000  0.5651190000000 1.0
C      1  0.4509120000000  0.4640120000000  0.4225700000000 1.0
C      1  0.4996140000000  0.4820010000000  0.4117550000000 1.0
C      1  0.5034190000000  0.5847410000000  0.5356580000000 1.0
C      1  0.4998030000000  0.4344290000000  0.5549700000000 1.0
C      1  0.4206320000000  0.5178550000000  0.4735280000000 1.0
C      1  0.4163170000000  0.5160180000000  0.5233520000000 1.0
C      1  0.4149670000000  0.4719380000000  0.4970320000000 1.0
C      1  0.5770460000000  0.5455080000000  0.5409860000000 1.0
C      1  0.5824660000000  0.4413550000000  0.5213230000000 1.0
C      1  0.5828900000000  0.5126170000000  0.4557850000000 1.0
C      1  0.5542740000000  0.5231500000000  0.4421910000000 1.0
C      1  0.5513800000000  0.5427390000000  0.5597480000000 1.0
C      1  0.5571170000000  0.4355860000000  0.5078160000000 1.0
C      1  0.5297240000000  0.4440520000000  0.4892920000000 1.0
C      1  0.5302030000000  0.5331780000000  0.4628660000000 1.0
C      1  0.5300640000000  0.5187470000000  0.5501020000000 1.0
C      1  0.5847950000000  0.4863190000000  0.4638650000000 1.0
C      1  0.5816100000000  0.5231880000000  0.5254850000000 1.0
C      1  0.5874180000000  0.4727700000000  0.5184120000000 1.0
C      1  0.5003590000000  0.4384180000000  0.4740900000000 1.0
C      1  0.5018430000000  0.5489070000000  0.4570300000000 1.0
C      1  0.5024810000000  0.5102080000000  0.5678780000000 1.0
C      1  0.5375610000000  0.5521160000000  0.5298330000000 1.0
C      1  0.5363410000000  0.4500630000000  0.5289620000000 1.0
C      1  0.5322450000000  0.4975440000000  0.4454570000000 1.0
C      1  0.4469340000000  0.5062050000000  0.5172750000000 1.0
C      1  0.4448700000000  0.4839040000000  0.4942040000000 1.0
C      1  0.4504220000000  0.5165150000000  0.4865760000000 1.0
C      1  0.4955310000000  0.4722890000000  0.4367930000000 1.0
C      1  0.4982950000000  0.5706410000000  0.5130210000000 1.0
C      1  0.4962250000000  0.4622330000000  0.5458720000000 1.0
C      1  0.5651770000000  0.5607300000000  0.4764510000000 1.0
C      1  0.5691940000000  0.4967790000000  0.5649220000000 1.0
C      1  0.5709620000000  0.4575440000000  0.4531910000000 1.0
C      1  0.4937290000000  0.4152340000000  0.5364310000000 1.0
C      1  0.4939720000000  0.5085180000000  0.4040360000000 1.0
C      1  0.4946230000000  0.5764620000000  0.5614530000000 1.0
C      1  0.4548630000000  0.5580780000000  0.4452390000000 1.0
C      1  0.4550300000000  0.5137750000000  0.5801450000000 1.0
C      1  0.4566540000000  0.4244260000000  0.4719730000000 1.0
C      1  0.5848760000000  0.5430810000000  0.4578660000000 1.0
C      1  0.5886030000000  0.4987900000000  0.5403690000000 1.0
C      1  0.5810190000000  0.4613440000000  0.4868280000000 1.0
C      1  0.5238090000000  0.5004820000000  0.5025400000000 1.0
END
