TITL C-2782234-8014-624 0.00177297966617411 125000 -785.581739014234 0 0 136 (C1) n - 1
REM
REM in /home/nfs/bkarasulu/CARBON/AIRSS/Generating-Clusters/REBO/Higher-Symm/SD-CG/HFTN-CG
REM
REM
REM
REM
REM
REM ./C.cell (12c818d87b63d06a65506943cc24bca4)
REM
REM compiler GCC version 9.2.1 20190827 (Red Hat 9.2.1-1)
REM options -cpp -mtune=generic -march=x86-64 -g -O0 -fpre-include=/usr/include/finclude/math-vector-fortran.h
REM seed 1158476413 -2079976264 -951605583 -870623630 -1382462267 -725187895 -2144164557 678291333 -186513188 1025810717 1884947844 1346169324 868764956 -760291567 1746479434 3051764 -1678227118 -1697277444 -193389036 1753797550 -1160836040 1620465984 880954949 195372082 1494810462 1698199463 -1370471023 1690812722 -529728038 1788750347 -1471312394 -432109074 34045336
REM
CELL 1.54180   50.00000   50.00000   50.00000   90.00000   90.00000   90.00000
LATT -1
SFAC C  
C      1  0.4274730000000  0.5477910000000  0.4501240000000 1.0
C      1  0.4300580000000  0.4664810000000  0.4363550000000 1.0
C      1  0.4374020000000  0.4273260000000  0.5085920000000 1.0
C      1  0.4323610000000  0.4886780000000  0.5685540000000 1.0
C      1  0.4347100000000  0.5619940000000  0.5307990000000 1.0
C      1  0.4191770000000  0.4558680000000  0.4631980000000 1.0
C      1  0.4191990000000  0.4507650000000  0.5189380000000 1.0
C      1  0.4190990000000  0.5049010000000  0.5443370000000 1.0
C      1  0.4183180000000  0.5517260000000  0.5064040000000 1.0
C      1  0.4146760000000  0.5189510000000  0.4509370000000 1.0
C      1  0.4835070000000  0.5072710000000  0.5173380000000 1.0
C      1  0.4770510000000  0.5323430000000  0.4962830000000 1.0
C      1  0.4761270000000  0.5129260000000  0.4700920000000 1.0
C      1  0.4786660000000  0.4852230000000  0.4843590000000 1.0
C      1  0.4767860000000  0.4734730000000  0.5167540000000 1.0
C      1  0.4056690000000  0.4826860000000  0.5223350000000 1.0
C      1  0.4095780000000  0.5200020000000  0.5153240000000 1.0
C      1  0.4139160000000  0.5273600000000  0.4823020000000 1.0
C      1  0.4151840000000  0.4889700000000  0.4671000000000 1.0
C      1  0.4070020000000  0.4681360000000  0.4923050000000 1.0
C      1  0.5354960000000  0.4693740000000  0.4208230000000 1.0
C      1  0.5448590000000  0.4133950000000  0.5102180000000 1.0
C      1  0.5402220000000  0.4832820000000  0.5887570000000 1.0
C      1  0.5688940000000  0.5767940000000  0.5466870000000 1.0
C      1  0.5604300000000  0.5757640000000  0.4445190000000 1.0
C      1  0.4691650000000  0.5312800000000  0.4200240000000 1.0
C      1  0.4701510000000  0.4339090000000  0.4501450000000 1.0
C      1  0.4730990000000  0.4278010000000  0.5475230000000 1.0
C      1  0.4747970000000  0.5222420000000  0.5755580000000 1.0
C      1  0.4706160000000  0.5869230000000  0.5019110000000 1.0
C      1  0.5541290000000  0.5520340000000  0.4322640000000 1.0
C      1  0.5431900000000  0.4560200000000  0.4437570000000 1.0
C      1  0.5509630000000  0.4269400000000  0.5335580000000 1.0
C      1  0.5487760000000  0.5075530000000  0.5772140000000 1.0
C      1  0.5622170000000  0.5706830000000  0.5208840000000 1.0
C      1  0.5848140000000  0.5533940000000  0.4828610000000 1.0
C      1  0.5726340000000  0.5037550000000  0.4286520000000 1.0
C      1  0.5774490000000  0.4504280000000  0.4816990000000 1.0
C      1  0.5789270000000  0.4584220000000  0.5590720000000 1.0
C      1  0.5869200000000  0.5308000000000  0.5547150000000 1.0
C      1  0.4606100000000  0.4692820000000  0.5653500000000 1.0
C      1  0.4666400000000  0.5495940000000  0.5348160000000 1.0
C      1  0.4581520000000  0.5578730000000  0.4613180000000 1.0
C      1  0.4600550000000  0.4834550000000  0.4353040000000 1.0
C      1  0.4691810000000  0.4295890000000  0.4942650000000 1.0
C      1  0.4511220000000  0.5121300000000  0.5187680000000 1.0
C      1  0.4453620000000  0.5268460000000  0.4910150000000 1.0
C      1  0.4452380000000  0.5014050000000  0.4696230000000 1.0
C      1  0.4481090000000  0.4749410000000  0.4890300000000 1.0
C      1  0.4387420000000  0.4852780000000  0.5155950000000 1.0
C      1  0.5114330000000  0.3972790000000  0.4752230000000 1.0
C      1  0.5081080000000  0.4411500000000  0.5938050000000 1.0
C      1  0.5093710000000  0.5689470000000  0.5739420000000 1.0
C      1  0.5164410000000  0.5831640000000  0.4644570000000 1.0
C      1  0.5113450000000  0.5012840000000  0.4001450000000 1.0
C      1  0.5852380000000  0.4838270000000  0.4428500000000 1.0
C      1  0.5887920000000  0.4575140000000  0.5058090000000 1.0
C      1  0.5917790000000  0.4823020000000  0.5595800000000 1.0
C      1  0.5978080000000  0.5351830000000  0.5298360000000 1.0
C      1  0.5924430000000  0.5359510000000  0.4633420000000 1.0
C      1  0.4936480000000  0.5930910000000  0.5335580000000 1.0
C      1  0.4828190000000  0.5682300000000  0.4173380000000 1.0
C      1  0.4884370000000  0.4458390000000  0.4168530000000 1.0
C      1  0.4941340000000  0.4002060000000  0.5279890000000 1.0
C      1  0.4896990000000  0.4965620000000  0.6018590000000 1.0
C      1  0.4299130000000  0.4992850000000  0.4314410000000 1.0
C      1  0.4430780000000  0.4460250000000  0.4821030000000 1.0
C      1  0.4362430000000  0.4671380000000  0.5426550000000 1.0
C      1  0.4390940000000  0.5306160000000  0.5411170000000 1.0
C      1  0.4298370000000  0.5638920000000  0.4795500000000 1.0
C      1  0.5171180000000  0.4932910000000  0.5497940000000 1.0
C      1  0.5155210000000  0.5370710000000  0.5053910000000 1.0
C      1  0.5105950000000  0.5329060000000  0.4715800000000 1.0
C      1  0.5078550000000  0.4736630000000  0.4570000000000 1.0
C      1  0.5124890000000  0.4561190000000  0.5178440000000 1.0
C      1  0.5304790000000  0.4637290000000  0.5556030000000 1.0
C      1  0.5416540000000  0.5475550000000  0.5473160000000 1.0
C      1  0.5451440000000  0.5525200000000  0.4870880000000 1.0
C      1  0.5263440000000  0.5117720000000  0.4356440000000 1.0
C      1  0.5391110000000  0.4483090000000  0.4916940000000 1.0
C      1  0.4574390000000  0.5442220000000  0.5733070000000 1.0
C      1  0.4463560000000  0.5887730000000  0.4836670000000 1.0
C      1  0.4473250000000  0.5118720000000  0.4104380000000 1.0
C      1  0.4537980000000  0.4140790000000  0.4607800000000 1.0
C      1  0.4505080000000  0.4325830000000  0.5681780000000 1.0
C      1  0.4889610000000  0.4911500000000  0.4367790000000 1.0
C      1  0.5010120000000  0.4353860000000  0.4945380000000 1.0
C      1  0.4932240000000  0.4734630000000  0.5642480000000 1.0
C      1  0.4954720000000  0.5421090000000  0.5324920000000 1.0
C      1  0.4868170000000  0.5563770000000  0.4658690000000 1.0
C      1  0.5460580000000  0.5303470000000  0.5187830000000 1.0
C      1  0.5433240000000  0.5240510000000  0.4685420000000 1.0
C      1  0.5366990000000  0.4912430000000  0.4614220000000 1.0
C      1  0.5444480000000  0.4685660000000  0.5186770000000 1.0
C      1  0.5463970000000  0.4994200000000  0.5332940000000 1.0
C      1  0.5326910000000  0.4383770000000  0.4629520000000 1.0
C      1  0.5333420000000  0.4338830000000  0.5544330000000 1.0
C      1  0.5377610000000  0.5326710000000  0.5752440000000 1.0
C      1  0.5328400000000  0.5725550000000  0.5111350000000 1.0
C      1  0.5253580000000  0.5434950000000  0.4282850000000 1.0
C      1  0.4910800000000  0.5227350000000  0.4447000000000 1.0
C      1  0.4947840000000  0.4503790000000  0.4668270000000 1.0
C      1  0.4871630000000  0.4539320000000  0.5397890000000 1.0
C      1  0.4961800000000  0.5175430000000  0.5517870000000 1.0
C      1  0.4917330000000  0.5606760000000  0.4972790000000 1.0
C      1  0.4618940000000  0.5819020000000  0.5325560000000 1.0
C      1  0.4528850000000  0.5575820000000  0.4295800000000 1.0
C      1  0.4580050000000  0.4519860000000  0.4269950000000 1.0
C      1  0.4637150000000  0.4121860000000  0.5213460000000 1.0
C      1  0.4608110000000  0.4951800000000  0.5857880000000 1.0
C      1  0.4886780000000  0.5436230000000  0.3972370000000 1.0
C      1  0.4979100000000  0.4234830000000  0.4358880000000 1.0
C      1  0.4955070000000  0.4077010000000  0.5586150000000 1.0
C      1  0.4975560000000  0.5267120000000  0.5982120000000 1.0
C      1  0.4980990000000  0.6037970000000  0.5041960000000 1.0
C      1  0.5050930000000  0.4716790000000  0.4147510000000 1.0
C      1  0.5150370000000  0.4076010000000  0.5051230000000 1.0
C      1  0.5104090000000  0.4741690000000  0.5929020000000 1.0
C      1  0.5153430000000  0.5680970000000  0.5402870000000 1.0
C      1  0.5052760000000  0.5644280000000  0.4395950000000 1.0
C      1  0.5150090000000  0.4222440000000  0.5728320000000 1.0
C      1  0.5166550000000  0.5450930000000  0.5888970000000 1.0
C      1  0.5190180000000  0.5909740000000  0.4904640000000 1.0
C      1  0.5130110000000  0.5285650000000  0.4019780000000 1.0
C      1  0.5169430000000  0.4164020000000  0.4549040000000 1.0
C      1  0.5684700000000  0.5279350000000  0.4457430000000 1.0
C      1  0.5644480000000  0.4709460000000  0.4617890000000 1.0
C      1  0.5708960000000  0.4507310000000  0.5308990000000 1.0
C      1  0.5717050000000  0.5048990000000  0.5557980000000 1.0
C      1  0.5761420000000  0.5442960000000  0.5101980000000 1.0
C      1  0.5647690000000  0.5734860000000  0.4724930000000 1.0
C      1  0.5467390000000  0.4958700000000  0.4192100000000 1.0
C      1  0.5614390000000  0.4236860000000  0.4861050000000 1.0
C      1  0.5552670000000  0.4598660000000  0.5754320000000 1.0
C      1  0.5705430000000  0.5525130000000  0.5639370000000 1.0
C      1  0.5065130000000  0.4858450000000  0.5038400000000 1.0
END
