TITL C-2782228-2999-98 0.000719314355301936 125000 -496.578288681906 0 0 85 (C1) n - 1
REM
REM in /home/nfs/bkarasulu/CARBON/AIRSS/Generating-Clusters/REBO/Higher-Symm/SD-CG/HFTN-CG
REM
REM
REM
REM
REM
REM ./C.cell (12c818d87b63d06a65506943cc24bca4)
REM
REM compiler GCC version 9.2.1 20190827 (Red Hat 9.2.1-1)
REM options -cpp -mtune=generic -march=x86-64 -g -O0 -fpre-include=/usr/include/finclude/math-vector-fortran.h
REM seed -2029839807 300100349 -835179861 -1561781154 -672335865 -1924840268 425044916 148115798 932211541 -1544654101 -1344119136 -2043551592 684797840 637074762 -1949489919 -1905829895 1667236834 -2094553431 649823447 1713297998 -1829647626 -1737284545 1234082872 1656226793 -1219599282 532875517 1891681752 -264695014 721793205 80145754 -1413119873 1763323322 -137283316
REM
CELL 1.54180   50.00000   50.00000   50.00000   90.00000   90.00000   90.00000
LATT -1
SFAC C  
C      1  0.5101820000000  0.5722740000000  0.5494470000000 1.0
C      1  0.4382970000000  0.4592810000000  0.4650050000000 1.0
C      1  0.5303620000000  0.4907670000000  0.4870470000000 1.0
C      1  0.5688220000000  0.5505300000000  0.5176840000000 1.0
C      1  0.5522740000000  0.5152910000000  0.5837560000000 1.0
C      1  0.4338680000000  0.5273420000000  0.5190100000000 1.0
C      1  0.4163110000000  0.4795310000000  0.5054860000000 1.0
C      1  0.4660700000000  0.4927140000000  0.5077440000000 1.0
C      1  0.4879350000000  0.5834130000000  0.4947570000000 1.0
C      1  0.4734100000000  0.4243810000000  0.4683350000000 1.0
C      1  0.4674750000000  0.5515660000000  0.4470550000000 1.0
C      1  0.4944020000000  0.5025250000000  0.4082800000000 1.0
C      1  0.4975200000000  0.5769280000000  0.5244620000000 1.0
C      1  0.5009980000000  0.3962060000000  0.5447020000000 1.0
C      1  0.4835360000000  0.4717850000000  0.4049220000000 1.0
C      1  0.5485160000000  0.4567510000000  0.5365470000000 1.0
C      1  0.5202700000000  0.5444030000000  0.5201240000000 1.0
C      1  0.4454270000000  0.4738310000000  0.4404310000000 1.0
C      1  0.4811480000000  0.5506190000000  0.5157530000000 1.0
C      1  0.4735650000000  0.5210950000000  0.4520640000000 1.0
C      1  0.5381060000000  0.5664350000000  0.4784570000000 1.0
C      1  0.5377110000000  0.5807200000000  0.5518120000000 1.0
C      1  0.5271320000000  0.5303530000000  0.5731990000000 1.0
C      1  0.5166270000000  0.5462630000000  0.4314330000000 1.0
C      1  0.5078680000000  0.5817890000000  0.4749370000000 1.0
C      1  0.4786240000000  0.5151070000000  0.4851920000000 1.0
C      1  0.5169110000000  0.4612320000000  0.5460940000000 1.0
C      1  0.4514710000000  0.4986580000000  0.5585240000000 1.0
C      1  0.4987670000000  0.5443470000000  0.5626450000000 1.0
C      1  0.4512310000000  0.4428150000000  0.5098970000000 1.0
C      1  0.5268980000000  0.4155480000000  0.4745400000000 1.0
C      1  0.4523580000000  0.4401530000000  0.4809800000000 1.0
C      1  0.5149090000000  0.4780890000000  0.4063240000000 1.0
C      1  0.4311650000000  0.4868480000000  0.4790260000000 1.0
C      1  0.4740890000000  0.4937490000000  0.5759530000000 1.0
C      1  0.4646840000000  0.5702780000000  0.4633630000000 1.0
C      1  0.4996420000000  0.4443520000000  0.5666310000000 1.0
C      1  0.5622320000000  0.5283020000000  0.5357930000000 1.0
C      1  0.4377970000000  0.4982070000000  0.5169310000000 1.0
C      1  0.5188010000000  0.4395730000000  0.4576030000000 1.0
C      1  0.4510120000000  0.5241340000000  0.5442860000000 1.0
C      1  0.4849020000000  0.4799140000000  0.5268780000000 1.0
C      1  0.5072930000000  0.4985300000000  0.5359210000000 1.0
C      1  0.5264000000000  0.5126460000000  0.4496180000000 1.0
C      1  0.5511580000000  0.4914800000000  0.5688030000000 1.0
C      1  0.5004500000000  0.5312490000000  0.4978200000000 1.0
C      1  0.5245980000000  0.5049410000000  0.5158330000000 1.0
C      1  0.4390350000000  0.5192090000000  0.4721630000000 1.0
C      1  0.5517670000000  0.4920020000000  0.4376190000000 1.0
C      1  0.4801720000000  0.3998900000000  0.4782480000000 1.0
C      1  0.4744260000000  0.5393550000000  0.5433130000000 1.0
C      1  0.4820790000000  0.4754350000000  0.4557090000000 1.0
C      1  0.5332830000000  0.4308380000000  0.5265940000000 1.0
C      1  0.5391390000000  0.4626500000000  0.4730850000000 1.0
C      1  0.5627600000000  0.4806000000000  0.5440620000000 1.0
C      1  0.4652140000000  0.4866630000000  0.4760180000000 1.0
C      1  0.5340840000000  0.5333020000000  0.5425010000000 1.0
C      1  0.5673120000000  0.5016450000000  0.5247540000000 1.0
C      1  0.4991810000000  0.5190090000000  0.4335300000000 1.0
C      1  0.5273930000000  0.4409670000000  0.4963600000000 1.0
C      1  0.4602080000000  0.5628190000000  0.4937450000000 1.0
C      1  0.5050240000000  0.4235710000000  0.5402640000000 1.0
C      1  0.4470570000000  0.5025620000000  0.4443040000000 1.0
C      1  0.5599080000000  0.5184580000000  0.4564120000000 1.0
C      1  0.4719380000000  0.4591450000000  0.4296410000000 1.0
C      1  0.5050740000000  0.4559450000000  0.5145800000000 1.0
C      1  0.4303750000000  0.4594120000000  0.5228050000000 1.0
C      1  0.5334420000000  0.5668630000000  0.5093830000000 1.0
C      1  0.5552750000000  0.5768340000000  0.5281730000000 1.0
C      1  0.4691810000000  0.4638820000000  0.5498310000000 1.0
C      1  0.4805150000000  0.4638930000000  0.5799090000000 1.0
C      1  0.5555440000000  0.5397850000000  0.4899900000000 1.0
C      1  0.5269420000000  0.4759700000000  0.4320390000000 1.0
C      1  0.5083260000000  0.4777280000000  0.4533670000000 1.0
C      1  0.5269670000000  0.5240170000000  0.4809910000000 1.0
C      1  0.5600500000000  0.5063030000000  0.4944760000000 1.0
C      1  0.4987380000000  0.5119290000000  0.5741240000000 1.0
C      1  0.5261090000000  0.5728770000000  0.4481700000000 1.0
C      1  0.5470850000000  0.5461140000000  0.4453160000000 1.0
C      1  0.5209350000000  0.4887720000000  0.5632120000000 1.0
C      1  0.4398320000000  0.5387660000000  0.4930780000000 1.0
C      1  0.4781150000000  0.4406080000000  0.5278650000000 1.0
C      1  0.5642280000000  0.4856670000000  0.4676720000000 1.0
C      1  0.4395270000000  0.4721060000000  0.5471600000000 1.0
C      1  0.4905330000000  0.4374620000000  0.4484290000000 1.0
END
