TITL C-2782231-7322-1101 0.00103829395292548 125000 -851.090980145401 0 0 146 (C1) n - 1
REM
REM in /home/nfs/bkarasulu/CARBON/AIRSS/Generating-Clusters/REBO/Higher-Symm/SD-CG/HFTN-CG
REM
REM
REM
REM
REM
REM ./C.cell (12c818d87b63d06a65506943cc24bca4)
REM
REM compiler GCC version 9.2.1 20190827 (Red Hat 9.2.1-1)
REM options -cpp -mtune=generic -march=x86-64 -g -O0 -fpre-include=/usr/include/finclude/math-vector-fortran.h
REM seed -1253325167 484684925 2113183769 -289314630 -2070357865 1764435837 617385155 959415889 1339276755 -792918924 1474979510 -662666624 937430344 -2103863366 90151757 -1615043934 620216966 1434197749 881502151 1492187128 2044991947 -306700237 806613129 -1241988253 -1501859109 101258452 -481371023 1192201734 -366847354 -1368345551 -1054373504 1685130238 1831617700
REM
CELL 1.54180   50.00000   50.00000   50.00000   90.00000   90.00000   90.00000
LATT -1
SFAC C  
C      1  0.4333020000000  0.5705900000000  0.5372950000000 1.0
C      1  0.5718200000000  0.4331140000000  0.4720130000000 1.0
C      1  0.4586440000000  0.5496490000000  0.4413050000000 1.0
C      1  0.5372340000000  0.4482340000000  0.5556270000000 1.0
C      1  0.5226410000000  0.5915460000000  0.5412660000000 1.0
C      1  0.4700110000000  0.4128210000000  0.4545620000000 1.0
C      1  0.4700730000000  0.4628200000000  0.5837750000000 1.0
C      1  0.5250560000000  0.5393880000000  0.4255110000000 1.0
C      1  0.5859640000000  0.5719480000000  0.5024420000000 1.0
C      1  0.4090890000000  0.4360900000000  0.4932320000000 1.0
C      1  0.5550170000000  0.5255950000000  0.4610370000000 1.0
C      1  0.4445860000000  0.4727300000000  0.5398890000000 1.0
C      1  0.5568020000000  0.4085960000000  0.5150250000000 1.0
C      1  0.4695320000000  0.5955440000000  0.5070810000000 1.0
C      1  0.5104670000000  0.4278080000000  0.5503360000000 1.0
C      1  0.4808460000000  0.5705930000000  0.4513270000000 1.0
C      1  0.4565020000000  0.5301000000000  0.5162170000000 1.0
C      1  0.5516440000000  0.4635300000000  0.4900630000000 1.0
C      1  0.5231700000000  0.5597060000000  0.4596080000000 1.0
C      1  0.4761350000000  0.4451310000000  0.5389030000000 1.0
C      1  0.4537210000000  0.5314240000000  0.4655070000000 1.0
C      1  0.5487840000000  0.4671760000000  0.5345880000000 1.0
C      1  0.5397490000000  0.4284360000000  0.4488160000000 1.0
C      1  0.4678280000000  0.5650330000000  0.5563670000000 1.0
C      1  0.5629420000000  0.4937930000000  0.5185070000000 1.0
C      1  0.4426500000000  0.5044670000000  0.4798570000000 1.0
C      1  0.5761810000000  0.5239830000000  0.4346630000000 1.0
C      1  0.4201550000000  0.4702690000000  0.5648210000000 1.0
C      1  0.4861810000000  0.5356320000000  0.5759310000000 1.0
C      1  0.5147630000000  0.4660590000000  0.4273920000000 1.0
C      1  0.5008300000000  0.6139420000000  0.4734300000000 1.0
C      1  0.4763690000000  0.3708500000000  0.5127800000000 1.0
C      1  0.4356870000000  0.4637650000000  0.5127290000000 1.0
C      1  0.5650060000000  0.5418960000000  0.4847720000000 1.0
C      1  0.5183090000000  0.6050060000000  0.4931850000000 1.0
C      1  0.4707190000000  0.3943920000000  0.4997240000000 1.0
C      1  0.5492940000000  0.4742920000000  0.5739240000000 1.0
C      1  0.4443140000000  0.5332150000000  0.4178560000000 1.0
C      1  0.5255500000000  0.4790890000000  0.5980740000000 1.0
C      1  0.4687670000000  0.5145760000000  0.4032120000000 1.0
C      1  0.5937650000000  0.5268440000000  0.4948600000000 1.0
C      1  0.4081880000000  0.4788090000000  0.5024640000000 1.0
C      1  0.4565850000000  0.5467490000000  0.5815250000000 1.0
C      1  0.5443100000000  0.4520070000000  0.4271660000000 1.0
C      1  0.4995950000000  0.4660550000000  0.5531240000000 1.0
C      1  0.5017570000000  0.5340880000000  0.4495660000000 1.0
C      1  0.4139260000000  0.5058670000000  0.4935310000000 1.0
C      1  0.5917230000000  0.4997940000000  0.5048430000000 1.0
C      1  0.4876330000000  0.4527380000000  0.4240260000000 1.0
C      1  0.5138410000000  0.5520660000000  0.5706340000000 1.0
C      1  0.5676710000000  0.4567190000000  0.4517580000000 1.0
C      1  0.4331510000000  0.5452320000000  0.5564150000000 1.0
C      1  0.4852020000000  0.4055480000000  0.4777470000000 1.0
C      1  0.5022420000000  0.5932650000000  0.5176320000000 1.0
C      1  0.5862750000000  0.5640360000000  0.4707560000000 1.0
C      1  0.4133590000000  0.4421730000000  0.5249390000000 1.0
C      1  0.5906770000000  0.5013810000000  0.4642670000000 1.0
C      1  0.4102590000000  0.5040680000000  0.5333010000000 1.0
C      1  0.5066940000000  0.4265670000000  0.4874920000000 1.0
C      1  0.4921410000000  0.5632900000000  0.5121770000000 1.0
C      1  0.5316610000000  0.5096560000000  0.4998420000000 1.0
C      1  0.4652810000000  0.4832100000000  0.4921190000000 1.0
C      1  0.4491080000000  0.4131090000000  0.5078940000000 1.0
C      1  0.5427440000000  0.5894970000000  0.4866880000000 1.0
C      1  0.4472200000000  0.4872670000000  0.5767160000000 1.0
C      1  0.5457200000000  0.5118330000000  0.4246850000000 1.0
C      1  0.5313020000000  0.4411910000000  0.4745380000000 1.0
C      1  0.4765380000000  0.5476540000000  0.5351010000000 1.0
C      1  0.5548290000000  0.5718000000000  0.4602590000000 1.0
C      1  0.4444650000000  0.4322970000000  0.5356950000000 1.0
C      1  0.4428610000000  0.4226720000000  0.4589760000000 1.0
C      1  0.5502540000000  0.5828910000000  0.5350480000000 1.0
C      1  0.4551110000000  0.4452230000000  0.4996200000000 1.0
C      1  0.5415510000000  0.5572680000000  0.4949550000000 1.0
C      1  0.4828590000000  0.4341710000000  0.5696440000000 1.0
C      1  0.5071970000000  0.5689380000000  0.4316940000000 1.0
C      1  0.4556080000000  0.4796280000000  0.4602820000000 1.0
C      1  0.5485900000000  0.5234590000000  0.5248760000000 1.0
C      1  0.5800850000000  0.5410290000000  0.5420300000000 1.0
C      1  0.4165020000000  0.4681570000000  0.4529970000000 1.0
C      1  0.5088230000000  0.4965390000000  0.5530150000000 1.0
C      1  0.5037870000000  0.4944260000000  0.4531540000000 1.0
C      1  0.5086740000000  0.4225310000000  0.5171150000000 1.0
C      1  0.4777460000000  0.5637560000000  0.4846090000000 1.0
C      1  0.5565590000000  0.5568360000000  0.5459540000000 1.0
C      1  0.4360510000000  0.4485170000000  0.4449150000000 1.0
C      1  0.4976680000000  0.4791650000000  0.4823730000000 1.0
C      1  0.5023630000000  0.5062530000000  0.5149280000000 1.0
C      1  0.4003090000000  0.5336700000000  0.5076380000000 1.0
C      1  0.6138270000000  0.4744100000000  0.4991380000000 1.0
C      1  0.4047920000000  0.4733310000000  0.5360400000000 1.0
C      1  0.5957160000000  0.5326510000000  0.4611920000000 1.0
C      1  0.5970800000000  0.4942990000000  0.5386760000000 1.0
C      1  0.4099770000000  0.5179340000000  0.4618510000000 1.0
C      1  0.4387270000000  0.5188460000000  0.5777740000000 1.0
C      1  0.5592490000000  0.4823340000000  0.4304380000000 1.0
C      1  0.5164750000000  0.4985920000000  0.4227550000000 1.0
C      1  0.5006360000000  0.5063320000000  0.5827330000000 1.0
C      1  0.5714880000000  0.4548950000000  0.5158460000000 1.0
C      1  0.4470200000000  0.5510810000000  0.4919560000000 1.0
C      1  0.5294200000000  0.5416400000000  0.5463210000000 1.0
C      1  0.4689870000000  0.4530210000000  0.4501220000000 1.0
C      1  0.4345180000000  0.5040510000000  0.4208300000000 1.0
C      1  0.5630920000000  0.5026670000000  0.5722220000000 1.0
C      1  0.4462650000000  0.4493350000000  0.5647050000000 1.0
C      1  0.5535560000000  0.5490450000000  0.4361710000000 1.0
C      1  0.4467610000000  0.5771020000000  0.5140030000000 1.0
C      1  0.5690090000000  0.4286620000000  0.4989680000000 1.0
C      1  0.5410640000000  0.5001460000000  0.4704070000000 1.0
C      1  0.4575300000000  0.5012480000000  0.5472830000000 1.0
C      1  0.4150070000000  0.5440560000000  0.4829020000000 1.0
C      1  0.5984800000000  0.4658660000000  0.5240850000000 1.0
C      1  0.5120360000000  0.5379750000000  0.5199540000000 1.0
C      1  0.4862500000000  0.4494860000000  0.4750930000000 1.0
C      1  0.4840760000000  0.4520750000000  0.5083070000000 1.0
C      1  0.5141320000000  0.5427240000000  0.4864170000000 1.0
C      1  0.4977400000000  0.5591160000000  0.4033450000000 1.0
C      1  0.5040220000000  0.4293660000000  0.5930910000000 1.0
C      1  0.5256630000000  0.4778450000000  0.4996410000000 1.0
C      1  0.4751660000000  0.5111110000000  0.5020830000000 1.0
C      1  0.5282840000000  0.4709420000000  0.4584680000000 1.0
C      1  0.4832940000000  0.5168610000000  0.5483300000000 1.0
C      1  0.5343530000000  0.4964430000000  0.5381440000000 1.0
C      1  0.4736510000000  0.5059090000000  0.4548990000000 1.0
C      1  0.5404200000000  0.5075370000000  0.5930610000000 1.0
C      1  0.4533260000000  0.4864940000000  0.4045150000000 1.0
C      1  0.5214030000000  0.5305410000000  0.5934040000000 1.0
C      1  0.4680660000000  0.4641660000000  0.4027380000000 1.0
C      1  0.4839780000000  0.4212850000000  0.4311400000000 1.0
C      1  0.5126720000000  0.5824390000000  0.5654760000000 1.0
C      1  0.4294490000000  0.4189820000000  0.4839720000000 1.0
C      1  0.5633180000000  0.5871840000000  0.5101140000000 1.0
C      1  0.5023640000000  0.4729000000000  0.5215610000000 1.0
C      1  0.4908330000000  0.5232700000000  0.4776510000000 1.0
C      1  0.5156880000000  0.4542220000000  0.5797850000000 1.0
C      1  0.4834110000000  0.5385410000000  0.4215130000000 1.0
C      1  0.4915410000000  0.4800650000000  0.5980200000000 1.0
C      1  0.5001320000000  0.5082550000000  0.4017130000000 1.0
C      1  0.5819150000000  0.5135920000000  0.5538410000000 1.0
C      1  0.4178060000000  0.4966290000000  0.4431680000000 1.0
C      1  0.5930950000000  0.5484980000000  0.5173880000000 1.0
C      1  0.4034800000000  0.4603890000000  0.4778290000000 1.0
C      1  0.4339750000000  0.5195620000000  0.5367390000000 1.0
C      1  0.5691600000000  0.4837970000000  0.4690930000000 1.0
C      1  0.4755690000000  0.5958700000000  0.4734540000000 1.0
C      1  0.5342630000000  0.4116150000000  0.5314030000000 1.0
END
