TITL C-2782232-2968-1250 0.00613231424750559 125000 -533.870513083548 0 0 93 (C1) n - 1
REM
REM in /home/nfs/bkarasulu/CARBON/AIRSS/Generating-Clusters/REBO/Higher-Symm/SD-CG/HFTN-CG
REM
REM
REM
REM
REM
REM ./C.cell (12c818d87b63d06a65506943cc24bca4)
REM
REM compiler GCC version 9.2.1 20190827 (Red Hat 9.2.1-1)
REM options -cpp -mtune=generic -march=x86-64 -g -O0 -fpre-include=/usr/include/finclude/math-vector-fortran.h
REM seed 1379622608 207457615 1509338747 1113822441 1135251956 648555630 -1481951534 157076475 -979412547 1290042030 660649415 426084867 950331652 1047890177 743250032 144786849 -1809913146 -280460523 -159001315 -1590071303 -2071830118 1145972265 140195389 -931760897 1621550742 -577999022 1426180496 1889021957 -2102368378 1891669120 294065530 173588719 -1752143579
REM
CELL 1.54180   50.00000   50.00000   50.00000   90.00000   90.00000   90.00000
LATT -1
SFAC C  
C      1  0.4960370000000  0.5311830000000  0.5338480000000 1.0
C      1  0.4727450000000  0.5162040000000  0.5323600000000 1.0
C      1  0.4696830000000  0.4884740000000  0.5325480000000 1.0
C      1  0.4894990000000  0.4686640000000  0.5328610000000 1.0
C      1  0.5172030000000  0.4721440000000  0.5347200000000 1.0
C      1  0.5317650000000  0.4960890000000  0.5360970000000 1.0
C      1  0.5223860000000  0.5224690000000  0.5356340000000 1.0
C      1  0.4540540000000  0.4478280000000  0.4950420000000 1.0
C      1  0.5157690000000  0.4208150000000  0.5064320000000 1.0
C      1  0.5638160000000  0.4646080000000  0.5013000000000 1.0
C      1  0.5687700000000  0.5277460000000  0.5011260000000 1.0
C      1  0.5201720000000  0.5672800000000  0.4976130000000 1.0
C      1  0.4502800000000  0.5641760000000  0.5025850000000 1.0
C      1  0.4182220000000  0.5009170000000  0.5035300000000 1.0
C      1  0.4972520000000  0.5348120000000  0.4940660000000 1.0
C      1  0.4713270000000  0.5177700000000  0.4924530000000 1.0
C      1  0.4674640000000  0.4876480000000  0.4927760000000 1.0
C      1  0.4906500000000  0.4637330000000  0.4932700000000 1.0
C      1  0.5242280000000  0.4687850000000  0.4955360000000 1.0
C      1  0.5391470000000  0.4968030000000  0.4969720000000 1.0
C      1  0.5274340000000  0.5254920000000  0.4963150000000 1.0
C      1  0.4513200000000  0.5323670000000  0.5127130000000 1.0
C      1  0.4435510000000  0.4814880000000  0.5138090000000 1.0
C      1  0.4812910000000  0.4418690000000  0.5146980000000 1.0
C      1  0.5320980000000  0.4477060000000  0.5187750000000 1.0
C      1  0.5612370000000  0.4931380000000  0.5203920000000 1.0
C      1  0.5435390000000  0.5421700000000  0.5191190000000 1.0
C      1  0.4921210000000  0.5589250000000  0.5162810000000 1.0
C      1  0.5111850000000  0.4345690000000  0.5654320000000 1.0
C      1  0.5558180000000  0.4668440000000  0.5646320000000 1.0
C      1  0.5602930000000  0.5228180000000  0.5639030000000 1.0
C      1  0.5186880000000  0.5607400000000  0.5610290000000 1.0
C      1  0.4638690000000  0.5513600000000  0.5618190000000 1.0
C      1  0.4353850000000  0.5021940000000  0.5626950000000 1.0
C      1  0.4564020000000  0.4519000000000  0.5588190000000 1.0
C      1  0.4576210000000  0.5643770000000  0.4508500000000 1.0
C      1  0.4219310000000  0.5050680000000  0.4510630000000 1.0
C      1  0.4445200000000  0.4448770000000  0.4443310000000 1.0
C      1  0.5077930000000  0.4274480000000  0.4543610000000 1.0
C      1  0.5650280000000  0.4596300000000  0.4450110000000 1.0
C      1  0.5720380000000  0.5274210000000  0.4446300000000 1.0
C      1  0.5223070000000  0.5737740000000  0.4448850000000 1.0
C      1  0.5446190000000  0.5483130000000  0.5756160000000 1.0
C      1  0.4898140000000  0.5650540000000  0.5747200000000 1.0
C      1  0.4422840000000  0.5312840000000  0.5746190000000 1.0
C      1  0.4385110000000  0.4729760000000  0.5754800000000 1.0
C      1  0.4799860000000  0.4349010000000  0.5725910000000 1.0
C      1  0.5378660000000  0.4448380000000  0.5801400000000 1.0
C      1  0.5671040000000  0.4942850000000  0.5769780000000 1.0
C      1  0.5173760000000  0.5598470000000  0.4220920000000 1.0
C      1  0.4664480000000  0.5499570000000  0.4309200000000 1.0
C      1  0.4384590000000  0.5053720000000  0.4307280000000 1.0
C      1  0.4530400000000  0.4549960000000  0.4203190000000 1.0
C      1  0.5040340000000  0.4432120000000  0.4338120000000 1.0
C      1  0.5499580000000  0.4683600000000  0.4245710000000 1.0
C      1  0.5554180000000  0.5217400000000  0.4244360000000 1.0
C      1  0.4583270000000  0.5579680000000  0.5336790000000 1.0
C      1  0.4246020000000  0.4997990000000  0.5351260000000 1.0
C      1  0.4523170000000  0.4476400000000  0.5291510000000 1.0
C      1  0.5182090000000  0.4243520000000  0.5383630000000 1.0
C      1  0.5625610000000  0.4636730000000  0.5353560000000 1.0
C      1  0.5685020000000  0.5275240000000  0.5351910000000 1.0
C      1  0.5196240000000  0.5691250000000  0.5317040000000 1.0
C      1  0.5175290000000  0.4689070000000  0.4173770000000 1.0
C      1  0.5354370000000  0.4968340000000  0.4149880000000 1.0
C      1  0.5246180000000  0.5283130000000  0.4136300000000 1.0
C      1  0.4929350000000  0.5383340000000  0.4145400000000 1.0
C      1  0.4651570000000  0.5199490000000  0.4166510000000 1.0
C      1  0.4611190000000  0.4870030000000  0.4148630000000 1.0
C      1  0.4849090000000  0.4638990000000  0.4159580000000 1.0
C      1  0.4816550000000  0.5250750000000  0.5706730000000 1.0
C      1  0.4678540000000  0.5008180000000  0.5705220000000 1.0
C      1  0.4781420000000  0.4748090000000  0.5706430000000 1.0
C      1  0.5048450000000  0.4667220000000  0.5723600000000 1.0
C      1  0.5277310000000  0.4829260000000  0.5735570000000 1.0
C      1  0.5299120000000  0.5109980000000  0.5731660000000 1.0
C      1  0.5091560000000  0.5301260000000  0.5724650000000 1.0
C      1  0.5368110000000  0.4839040000000  0.4594470000000 1.0
C      1  0.5384290000000  0.5126100000000  0.4602930000000 1.0
C      1  0.5159050000000  0.5311550000000  0.4586730000000 1.0
C      1  0.4897220000000  0.5229750000000  0.4512960000000 1.0
C      1  0.4723130000000  0.5017910000000  0.4515120000000 1.0
C      1  0.4782890000000  0.4744110000000  0.4568420000000 1.0
C      1  0.5086120000000  0.4723490000000  0.4606930000000 1.0
C      1  0.4583760000000  0.4548290000000  0.4676400000000 1.0
C      1  0.5122440000000  0.4181810000000  0.4792940000000 1.0
C      1  0.5593910000000  0.4669700000000  0.4738890000000 1.0
C      1  0.5647180000000  0.5243250000000  0.4738510000000 1.0
C      1  0.5206160000000  0.5592980000000  0.4702750000000 1.0
C      1  0.4516660000000  0.5710690000000  0.4762590000000 1.0
C      1  0.4133140000000  0.5032460000000  0.4765690000000 1.0
C      1  0.5016080000000  0.4984300000000  0.5091210000000 1.0
C      1  0.5034690000000  0.4985840000000  0.4797660000000 1.0
END
