TITL C-2782237-5345-457 0.183635142096546 125000 -583.675327031079 0 0 104 (C1) n - 1
REM
REM in /home/nfs/bkarasulu/CARBON/AIRSS/Generating-Clusters/REBO/Higher-Symm/SD-CG/HFTN-CG
REM
REM
REM
REM
REM
REM ./C.cell (12c818d87b63d06a65506943cc24bca4)
REM
REM compiler GCC version 9.2.1 20190827 (Red Hat 9.2.1-1)
REM options -cpp -mtune=generic -march=x86-64 -g -O0 -fpre-include=/usr/include/finclude/math-vector-fortran.h
REM seed 951168398 -1036702155 -1056187486 -1884570309 -68615131 -1420927109 -1405238140 -1156241933 818996319 -1395726466 -427575050 67305724 1254694499 -188112553 109390129 -1365531816 1518518827 -1942439056 -338108407 1948788783 95492023 1000518204 -1735083214 77813869 -851813713 -1787738234 594456677 1619133030 -784227321 -185180959 1575976508 476520000 -858497300
REM
CELL 1.54180   50.00000   50.00000   50.00000   90.00000   90.00000   90.00000
LATT -1
SFAC C  
C      1  0.5485320000000  0.4859360000000  0.4249370000000 1.0
C      1  0.4809010000000  0.4301080000000  0.5446180000000 1.0
C      1  0.4331390000000  0.5467650000000  0.4814700000000 1.0
C      1  0.4599830000000  0.5122930000000  0.4300510000000 1.0
C      1  0.5506100000000  0.5135600000000  0.5760960000000 1.0
C      1  0.4522130000000  0.4813530000000  0.5840780000000 1.0
C      1  0.5057100000000  0.5746460000000  0.5443650000000 1.0
C      1  0.4874520000000  0.5728680000000  0.4518080000000 1.0
C      1  0.5141030000000  0.4251490000000  0.4549430000000 1.0
C      1  0.5728460000000  0.4584130000000  0.4830800000000 1.0
C      1  0.4191160000000  0.4446240000000  0.5144160000000 1.0
C      1  0.5757650000000  0.5485600000000  0.5115850000000 1.0
C      1  0.5465740000000  0.4844260000000  0.5718540000000 1.0
C      1  0.4855960000000  0.4307810000000  0.4610450000000 1.0
C      1  0.4306140000000  0.5409680000000  0.5098130000000 1.0
C      1  0.4538110000000  0.5107250000000  0.5809110000000 1.0
C      1  0.5591160000000  0.5127660000000  0.4189800000000 1.0
C      1  0.4503160000000  0.4851410000000  0.4231970000000 1.0
C      1  0.5159930000000  0.5700010000000  0.4577170000000 1.0
C      1  0.4765720000000  0.5728770000000  0.5479600000000 1.0
C      1  0.5086880000000  0.4286090000000  0.5450280000000 1.0
C      1  0.5795130000000  0.4513390000000  0.5108010000000 1.0
C      1  0.4261050000000  0.4526810000000  0.4870600000000 1.0
C      1  0.5776220000000  0.5486740000000  0.4827990000000 1.0
C      1  0.5480170000000  0.4888410000000  0.4768030000000 1.0
C      1  0.4834750000000  0.4760070000000  0.5411630000000 1.0
C      1  0.4937710000000  0.5471500000000  0.4817680000000 1.0
C      1  0.4498490000000  0.5103120000000  0.4929720000000 1.0
C      1  0.5569070000000  0.5156520000000  0.5236080000000 1.0
C      1  0.4279290000000  0.4862110000000  0.5422900000000 1.0
C      1  0.5093760000000  0.5213140000000  0.5564480000000 1.0
C      1  0.4908130000000  0.5226690000000  0.4526390000000 1.0
C      1  0.5202470000000  0.4790750000000  0.4523730000000 1.0
C      1  0.5103340000000  0.4530760000000  0.4831280000000 1.0
C      1  0.4904770000000  0.4576140000000  0.5172650000000 1.0
C      1  0.5188640000000  0.5578710000000  0.5107170000000 1.0
C      1  0.5596300000000  0.4859660000000  0.5090950000000 1.0
C      1  0.4887550000000  0.4888430000000  0.4475490000000 1.0
C      1  0.4846210000000  0.5538620000000  0.5138910000000 1.0
C      1  0.4474350000000  0.5091500000000  0.5270700000000 1.0
C      1  0.5387990000000  0.5153600000000  0.4946610000000 1.0
C      1  0.4537080000000  0.4819870000000  0.4752310000000 1.0
C      1  0.5210670000000  0.5126080000000  0.4458830000000 1.0
C      1  0.4783530000000  0.5088840000000  0.5494790000000 1.0
C      1  0.5109710000000  0.4869200000000  0.5543960000000 1.0
C      1  0.5231540000000  0.4480400000000  0.5134090000000 1.0
C      1  0.4772790000000  0.4607160000000  0.4861950000000 1.0
C      1  0.5276150000000  0.5425140000000  0.4843170000000 1.0
C      1  0.5512600000000  0.5591620000000  0.5214880000000 1.0
C      1  0.5580970000000  0.5264300000000  0.5525640000000 1.0
C      1  0.5186700000000  0.5511630000000  0.5532260000000 1.0
C      1  0.4399350000000  0.4335550000000  0.5293680000000 1.0
C      1  0.5440040000000  0.4493280000000  0.4793740000000 1.0
C      1  0.4610410000000  0.5543010000000  0.4752830000000 1.0
C      1  0.4353220000000  0.4698350000000  0.5640730000000 1.0
C      1  0.5593130000000  0.4740380000000  0.4481750000000 1.0
C      1  0.4517380000000  0.5187100000000  0.4599510000000 1.0
C      1  0.4719350000000  0.4539560000000  0.5628430000000 1.0
C      1  0.5278490000000  0.4471110000000  0.4433670000000 1.0
C      1  0.4775360000000  0.5495650000000  0.4395440000000 1.0
C      1  0.5534120000000  0.5576100000000  0.4714580000000 1.0
C      1  0.5726860000000  0.5277270000000  0.4390740000000 1.0
C      1  0.5269660000000  0.5462020000000  0.4441160000000 1.0
C      1  0.4503700000000  0.4423890000000  0.4759970000000 1.0
C      1  0.5555390000000  0.4400070000000  0.5218250000000 1.0
C      1  0.4522800000000  0.5514720000000  0.5245810000000 1.0
C      1  0.4415280000000  0.4711640000000  0.4459540000000 1.0
C      1  0.5574860000000  0.4808520000000  0.5428080000000 1.0
C      1  0.4414580000000  0.5215040000000  0.5581850000000 1.0
C      1  0.4784900000000  0.4566830000000  0.4465460000000 1.0
C      1  0.5205770000000  0.4538680000000  0.5528740000000 1.0
C      1  0.4753580000000  0.5422260000000  0.5556060000000 1.0
C      1  0.4824530000000  0.4836260000000  0.4140260000000 1.0
C      1  0.4783550000000  0.4194490000000  0.4889780000000 1.0
C      1  0.4206970000000  0.4848190000000  0.4836370000000 1.0
C      1  0.5257490000000  0.5161090000000  0.4122720000000 1.0
C      1  0.4865270000000  0.5015460000000  0.5823530000000 1.0
C      1  0.5166520000000  0.4755140000000  0.5859670000000 1.0
C      1  0.5229490000000  0.5861840000000  0.4829260000000 1.0
C      1  0.4794010000000  0.5874530000000  0.5171740000000 1.0
C      1  0.5220530000000  0.4147340000000  0.5202290000000 1.0
C      1  0.5860990000000  0.5202290000000  0.4694850000000 1.0
C      1  0.4157850000000  0.5105460000000  0.5136270000000 1.0
C      1  0.5930620000000  0.4827580000000  0.5073200000000 1.0
C      1  0.4834560000000  0.4685380000000  0.5885720000000 1.0
C      1  0.4681680000000  0.4315530000000  0.5149180000000 1.0
C      1  0.4120450000000  0.4766590000000  0.5156790000000 1.0
C      1  0.5191600000000  0.5095150000000  0.5862780000000 1.0
C      1  0.4921270000000  0.5161900000000  0.4187020000000 1.0
C      1  0.5156500000000  0.4840120000000  0.4185140000000 1.0
C      1  0.5133290000000  0.5906000000000  0.5152720000000 1.0
C      1  0.4890180000000  0.5810900000000  0.4850830000000 1.0
C      1  0.5119260000000  0.4188500000000  0.4885930000000 1.0
C      1  0.5853060000000  0.5161570000000  0.5043520000000 1.0
C      1  0.4175640000000  0.5176010000000  0.4803060000000 1.0
C      1  0.5825450000000  0.4891360000000  0.4755730000000 1.0
C      1  0.4441910000000  0.5518080000000  0.5546690000000 1.0
C      1  0.5564110000000  0.5513200000000  0.4424490000000 1.0
C      1  0.5477730000000  0.4536370000000  0.5464060000000 1.0
C      1  0.4495120000000  0.4408730000000  0.4450600000000 1.0
C      1  0.4474440000000  0.5471500000000  0.4445100000000 1.0
C      1  0.5464130000000  0.5519110000000  0.5486710000000 1.0
C      1  0.5584460000000  0.4434600000000  0.4491390000000 1.0
C      1  0.4425930000000  0.4421190000000  0.5559730000000 1.0
END
