TITL C-2782238-9940-780 -0.000773285684938732 125000 -641.511792472417 0 0 111 (C1) n - 1
REM
REM in /home/nfs/bkarasulu/CARBON/AIRSS/Generating-Clusters/REBO/Higher-Symm/SD-CG/HFTN-CG
REM
REM
REM
REM
REM
REM ./C.cell (12c818d87b63d06a65506943cc24bca4)
REM
REM compiler GCC version 9.2.1 20190827 (Red Hat 9.2.1-1)
REM options -cpp -mtune=generic -march=x86-64 -g -O0 -fpre-include=/usr/include/finclude/math-vector-fortran.h
REM seed -1186505472 167805136 1756912136 1619108358 -1352428730 -297751002 -1977600627 -1701415743 1746557905 1726920001 921461887 1120183506 -1721018982 -1454405831 -994811116 -672194993 758843351 731027214 -1241047076 -545196840 -403577178 1844377705 -1379292961 -2074128919 613832028 -79286314 -2088647250 583831704 -665046791 1080553316 -1203596408 2141970059 1096616505
REM
CELL 1.54180   50.00000   50.00000   50.00000   90.00000   90.00000   90.00000
LATT -1
SFAC C  
C      1  0.4940410000000  0.5452760000000  0.4631070000000 1.0
C      1  0.4929750000000  0.4970370000000  0.4461450000000 1.0
C      1  0.4916680000000  0.4599680000000  0.4667550000000 1.0
C      1  0.4913810000000  0.4519400000000  0.5109450000000 1.0
C      1  0.4897930000000  0.4814530000000  0.5449900000000 1.0
C      1  0.4902200000000  0.5272970000000  0.5431550000000 1.0
C      1  0.4953750000000  0.5532980000000  0.5129330000000 1.0
C      1  0.4521150000000  0.4322320000000  0.5357350000000 1.0
C      1  0.4501450000000  0.4858330000000  0.5757970000000 1.0
C      1  0.4496950000000  0.5505310000000  0.5611680000000 1.0
C      1  0.4585260000000  0.5866860000000  0.5093720000000 1.0
C      1  0.4514750000000  0.5511000000000  0.4430860000000 1.0
C      1  0.4525460000000  0.4765700000000  0.4237810000000 1.0
C      1  0.4525890000000  0.4279160000000  0.4688070000000 1.0
C      1  0.4820690000000  0.4902990000000  0.5702670000000 1.0
C      1  0.4815870000000  0.5504200000000  0.5552760000000 1.0
C      1  0.4886860000000  0.5798450000000  0.5060050000000 1.0
C      1  0.4797820000000  0.5488610000000  0.4376710000000 1.0
C      1  0.4853430000000  0.4757770000000  0.4296460000000 1.0
C      1  0.4852350000000  0.4331900000000  0.4726810000000 1.0
C      1  0.4844810000000  0.4390490000000  0.5349330000000 1.0
C      1  0.5140170000000  0.5290310000000  0.4072590000000 1.0
C      1  0.5206370000000  0.4390250000000  0.4183230000000 1.0
C      1  0.5207290000000  0.4000820000000  0.4942430000000 1.0
C      1  0.5198360000000  0.4338430000000  0.5737030000000 1.0
C      1  0.5180780000000  0.5159490000000  0.5975590000000 1.0
C      1  0.5180280000000  0.5860380000000  0.5538880000000 1.0
C      1  0.5264380000000  0.6017150000000  0.4737820000000 1.0
C      1  0.5650000000000  0.4555490000000  0.5477550000000 1.0
C      1  0.5625520000000  0.5091310000000  0.5623750000000 1.0
C      1  0.5604170000000  0.5537720000000  0.5302000000000 1.0
C      1  0.5641360000000  0.5575500000000  0.4741630000000 1.0
C      1  0.5610700000000  0.5157850000000  0.4382170000000 1.0
C      1  0.5650470000000  0.4602940000000  0.4469330000000 1.0
C      1  0.5660690000000  0.4334830000000  0.4962560000000 1.0
C      1  0.4312530000000  0.5501240000000  0.5331650000000 1.0
C      1  0.4224390000000  0.5585530000000  0.4788340000000 1.0
C      1  0.4345270000000  0.5232020000000  0.4420320000000 1.0
C      1  0.4308410000000  0.4688850000000  0.4464070000000 1.0
C      1  0.4308070000000  0.4409160000000  0.4897050000000 1.0
C      1  0.4301090000000  0.4563260000000  0.5390090000000 1.0
C      1  0.4289110000000  0.5041280000000  0.5587310000000 1.0
C      1  0.4660410000000  0.5199300000000  0.4028150000000 1.0
C      1  0.4644820000000  0.4445490000000  0.4173880000000 1.0
C      1  0.4653350000000  0.4036680000000  0.4898790000000 1.0
C      1  0.4641270000000  0.4326120000000  0.5682190000000 1.0
C      1  0.4615620000000  0.5108620000000  0.5970920000000 1.0
C      1  0.4603640000000  0.5834590000000  0.5592490000000 1.0
C      1  0.4615330000000  0.5863750000000  0.4779010000000 1.0
C      1  0.4876750000000  0.5348590000000  0.4139560000000 1.0
C      1  0.4954740000000  0.4488850000000  0.4196750000000 1.0
C      1  0.4960750000000  0.4085920000000  0.4872390000000 1.0
C      1  0.4949710000000  0.4341180000000  0.5631730000000 1.0
C      1  0.4926190000000  0.5085280000000  0.5922000000000 1.0
C      1  0.4920650000000  0.5787270000000  0.5576250000000 1.0
C      1  0.4943330000000  0.5909160000000  0.4759050000000 1.0
C      1  0.5503990000000  0.4424250000000  0.5665920000000 1.0
C      1  0.5480460000000  0.5153550000000  0.5845690000000 1.0
C      1  0.5464200000000  0.5740490000000  0.5420350000000 1.0
C      1  0.5462680000000  0.5766820000000  0.4661840000000 1.0
C      1  0.5442100000000  0.5214510000000  0.4175640000000 1.0
C      1  0.5506560000000  0.4448000000000  0.4297710000000 1.0
C      1  0.5513260000000  0.4106450000000  0.4973610000000 1.0
C      1  0.4211990000000  0.4973800000000  0.4598310000000 1.0
C      1  0.4194620000000  0.4695140000000  0.4771380000000 1.0
C      1  0.4184640000000  0.4644440000000  0.5092020000000 1.0
C      1  0.4182670000000  0.4865790000000  0.5329660000000 1.0
C      1  0.4196910000000  0.5190710000000  0.5307030000000 1.0
C      1  0.4196190000000  0.5378270000000  0.5041280000000 1.0
C      1  0.4181660000000  0.5267370000000  0.4719980000000 1.0
C      1  0.4434510000000  0.5252040000000  0.5770640000000 1.0
C      1  0.4457860000000  0.5784350000000  0.5329490000000 1.0
C      1  0.4437940000000  0.5693180000000  0.4639220000000 1.0
C      1  0.4474090000000  0.5066370000000  0.4179940000000 1.0
C      1  0.4462600000000  0.4415170000000  0.4417600000000 1.0
C      1  0.4468550000000  0.4203180000000  0.5076030000000 1.0
C      1  0.4453680000000  0.4566600000000  0.5666400000000 1.0
C      1  0.4646890000000  0.4610590000000  0.4962560000000 1.0
C      1  0.4645350000000  0.4771140000000  0.5263750000000 1.0
C      1  0.4663900000000  0.5107720000000  0.5312730000000 1.0
C      1  0.4723890000000  0.5351360000000  0.5082690000000 1.0
C      1  0.4701120000000  0.5324890000000  0.4782950000000 1.0
C      1  0.4670910000000  0.5083370000000  0.4594660000000 1.0
C      1  0.4650880000000  0.4761600000000  0.4657220000000 1.0
C      1  0.5433180000000  0.4302170000000  0.5958030000000 1.0
C      1  0.5427940000000  0.5302140000000  0.6129500000000 1.0
C      1  0.5440580000000  0.6051200000000  0.5512770000000 1.0
C      1  0.5160010000000  0.5772300000000  0.4540060000000 1.0
C      1  0.5364530000000  0.5188160000000  0.3861780000000 1.0
C      1  0.5448250000000  0.4184540000000  0.4117320000000 1.0
C      1  0.5436140000000  0.3804000000000  0.5061730000000 1.0
C      1  0.5723920000000  0.4735690000000  0.5271990000000 1.0
C      1  0.5711860000000  0.5044800000000  0.5357350000000 1.0
C      1  0.5704350000000  0.5304860000000  0.5170990000000 1.0
C      1  0.5711020000000  0.5322740000000  0.4850050000000 1.0
C      1  0.5718070000000  0.5084650000000  0.4635040000000 1.0
C      1  0.5729610000000  0.4763980000000  0.4689040000000 1.0
C      1  0.5731950000000  0.4608500000000  0.4974880000000 1.0
C      1  0.5194620000000  0.5041700000000  0.4607590000000 1.0
C      1  0.5158260000000  0.4754890000000  0.4760150000000 1.0
C      1  0.5148910000000  0.4701330000000  0.5062060000000 1.0
C      1  0.5149520000000  0.4891860000000  0.5302630000000 1.0
C      1  0.5158830000000  0.5196400000000  0.5320850000000 1.0
C      1  0.5239350000000  0.5392900000000  0.5050530000000 1.0
C      1  0.5191580000000  0.5331390000000  0.4716480000000 1.0
C      1  0.5028660000000  0.5069690000000  0.4967300000000 1.0
C      1  0.5576910000000  0.4973960000000  0.4989780000000 1.0
C      1  0.4791410000000  0.4978570000000  0.4958890000000 1.0
C      1  0.5860570000000  0.4984080000000  0.4993270000000 1.0
C      1  0.4524930000000  0.4994430000000  0.4955790000000 1.0
C      1  0.5326360000000  0.5070680000000  0.4983880000000 1.0
END
