TITL C-2782230-7391-375 0.00263529595148597 125000 -697.89053256872 0 0 124 (C1) n - 1
REM
REM in /home/nfs/bkarasulu/CARBON/AIRSS/Generating-Clusters/REBO/Higher-Symm/SD-CG/HFTN-CG
REM
REM
REM
REM
REM
REM ./C.cell (12c818d87b63d06a65506943cc24bca4)
REM
REM compiler GCC version 9.2.1 20190827 (Red Hat 9.2.1-1)
REM options -cpp -mtune=generic -march=x86-64 -g -O0 -fpre-include=/usr/include/finclude/math-vector-fortran.h
REM seed 1977863314 -1703898988 1283270727 1031322198 -779789635 -762438400 -1406581074 -2140557401 1435369127 -1389095532 -1134360433 -2066352028 -1831431846 186336398 1795328269 1385657719 1795665446 -2105859033 -1883258953 -659282790 -1828497308 1814440914 -710214654 625068285 1478636052 -889320210 -609274034 -2528677 -814160895 -417462865 -2033967658 -309064346 1803279705
REM
CELL 1.54180   50.00000   50.00000   50.00000   90.00000   90.00000   90.00000
LATT -1
SFAC C  
C      1  0.5412660000000  0.5191100000000  0.4098000000000 1.0
C      1  0.4156950000000  0.5109750000000  0.4526120000000 1.0
C      1  0.4304440000000  0.5147800000000  0.5609530000000 1.0
C      1  0.5181320000000  0.5205360000000  0.5867610000000 1.0
C      1  0.5966960000000  0.5152270000000  0.5075150000000 1.0
C      1  0.4990600000000  0.4854770000000  0.5577200000000 1.0
C      1  0.5524100000000  0.4907570000000  0.5161540000000 1.0
C      1  0.5295720000000  0.4916280000000  0.4516320000000 1.0
C      1  0.4599530000000  0.4865930000000  0.4607440000000 1.0
C      1  0.4430120000000  0.4951340000000  0.5159530000000 1.0
C      1  0.5095650000000  0.4433160000000  0.4452480000000 1.0
C      1  0.4439150000000  0.4358590000000  0.4724520000000 1.0
C      1  0.4782830000000  0.4497130000000  0.5236850000000 1.0
C      1  0.5141130000000  0.4422670000000  0.5395500000000 1.0
C      1  0.5371280000000  0.4488670000000  0.4933490000000 1.0
C      1  0.5676890000000  0.4652170000000  0.5329890000000 1.0
C      1  0.5524290000000  0.4663900000000  0.4493850000000 1.0
C      1  0.4598470000000  0.4745890000000  0.4318990000000 1.0
C      1  0.4193220000000  0.4720340000000  0.5200350000000 1.0
C      1  0.4950010000000  0.4684860000000  0.5870100000000 1.0
C      1  0.4952840000000  0.5752790000000  0.4464080000000 1.0
C      1  0.4512180000000  0.5769320000000  0.4812420000000 1.0
C      1  0.4789120000000  0.5788800000000  0.5331240000000 1.0
C      1  0.5294780000000  0.5789690000000  0.5409440000000 1.0
C      1  0.5456160000000  0.5787930000000  0.4887490000000 1.0
C      1  0.4241590000000  0.5480260000000  0.5101230000000 1.0
C      1  0.4823350000000  0.5513310000000  0.5756520000000 1.0
C      1  0.5725360000000  0.5476470000000  0.5429840000000 1.0
C      1  0.5535150000000  0.5631780000000  0.4528760000000 1.0
C      1  0.4672140000000  0.5513360000000  0.4309610000000 1.0
C      1  0.4727840000000  0.4939260000000  0.5865140000000 1.0
C      1  0.5636310000000  0.4895380000000  0.5562950000000 1.0
C      1  0.5891130000000  0.5033120000000  0.4634770000000 1.0
C      1  0.4765740000000  0.4920920000000  0.4105630000000 1.0
C      1  0.4068520000000  0.4954470000000  0.4989220000000 1.0
C      1  0.5606090000000  0.4334190000000  0.5351320000000 1.0
C      1  0.5560740000000  0.4379700000000  0.4580310000000 1.0
C      1  0.4705630000000  0.4450510000000  0.4337720000000 1.0
C      1  0.4308760000000  0.4436950000000  0.5125300000000 1.0
C      1  0.4970320000000  0.4361980000000  0.5765090000000 1.0
C      1  0.4988140000000  0.4154960000000  0.5495400000000 1.0
C      1  0.5419070000000  0.4241360000000  0.5142250000000 1.0
C      1  0.5304420000000  0.4222300000000  0.4595620000000 1.0
C      1  0.4696450000000  0.4267760000000  0.4576820000000 1.0
C      1  0.4559750000000  0.4309830000000  0.5112060000000 1.0
C      1  0.5487850000000  0.5191690000000  0.5565060000000 1.0
C      1  0.5718710000000  0.5231740000000  0.4714530000000 1.0
C      1  0.4892540000000  0.5164310000000  0.4233140000000 1.0
C      1  0.4109590000000  0.5242210000000  0.4811630000000 1.0
C      1  0.4616190000000  0.5182580000000  0.5669360000000 1.0
C      1  0.4118950000000  0.4934360000000  0.4328540000000 1.0
C      1  0.4115690000000  0.4959700000000  0.5639390000000 1.0
C      1  0.5235950000000  0.5038680000000  0.6080130000000 1.0
C      1  0.6070120000000  0.4898850000000  0.5072770000000 1.0
C      1  0.5549670000000  0.4962820000000  0.4032210000000 1.0
C      1  0.4771940000000  0.5249770000000  0.5384200000000 1.0
C      1  0.5238410000000  0.5240340000000  0.5350000000000 1.0
C      1  0.5415720000000  0.5244910000000  0.4871020000000 1.0
C      1  0.4977620000000  0.5208750000000  0.4553520000000 1.0
C      1  0.4622360000000  0.5220720000000  0.4906870000000 1.0
C      1  0.5603080000000  0.4401890000000  0.5632640000000 1.0
C      1  0.5823930000000  0.4476030000000  0.4679550000000 1.0
C      1  0.4935440000000  0.4420060000000  0.4152090000000 1.0
C      1  0.4129490000000  0.4396010000000  0.4771960000000 1.0
C      1  0.4784500000000  0.4491490000000  0.5562660000000 1.0
C      1  0.4964310000000  0.6010020000000  0.4465160000000 1.0
C      1  0.4535750000000  0.6010790000000  0.4726010000000 1.0
C      1  0.4790210000000  0.6008140000000  0.5181350000000 1.0
C      1  0.5250290000000  0.6043110000000  0.5421260000000 1.0
C      1  0.5442760000000  0.6035200000000  0.4957970000000 1.0
C      1  0.4942040000000  0.5506580000000  0.5374630000000 1.0
C      1  0.5272220000000  0.5525860000000  0.5214070000000 1.0
C      1  0.5276970000000  0.5528940000000  0.4814500000000 1.0
C      1  0.4880830000000  0.5493810000000  0.4649330000000 1.0
C      1  0.4652730000000  0.5548970000000  0.5002560000000 1.0
C      1  0.4986970000000  0.4130210000000  0.4688440000000 1.0
C      1  0.4720250000000  0.4128710000000  0.4886660000000 1.0
C      1  0.4810030000000  0.4099230000000  0.5210220000000 1.0
C      1  0.5142210000000  0.4070940000000  0.5206130000000 1.0
C      1  0.5245240000000  0.4094550000000  0.4892600000000 1.0
C      1  0.4732450000000  0.4925500000000  0.5040700000000 1.0
C      1  0.4937640000000  0.4985520000000  0.5282250000000 1.0
C      1  0.5229270000000  0.5005300000000  0.5131430000000 1.0
C      1  0.5201340000000  0.4998050000000  0.4807830000000 1.0
C      1  0.4877700000000  0.4961500000000  0.4741160000000 1.0
C      1  0.5467940000000  0.4649780000000  0.5670170000000 1.0
C      1  0.5833730000000  0.4775300000000  0.4717350000000 1.0
C      1  0.4985730000000  0.4712350000000  0.4042520000000 1.0
C      1  0.4124240000000  0.4710060000000  0.4808350000000 1.0
C      1  0.4618470000000  0.4729280000000  0.5651080000000 1.0
C      1  0.5189960000000  0.4692750000000  0.4284950000000 1.0
C      1  0.4422580000000  0.4662090000000  0.4750650000000 1.0
C      1  0.4565420000000  0.4731650000000  0.5344590000000 1.0
C      1  0.5207200000000  0.4635350000000  0.5569970000000 1.0
C      1  0.5597570000000  0.4678120000000  0.4939910000000 1.0
C      1  0.4435700000000  0.5207480000000  0.5318120000000 1.0
C      1  0.5095820000000  0.5143600000000  0.5616160000000 1.0
C      1  0.5661720000000  0.5184000000000  0.5104530000000 1.0
C      1  0.5265950000000  0.5200700000000  0.4368580000000 1.0
C      1  0.4455490000000  0.5148470000000  0.4635400000000 1.0
C      1  0.5002890000000  0.5483750000000  0.4266640000000 1.0
C      1  0.4316350000000  0.5501430000000  0.4792850000000 1.0
C      1  0.4626370000000  0.5641550000000  0.5574570000000 1.0
C      1  0.5423970000000  0.5525200000000  0.5582710000000 1.0
C      1  0.5676320000000  0.5541810000000  0.4816030000000 1.0
C      1  0.5574580000000  0.5499000000000  0.5135020000000 1.0
C      1  0.5262230000000  0.5504520000000  0.4484430000000 1.0
C      1  0.4564730000000  0.5448000000000  0.4583540000000 1.0
C      1  0.4495320000000  0.5524720000000  0.5296120000000 1.0
C      1  0.5109860000000  0.5540240000000  0.5650240000000 1.0
C      1  0.5503520000000  0.4735350000000  0.4188610000000 1.0
C      1  0.4297490000000  0.4755630000000  0.4226020000000 1.0
C      1  0.4061070000000  0.4745100000000  0.5479680000000 1.0
C      1  0.5155140000000  0.4775570000000  0.6088380000000 1.0
C      1  0.5900190000000  0.4690940000000  0.5100470000000 1.0
C      1  0.4049540000000  0.5242170000000  0.5151580000000 1.0
C      1  0.4780030000000  0.5268070000000  0.5940140000000 1.0
C      1  0.5822600000000  0.5174720000000  0.5508050000000 1.0
C      1  0.6109710000000  0.5086740000000  0.4481580000000 1.0
C      1  0.4609440000000  0.4988220000000  0.3879290000000 1.0
C      1  0.5084860000000  0.4509730000000  0.4761240000000 1.0
C      1  0.4928420000000  0.5263820000000  0.4996180000000 1.0
C      1  0.4992840000000  0.5559980000000  0.4956030000000 1.0
C      1  0.5069000000000  0.4493530000000  0.5095580000000 1.0
END
