TITL C-2782226-7400-1055 0.0175624778609855 125000 -948.705716629761 0 0 161 (C1) n - 1
REM
REM in /home/nfs/bkarasulu/CARBON/AIRSS/Generating-Clusters/REBO/Higher-Symm/SD-CG/HFTN-CG
REM
REM
REM
REM
REM
REM ./C.cell (12c818d87b63d06a65506943cc24bca4)
REM
REM compiler GCC version 9.2.1 20190827 (Red Hat 9.2.1-1)
REM options -cpp -mtune=generic -march=x86-64 -g -O0 -fpre-include=/usr/include/finclude/math-vector-fortran.h
REM seed 1087035579 1876007204 1732063259 396470147 -372411506 1857059429 1169643300 994746375 1923830895 2142279853 2044127168 749767442 626784159 1039033411 944678224 -284615924 -1587976754 2129294987 2126197865 -236579412 -151284250 -1009920242 1813553316 -1165297974 -457693069 1138504080 -1049039345 1959637946 -839314159 -1245576915 1617614663 2030115835 -801079531
REM
CELL 1.54180   50.00000   50.00000   50.00000   90.00000   90.00000   90.00000
LATT -1
SFAC C  
C      1  0.5800660000000  0.5486520000000  0.5303450000000 1.0
C      1  0.4234480000000  0.4420500000000  0.5225100000000 1.0
C      1  0.5035700000000  0.4071480000000  0.4509820000000 1.0
C      1  0.4988620000000  0.5887900000000  0.4649840000000 1.0
C      1  0.4286930000000  0.5725280000000  0.5080320000000 1.0
C      1  0.5625250000000  0.4339440000000  0.5015330000000 1.0
C      1  0.4932660000000  0.5884940000000  0.5386240000000 1.0
C      1  0.5068110000000  0.4237070000000  0.5401940000000 1.0
C      1  0.4375090000000  0.5406480000000  0.5509170000000 1.0
C      1  0.5633580000000  0.4550120000000  0.5538000000000 1.0
C      1  0.4623320000000  0.4033460000000  0.4824930000000 1.0
C      1  0.5390580000000  0.5960480000000  0.4845540000000 1.0
C      1  0.4893980000000  0.5744050000000  0.4928340000000 1.0
C      1  0.5080430000000  0.4334720000000  0.4829440000000 1.0
C      1  0.4430200000000  0.5261060000000  0.4230570000000 1.0
C      1  0.5549310000000  0.4754320000000  0.4481940000000 1.0
C      1  0.5025230000000  0.5768220000000  0.5695060000000 1.0
C      1  0.4974750000000  0.4276510000000  0.5726780000000 1.0
C      1  0.5772590000000  0.5726940000000  0.4683280000000 1.0
C      1  0.4192810000000  0.4205900000000  0.4700610000000 1.0
C      1  0.5350180000000  0.5181860000000  0.6349870000000 1.0
C      1  0.4623950000000  0.4880670000000  0.6356810000000 1.0
C      1  0.5675960000000  0.5336030000000  0.5760420000000 1.0
C      1  0.4366540000000  0.4703740000000  0.5771560000000 1.0
C      1  0.4261160000000  0.4427500000000  0.4553020000000 1.0
C      1  0.5602930000000  0.5460860000000  0.4643830000000 1.0
C      1  0.4526580000000  0.4501210000000  0.4966360000000 1.0
C      1  0.5432130000000  0.5512200000000  0.5000350000000 1.0
C      1  0.5707850000000  0.4085950000000  0.4903200000000 1.0
C      1  0.4228980000000  0.5899510000000  0.4842930000000 1.0
C      1  0.5156380000000  0.4761000000000  0.4213320000000 1.0
C      1  0.4826190000000  0.5213020000000  0.4251840000000 1.0
C      1  0.4474720000000  0.4989030000000  0.5255760000000 1.0
C      1  0.5501490000000  0.5006280000000  0.5218680000000 1.0
C      1  0.4394130000000  0.4993390000000  0.5736050000000 1.0
C      1  0.5720270000000  0.5009540000000  0.5668050000000 1.0
C      1  0.4731070000000  0.5645780000000  0.5274900000000 1.0
C      1  0.5249870000000  0.4498410000000  0.5296960000000 1.0
C      1  0.4447670000000  0.5245330000000  0.5041320000000 1.0
C      1  0.5572900000000  0.4767540000000  0.5046080000000 1.0
C      1  0.5010100000000  0.5765840000000  0.4270360000000 1.0
C      1  0.4861250000000  0.4248840000000  0.4343870000000 1.0
C      1  0.4569100000000  0.4590990000000  0.5943330000000 1.0
C      1  0.5431860000000  0.5460690000000  0.5941150000000 1.0
C      1  0.4922580000000  0.4735340000000  0.5712790000000 1.0
C      1  0.5110690000000  0.5271530000000  0.5664940000000 1.0
C      1  0.5964300000000  0.5125500000000  0.5271930000000 1.0
C      1  0.4219700000000  0.4816020000000  0.5262790000000 1.0
C      1  0.4818500000000  0.4219140000000  0.5244580000000 1.0
C      1  0.5224520000000  0.5785370000000  0.5349290000000 1.0
C      1  0.6029460000000  0.4858460000000  0.5181700000000 1.0
C      1  0.4021360000000  0.5009890000000  0.5099080000000 1.0
C      1  0.5389400000000  0.4067110000000  0.5567370000000 1.0
C      1  0.4559960000000  0.5911710000000  0.5519700000000 1.0
C      1  0.5229980000000  0.5510180000000  0.5199410000000 1.0
C      1  0.4721580000000  0.4512830000000  0.5198110000000 1.0
C      1  0.5463830000000  0.4357500000000  0.4439360000000 1.0
C      1  0.4519550000000  0.5603800000000  0.4413100000000 1.0
C      1  0.4177720000000  0.4910660000000  0.4562810000000 1.0
C      1  0.5835220000000  0.5027370000000  0.4584360000000 1.0
C      1  0.5043870000000  0.5557930000000  0.4610080000000 1.0
C      1  0.4939560000000  0.4517320000000  0.4628240000000 1.0
C      1  0.4525150000000  0.5965690000000  0.4693170000000 1.0
C      1  0.5466900000000  0.3967180000000  0.4790900000000 1.0
C      1  0.5280200000000  0.4278740000000  0.5736380000000 1.0
C      1  0.4719880000000  0.5706190000000  0.5670150000000 1.0
C      1  0.5005450000000  0.4530780000000  0.5079840000000 1.0
C      1  0.4937990000000  0.5456260000000  0.5092570000000 1.0
C      1  0.5785290000000  0.5248690000000  0.4780790000000 1.0
C      1  0.4174510000000  0.4666650000000  0.4701690000000 1.0
C      1  0.4564590000000  0.4121770000000  0.4579570000000 1.0
C      1  0.5381230000000  0.5893720000000  0.4574800000000 1.0
C      1  0.5245800000000  0.4988470000000  0.5005610000000 1.0
C      1  0.4704310000000  0.5037890000000  0.5013210000000 1.0
C      1  0.5253230000000  0.5654980000000  0.5817180000000 1.0
C      1  0.4748260000000  0.4384660000000  0.5849290000000 1.0
C      1  0.4732260000000  0.5867620000000  0.4441150000000 1.0
C      1  0.5345200000000  0.4095780000000  0.4560940000000 1.0
C      1  0.4679460000000  0.5411740000000  0.4874890000000 1.0
C      1  0.5263730000000  0.4672540000000  0.4938860000000 1.0
C      1  0.5082660000000  0.3857620000000  0.4746180000000 1.0
C      1  0.4949930000000  0.6155900000000  0.4856100000000 1.0
C      1  0.5847530000000  0.4747770000000  0.4976780000000 1.0
C      1  0.4165970000000  0.5198400000000  0.4941180000000 1.0
C      1  0.4447380000000  0.3972640000000  0.5070280000000 1.0
C      1  0.5605500000000  0.5965990000000  0.5080890000000 1.0
C      1  0.4892100000000  0.4132550000000  0.4959180000000 1.0
C      1  0.5148110000000  0.5869800000000  0.5046610000000 1.0
C      1  0.4531390000000  0.5087860000000  0.4508560000000 1.0
C      1  0.5349400000000  0.4999680000000  0.4469900000000 1.0
C      1  0.4623990000000  0.4916070000000  0.5521120000000 1.0
C      1  0.5541650000000  0.5119280000000  0.5455660000000 1.0
C      1  0.5393030000000  0.5450350000000  0.4306910000000 1.0
C      1  0.4605600000000  0.4679680000000  0.4306410000000 1.0
C      1  0.5285220000000  0.5746150000000  0.4354480000000 1.0
C      1  0.4555370000000  0.4392850000000  0.4396860000000 1.0
C      1  0.4445840000000  0.5600570000000  0.5295750000000 1.0
C      1  0.5561050000000  0.4441220000000  0.5275850000000 1.0
C      1  0.5812130000000  0.4749450000000  0.5629700000000 1.0
C      1  0.4238730000000  0.5213700000000  0.5658690000000 1.0
C      1  0.4649910000000  0.5468300000000  0.4129520000000 1.0
C      1  0.5305380000000  0.4456150000000  0.4153810000000 1.0
C      1  0.4313720000000  0.4235870000000  0.4975840000000 1.0
C      1  0.5659230000000  0.5691790000000  0.4965230000000 1.0
C      1  0.4271390000000  0.4590440000000  0.5512420000000 1.0
C      1  0.5928030000000  0.5315970000000  0.5531970000000 1.0
C      1  0.5291270000000  0.5255050000000  0.6096320000000 1.0
C      1  0.4699850000000  0.4801550000000  0.6110160000000 1.0
C      1  0.4474840000000  0.4329180000000  0.5450050000000 1.0
C      1  0.5568190000000  0.5609860000000  0.5426320000000 1.0
C      1  0.5093770000000  0.5138300000000  0.5924730000000 1.0
C      1  0.4903440000000  0.4912080000000  0.5940370000000 1.0
C      1  0.4331040000000  0.5027270000000  0.4018950000000 1.0
C      1  0.5611080000000  0.4980770000000  0.4246660000000 1.0
C      1  0.4661300000000  0.4637940000000  0.4720840000000 1.0
C      1  0.5302290000000  0.5416450000000  0.4734310000000 1.0
C      1  0.4681900000000  0.6101660000000  0.4962840000000 1.0
C      1  0.5273880000000  0.3903990000000  0.5022170000000 1.0
C      1  0.4850630000000  0.4616980000000  0.4000180000000 1.0
C      1  0.5135960000000  0.5363620000000  0.4013410000000 1.0
C      1  0.4987350000000  0.4408570000000  0.4131360000000 1.0
C      1  0.4945340000000  0.5557510000000  0.4087470000000 1.0
C      1  0.5273520000000  0.3991810000000  0.5292170000000 1.0
C      1  0.4664560000000  0.6035910000000  0.5239960000000 1.0
C      1  0.4680990000000  0.4595830000000  0.5516660000000 1.0
C      1  0.5382800000000  0.5371840000000  0.5556260000000 1.0
C      1  0.4660670000000  0.5430050000000  0.5602600000000 1.0
C      1  0.5380680000000  0.4546180000000  0.5686240000000 1.0
C      1  0.4560680000000  0.4796130000000  0.3986110000000 1.0
C      1  0.5424820000000  0.5198000000000  0.4090230000000 1.0
C      1  0.5112250000000  0.5292620000000  0.4405480000000 1.0
C      1  0.4880430000000  0.4768740000000  0.4413150000000 1.0
C      1  0.5213870000000  0.4569830000000  0.4489380000000 1.0
C      1  0.4752680000000  0.5392670000000  0.4542640000000 1.0
C      1  0.4870870000000  0.5256840000000  0.5514540000000 1.0
C      1  0.5181480000000  0.4739650000000  0.5602970000000 1.0
C      1  0.5407270000000  0.4407920000000  0.4835350000000 1.0
C      1  0.4575710000000  0.5719660000000  0.4914100000000 1.0
C      1  0.5152250000000  0.4830050000000  0.5294630000000 1.0
C      1  0.4869850000000  0.5011020000000  0.5303140000000 1.0
C      1  0.4706290000000  0.4942320000000  0.4731500000000 1.0
C      1  0.5232850000000  0.5122820000000  0.4745000000000 1.0
C      1  0.4155590000000  0.4643000000000  0.4979950000000 1.0
C      1  0.5840480000000  0.5302780000000  0.5046340000000 1.0
C      1  0.4271440000000  0.5383610000000  0.4493210000000 1.0
C      1  0.5745280000000  0.4520690000000  0.4513810000000 1.0
C      1  0.4155070000000  0.5180520000000  0.4658010000000 1.0
C      1  0.5890510000000  0.4758910000000  0.4685130000000 1.0
C      1  0.5154540000000  0.5025350000000  0.4038720000000 1.0
C      1  0.4843280000000  0.4953840000000  0.4060990000000 1.0
C      1  0.4582420000000  0.4031880000000  0.5361960000000 1.0
C      1  0.5502460000000  0.5938830000000  0.5382960000000 1.0
C      1  0.6232350000000  0.4711430000000  0.5287150000000 1.0
C      1  0.3749330000000  0.4965940000000  0.5100470000000 1.0
C      1  0.4738390000000  0.3756770000000  0.5236160000000 1.0
C      1  0.5367630000000  0.6228980000000  0.5265430000000 1.0
C      1  0.4890130000000  0.3803540000000  0.5010570000000 1.0
C      1  0.5166740000000  0.6198470000000  0.5071210000000 1.0
C      1  0.5668860000000  0.5266340000000  0.4398540000000 1.0
C      1  0.4354010000000  0.4880670000000  0.4314460000000 1.0
C      1  0.4968810000000  0.5034140000000  0.4575700000000 1.0
END
