TITL C-2782229-3092-1186 -0.00165569896236042 125000 -653.312196612826 0 0 113 (C1) n - 1
REM
REM in /home/nfs/bkarasulu/CARBON/AIRSS/Generating-Clusters/REBO/Higher-Symm/SD-CG/HFTN-CG
REM
REM
REM
REM
REM
REM ./C.cell (12c818d87b63d06a65506943cc24bca4)
REM
REM compiler GCC version 9.2.1 20190827 (Red Hat 9.2.1-1)
REM options -cpp -mtune=generic -march=x86-64 -g -O0 -fpre-include=/usr/include/finclude/math-vector-fortran.h
REM seed 310991034 -1573987740 -837635246 -1574510553 -1298665451 536454299 -799396704 1100853160 -426731433 -663315783 1059118086 -66886459 1328822128 -1534486187 520264117 725196386 203297983 -623927783 -1778480676 -1301075567 -724451516 865097716 1976132572 -1048474475 -1167907848 608013179 2116573124 218149646 -241257139 -401661702 1802523359 193806077 879727817
REM
CELL 1.54180   50.00000   50.00000   50.00000   90.00000   90.00000   90.00000
LATT -1
SFAC C  
C      1  0.4966310000000  0.5853510000000  0.4702990000000 1.0
C      1  0.5020880000000  0.5828940000000  0.5317240000000 1.0
C      1  0.5785290000000  0.4587860000000  0.5412980000000 1.0
C      1  0.5776990000000  0.4657120000000  0.4655150000000 1.0
C      1  0.5777060000000  0.5126150000000  0.5424600000000 1.0
C      1  0.5776250000000  0.5208880000000  0.4538070000000 1.0
C      1  0.5229160000000  0.5484260000000  0.4443980000000 1.0
C      1  0.5298890000000  0.5485100000000  0.5515190000000 1.0
C      1  0.5325860000000  0.4811490000000  0.5116240000000 1.0
C      1  0.5422420000000  0.4796130000000  0.4833610000000 1.0
C      1  0.5535330000000  0.5013880000000  0.4285560000000 1.0
C      1  0.5527640000000  0.5014830000000  0.5716790000000 1.0
C      1  0.5030250000000  0.4656650000000  0.4539760000000 1.0
C      1  0.5008740000000  0.4700160000000  0.5439480000000 1.0
C      1  0.5246900000000  0.4188920000000  0.5557250000000 1.0
C      1  0.5286690000000  0.4184240000000  0.4472770000000 1.0
C      1  0.5139030000000  0.4353180000000  0.4802730000000 1.0
C      1  0.5084280000000  0.4351290000000  0.5112400000000 1.0
C      1  0.5892180000000  0.5316970000000  0.5170950000000 1.0
C      1  0.5873490000000  0.5352030000000  0.4833120000000 1.0
C      1  0.4457850000000  0.5790230000000  0.4825710000000 1.0
C      1  0.4546560000000  0.5736480000000  0.5147640000000 1.0
C      1  0.4989470000000  0.4778460000000  0.5830860000000 1.0
C      1  0.4980460000000  0.4766560000000  0.4160160000000 1.0
C      1  0.4450270000000  0.4955840000000  0.4390260000000 1.0
C      1  0.4459540000000  0.4946160000000  0.5595930000000 1.0
C      1  0.4685460000000  0.5116810000000  0.5456520000000 1.0
C      1  0.4667880000000  0.5100490000000  0.4562520000000 1.0
C      1  0.4556440000000  0.4498590000000  0.5218630000000 1.0
C      1  0.4629370000000  0.4496480000000  0.4880760000000 1.0
C      1  0.4330080000000  0.4824820000000  0.5237740000000 1.0
C      1  0.4334070000000  0.4816890000000  0.4745880000000 1.0
C      1  0.5236700000000  0.5156600000000  0.5475200000000 1.0
C      1  0.5212370000000  0.5145530000000  0.4481070000000 1.0
C      1  0.4731330000000  0.5237400000000  0.5838810000000 1.0
C      1  0.4763800000000  0.5232410000000  0.4187000000000 1.0
C      1  0.4561320000000  0.5028310000000  0.4877470000000 1.0
C      1  0.4555120000000  0.5025570000000  0.5154900000000 1.0
C      1  0.4255420000000  0.5147690000000  0.4536510000000 1.0
C      1  0.4259570000000  0.5144300000000  0.5466970000000 1.0
C      1  0.5429780000000  0.5083970000000  0.4688810000000 1.0
C      1  0.5420680000000  0.5080860000000  0.5253630000000 1.0
C      1  0.4947110000000  0.5630170000000  0.4469570000000 1.0
C      1  0.4985590000000  0.5609530000000  0.5561200000000 1.0
C      1  0.4323720000000  0.4653780000000  0.4444770000000 1.0
C      1  0.4361320000000  0.4632900000000  0.5518400000000 1.0
C      1  0.4613110000000  0.4678710000000  0.5739930000000 1.0
C      1  0.4599890000000  0.4684370000000  0.4249240000000 1.0
C      1  0.5080340000000  0.5582220000000  0.4856730000000 1.0
C      1  0.5032540000000  0.5531040000000  0.5167940000000 1.0
C      1  0.4987150000000  0.5402900000000  0.5828270000000 1.0
C      1  0.4940680000000  0.5472020000000  0.4168180000000 1.0
C      1  0.5534380000000  0.5380950000000  0.4805380000000 1.0
C      1  0.5567360000000  0.5355040000000  0.5117150000000 1.0
C      1  0.5569830000000  0.5309680000000  0.5623260000000 1.0
C      1  0.5534200000000  0.5348670000000  0.4364800000000 1.0
C      1  0.4024770000000  0.4699990000000  0.4525310000000 1.0
C      1  0.4047970000000  0.4677550000000  0.5474850000000 1.0
C      1  0.4743910000000  0.4962380000000  0.5875480000000 1.0
C      1  0.4754350000000  0.4965560000000  0.4133130000000 1.0
C      1  0.5581560000000  0.4633750000000  0.4397470000000 1.0
C      1  0.5555590000000  0.4602610000000  0.5646530000000 1.0
C      1  0.4970880000000  0.4964220000000  0.4525240000000 1.0
C      1  0.4972040000000  0.4999040000000  0.5499600000000 1.0
C      1  0.5237030000000  0.4884520000000  0.4179600000000 1.0
C      1  0.5238960000000  0.4918220000000  0.5796240000000 1.0
C      1  0.4820400000000  0.4246040000000  0.4831780000000 1.0
C      1  0.4771050000000  0.4260770000000  0.5169700000000 1.0
C      1  0.5297260000000  0.4508170000000  0.4425540000000 1.0
C      1  0.5277840000000  0.4527570000000  0.5558700000000 1.0
C      1  0.5402890000000  0.4514310000000  0.4734050000000 1.0
C      1  0.5313510000000  0.4536290000000  0.5239480000000 1.0
C      1  0.5767650000000  0.4532410000000  0.4896420000000 1.0
C      1  0.5779640000000  0.4665680000000  0.5144610000000 1.0
C      1  0.4120830000000  0.5259310000000  0.4837210000000 1.0
C      1  0.4133080000000  0.5233440000000  0.5161160000000 1.0
C      1  0.4875810000000  0.5347140000000  0.4851080000000 1.0
C      1  0.4936350000000  0.5232510000000  0.5179040000000 1.0
C      1  0.5294700000000  0.5219050000000  0.4155600000000 1.0
C      1  0.5208060000000  0.5231270000000  0.5807140000000 1.0
C      1  0.5467870000000  0.4253940000000  0.5166730000000 1.0
C      1  0.5583450000000  0.4280300000000  0.4893970000000 1.0
C      1  0.4199600000000  0.5586920000000  0.4789090000000 1.0
C      1  0.4275210000000  0.5535340000000  0.5106120000000 1.0
C      1  0.4650420000000  0.5412930000000  0.5169760000000 1.0
C      1  0.4577960000000  0.5472170000000  0.4849290000000 1.0
C      1  0.5714560000000  0.4961950000000  0.5127520000000 1.0
C      1  0.5736540000000  0.5042630000000  0.4840100000000 1.0
C      1  0.4690690000000  0.5414600000000  0.4470080000000 1.0
C      1  0.4692280000000  0.5436660000000  0.5564950000000 1.0
C      1  0.4733160000000  0.5954600000000  0.4871120000000 1.0
C      1  0.4777780000000  0.5949640000000  0.5188380000000 1.0
C      1  0.4971740000000  0.4301920000000  0.5436780000000 1.0
C      1  0.4962720000000  0.4264060000000  0.4523270000000 1.0
C      1  0.5427680000000  0.5589970000000  0.5253340000000 1.0
C      1  0.5423900000000  0.5611420000000  0.4657050000000 1.0
C      1  0.5301440000000  0.5822210000000  0.5143670000000 1.0
C      1  0.5284900000000  0.5848340000000  0.4824710000000 1.0
C      1  0.4956990000000  0.5048430000000  0.4829540000000 1.0
C      1  0.5040080000000  0.4930820000000  0.5114900000000 1.0
C      1  0.4871320000000  0.4716960000000  0.4825580000000 1.0
C      1  0.4846720000000  0.4668020000000  0.5165380000000 1.0
C      1  0.4872640000000  0.4504350000000  0.5666810000000 1.0
C      1  0.4851870000000  0.4492780000000  0.4318950000000 1.0
C      1  0.4389100000000  0.5414870000000  0.4584870000000 1.0
C      1  0.4408270000000  0.5406790000000  0.5392710000000 1.0
C      1  0.4024550000000  0.4951990000000  0.5319020000000 1.0
C      1  0.4029390000000  0.4964090000000  0.4694500000000 1.0
C      1  0.5793340000000  0.4897570000000  0.4431830000000 1.0
C      1  0.5784250000000  0.4848860000000  0.5616480000000 1.0
C      1  0.5420460000000  0.4078590000000  0.5372220000000 1.0
C      1  0.5476130000000  0.4091950000000  0.4654510000000 1.0
C      1  0.4337550000000  0.4622740000000  0.4989180000000 1.0
END
