TITL C-2782235-7892-1331 0.00537183032729892 125000 -1061.3193426081 0 0 180 (C1) n - 1
REM
REM in /home/nfs/bkarasulu/CARBON/AIRSS/Generating-Clusters/REBO/Higher-Symm/SD-CG/HFTN-CG
REM
REM
REM
REM
REM
REM ./C.cell (12c818d87b63d06a65506943cc24bca4)
REM
REM compiler GCC version 9.2.1 20190827 (Red Hat 9.2.1-1)
REM options -cpp -mtune=generic -march=x86-64 -g -O0 -fpre-include=/usr/include/finclude/math-vector-fortran.h
REM seed -708478250 -379440372 -2037102915 -1521763491 2024016461 1461391124 -694359273 -156494748 -167493976 677701495 363304113 -1225750051 607351446 -966990573 -2143040987 256533140 -75405536 -355528724 700918385 952558039 -1773367678 1626934638 1318033167 -601852729 886853038 551702327 1064453001 -1836131837 586657813 -832061685 -2057787382 -475720303 157343173
REM
CELL 1.54180   50.00000   50.00000   50.00000   90.00000   90.00000   90.00000
LATT -1
SFAC C  
C      1  0.4164080000000  0.4622600000000  0.5164230000000 1.0
C      1  0.4305750000000  0.4989590000000  0.4612270000000 1.0
C      1  0.4257460000000  0.5297520000000  0.5206970000000 1.0
C      1  0.5847930000000  0.4798620000000  0.5633540000000 1.0
C      1  0.5907500000000  0.4503590000000  0.4506580000000 1.0
C      1  0.5924410000000  0.5722460000000  0.4854810000000 1.0
C      1  0.4201050000000  0.4805990000000  0.4172550000000 1.0
C      1  0.4256260000000  0.5768820000000  0.5187010000000 1.0
C      1  0.4197060000000  0.4444090000000  0.5586370000000 1.0
C      1  0.4855770000000  0.3901630000000  0.5191670000000 1.0
C      1  0.4832070000000  0.5320360000000  0.3928470000000 1.0
C      1  0.4822980000000  0.5754720000000  0.5902130000000 1.0
C      1  0.5907600000000  0.5301790000000  0.4212260000000 1.0
C      1  0.5933970000000  0.5523050000000  0.5334980000000 1.0
C      1  0.5839570000000  0.4208530000000  0.5575080000000 1.0
C      1  0.5674740000000  0.4390540000000  0.4867650000000 1.0
C      1  0.5470620000000  0.5351240000000  0.4595490000000 1.0
C      1  0.5478410000000  0.5081830000000  0.5308780000000 1.0
C      1  0.5204950000000  0.4265970000000  0.5472330000000 1.0
C      1  0.5244580000000  0.4908770000000  0.4065420000000 1.0
C      1  0.5254870000000  0.5632320000000  0.5396820000000 1.0
C      1  0.4481060000000  0.4336730000000  0.4867130000000 1.0
C      1  0.4438270000000  0.5484840000000  0.4455330000000 1.0
C      1  0.4498280000000  0.5219310000000  0.5634420000000 1.0
C      1  0.4986110000000  0.5379980000000  0.5734860000000 1.0
C      1  0.4835320000000  0.4384520000000  0.5028950000000 1.0
C      1  0.4882260000000  0.5306730000000  0.4507630000000 1.0
C      1  0.5168200000000  0.5253810000000  0.5489000000000 1.0
C      1  0.5201610000000  0.4505680000000  0.5125910000000 1.0
C      1  0.5154870000000  0.5121040000000  0.4517290000000 1.0
C      1  0.5631750000000  0.4332770000000  0.4550070000000 1.0
C      1  0.5781640000000  0.5883100000000  0.4668310000000 1.0
C      1  0.5662720000000  0.4921810000000  0.5813870000000 1.0
C      1  0.4595880000000  0.6149870000000  0.4853900000000 1.0
C      1  0.4495480000000  0.4598910000000  0.6089680000000 1.0
C      1  0.4564670000000  0.4263180000000  0.4132560000000 1.0
C      1  0.4466660000000  0.4500120000000  0.5155320000000 1.0
C      1  0.4622530000000  0.4892960000000  0.4531610000000 1.0
C      1  0.4526260000000  0.5382680000000  0.5372480000000 1.0
C      1  0.5021910000000  0.4496720000000  0.5876030000000 1.0
C      1  0.5052460000000  0.4430670000000  0.4062800000000 1.0
C      1  0.5109720000000  0.5987550000000  0.5055560000000 1.0
C      1  0.4320210000000  0.4952080000000  0.5753910000000 1.0
C      1  0.4401000000000  0.4399170000000  0.4564090000000 1.0
C      1  0.4415370000000  0.5733010000000  0.4674120000000 1.0
C      1  0.6044630000000  0.5444860000000  0.4810710000000 1.0
C      1  0.6010670000000  0.4911920000000  0.5427190000000 1.0
C      1  0.6069700000000  0.4684720000000  0.4665040000000 1.0
C      1  0.5021430000000  0.5097910000000  0.4815290000000 1.0
C      1  0.5082720000000  0.5031670000000  0.5281170000000 1.0
C      1  0.5018020000000  0.4783530000000  0.5057500000000 1.0
C      1  0.4797200000000  0.5960780000000  0.5008120000000 1.0
C      1  0.4711450000000  0.4497980000000  0.5864400000000 1.0
C      1  0.4762980000000  0.4507450000000  0.4169720000000 1.0
C      1  0.5438280000000  0.5212550000000  0.5060160000000 1.0
C      1  0.5511060000000  0.4594100000000  0.5031390000000 1.0
C      1  0.5400860000000  0.5036710000000  0.4705860000000 1.0
C      1  0.4924900000000  0.5568930000000  0.5454590000000 1.0
C      1  0.4902530000000  0.4350610000000  0.5338460000000 1.0
C      1  0.4814030000000  0.5039600000000  0.4328480000000 1.0
C      1  0.5082830000000  0.4848540000000  0.6235490000000 1.0
C      1  0.4909870000000  0.4092250000000  0.4235010000000 1.0
C      1  0.4828990000000  0.6063910000000  0.4541660000000 1.0
C      1  0.4835780000000  0.4079880000000  0.5703600000000 1.0
C      1  0.4939820000000  0.4877610000000  0.3905600000000 1.0
C      1  0.4912610000000  0.5968070000000  0.5477580000000 1.0
C      1  0.3991350000000  0.5117020000000  0.5115260000000 1.0
C      1  0.3987010000000  0.4816720000000  0.4976620000000 1.0
C      1  0.3959680000000  0.5086710000000  0.4786140000000 1.0
C      1  0.4196800000000  0.5531190000000  0.4770600000000 1.0
C      1  0.4088470000000  0.4915250000000  0.5571060000000 1.0
C      1  0.4135090000000  0.4534890000000  0.4589490000000 1.0
C      1  0.4742810000000  0.5060210000000  0.4789110000000 1.0
C      1  0.4815340000000  0.5237390000000  0.5262900000000 1.0
C      1  0.4686080000000  0.4748540000000  0.5079050000000 1.0
C      1  0.6011140000000  0.4750210000000  0.5169790000000 1.0
C      1  0.6034690000000  0.4960460000000  0.4624560000000 1.0
C      1  0.6010400000000  0.5254350000000  0.5054570000000 1.0
C      1  0.5323260000000  0.6044260000000  0.4887050000000 1.0
C      1  0.5218850000000  0.4654110000000  0.6078080000000 1.0
C      1  0.5250560000000  0.4299730000000  0.4212500000000 1.0
C      1  0.5184970000000  0.5289690000000  0.4958070000000 1.0
C      1  0.5332840000000  0.4804950000000  0.5356370000000 1.0
C      1  0.5288880000000  0.4776550000000  0.4848470000000 1.0
C      1  0.5156720000000  0.5918160000000  0.5334360000000 1.0
C      1  0.5086070000000  0.4221190000000  0.5738060000000 1.0
C      1  0.5151450000000  0.4642500000000  0.3896680000000 1.0
C      1  0.4808010000000  0.5737320000000  0.4184360000000 1.0
C      1  0.4809490000000  0.5295540000000  0.6162790000000 1.0
C      1  0.4859180000000  0.3926280000000  0.4698220000000 1.0
C      1  0.5367360000000  0.5468820000000  0.5653440000000 1.0
C      1  0.5189200000000  0.4238010000000  0.4927420000000 1.0
C      1  0.5303100000000  0.5558860000000  0.4492170000000 1.0
C      1  0.4034790000000  0.4498690000000  0.4878600000000 1.0
C      1  0.4134700000000  0.5276900000000  0.4609020000000 1.0
C      1  0.4042340000000  0.5182320000000  0.5437500000000 1.0
C      1  0.5587990000000  0.4188140000000  0.5411180000000 1.0
C      1  0.5637880000000  0.5344010000000  0.4030690000000 1.0
C      1  0.5862400000000  0.5652690000000  0.5562790000000 1.0
C      1  0.4427080000000  0.4103890000000  0.5186440000000 1.0
C      1  0.4424540000000  0.5291230000000  0.4169700000000 1.0
C      1  0.4428860000000  0.5607490000000  0.5691240000000 1.0
C      1  0.5207290000000  0.4641260000000  0.4560140000000 1.0
C      1  0.5074020000000  0.5558290000000  0.4907290000000 1.0
C      1  0.5141310000000  0.4773650000000  0.5707900000000 1.0
C      1  0.4414670000000  0.4199780000000  0.4326130000000 1.0
C      1  0.4420880000000  0.6044000000000  0.4703340000000 1.0
C      1  0.4337970000000  0.4790890000000  0.6039220000000 1.0
C      1  0.5667540000000  0.5596320000000  0.5732710000000 1.0
C      1  0.5548270000000  0.4025880000000  0.5189280000000 1.0
C      1  0.5471490000000  0.5584390000000  0.4036390000000 1.0
C      1  0.5076120000000  0.5653170000000  0.4631620000000 1.0
C      1  0.4991960000000  0.5041090000000  0.5778160000000 1.0
C      1  0.5070430000000  0.4361730000000  0.4659710000000 1.0
C      1  0.6025220000000  0.5278960000000  0.4531150000000 1.0
C      1  0.5972650000000  0.5200960000000  0.5368400000000 1.0
C      1  0.6094580000000  0.4590390000000  0.4941990000000 1.0
C      1  0.5538360000000  0.5514670000000  0.5301100000000 1.0
C      1  0.5433460000000  0.4492590000000  0.5447340000000 1.0
C      1  0.5489870000000  0.5066280000000  0.4097280000000 1.0
C      1  0.5747000000000  0.4524500000000  0.5547660000000 1.0
C      1  0.5699090000000  0.5088760000000  0.4327300000000 1.0
C      1  0.5753760000000  0.5556230000000  0.5061070000000 1.0
C      1  0.4144380000000  0.4215430000000  0.5031950000000 1.0
C      1  0.4140140000000  0.5403860000000  0.4309840000000 1.0
C      1  0.4153720000000  0.5418260000000  0.5632620000000 1.0
C      1  0.5730160000000  0.4664830000000  0.5246970000000 1.0
C      1  0.5722010000000  0.5047090000000  0.4644610000000 1.0
C      1  0.5705310000000  0.5255480000000  0.4903650000000 1.0
C      1  0.4695520000000  0.4770820000000  0.4006930000000 1.0
C      1  0.4696800000000  0.5907530000000  0.5302400000000 1.0
C      1  0.4626330000000  0.4272670000000  0.5669980000000 1.0
C      1  0.5634750000000  0.5200630000000  0.5777270000000 1.0
C      1  0.5583870000000  0.4044710000000  0.4693560000000 1.0
C      1  0.5730260000000  0.5711530000000  0.4442240000000 1.0
C      1  0.5470620000000  0.5713920000000  0.4296040000000 1.0
C      1  0.5483710000000  0.5430720000000  0.5962770000000 1.0
C      1  0.5447200000000  0.4059020000000  0.4931460000000 1.0
C      1  0.5268060000000  0.5526360000000  0.6152650000000 1.0
C      1  0.5239030000000  0.3718210000000  0.4941100000000 1.0
C      1  0.5221550000000  0.5604230000000  0.3907740000000 1.0
C      1  0.4537170000000  0.5323700000000  0.6147390000000 1.0
C      1  0.4595970000000  0.3856160000000  0.4732090000000 1.0
C      1  0.4529050000000  0.5782050000000  0.4114730000000 1.0
C      1  0.4837410000000  0.5551140000000  0.5131720000000 1.0
C      1  0.5059460000000  0.4628130000000  0.5419570000000 1.0
C      1  0.5103640000000  0.4868310000000  0.4341340000000 1.0
C      1  0.4414030000000  0.4879420000000  0.4915230000000 1.0
C      1  0.4464440000000  0.5221170000000  0.4894980000000 1.0
C      1  0.4587550000000  0.5053160000000  0.5156310000000 1.0
C      1  0.4948700000000  0.5054340000000  0.6096770000000 1.0
C      1  0.4944410000000  0.4116420000000  0.4506380000000 1.0
C      1  0.4898690000000  0.5813830000000  0.4456350000000 1.0
C      1  0.4422870000000  0.4835920000000  0.4015900000000 1.0
C      1  0.4503470000000  0.5709170000000  0.5315790000000 1.0
C      1  0.4452260000000  0.4375050000000  0.5472790000000 1.0
C      1  0.4708870000000  0.5005040000000  0.5681550000000 1.0
C      1  0.4765420000000  0.4428090000000  0.4724000000000 1.0
C      1  0.4714900000000  0.5486440000000  0.4593990000000 1.0
C      1  0.4954550000000  0.5569640000000  0.3991530000000 1.0
C      1  0.4982020000000  0.5518710000000  0.6034860000000 1.0
C      1  0.5048520000000  0.3927870000000  0.4947200000000 1.0
C      1  0.4158100000000  0.5544000000000  0.5047260000000 1.0
C      1  0.4075120000000  0.4659590000000  0.5450650000000 1.0
C      1  0.4145160000000  0.4784920000000  0.4449470000000 1.0
C      1  0.4694770000000  0.4108890000000  0.5281570000000 1.0
C      1  0.4676080000000  0.5166920000000  0.4090460000000 1.0
C      1  0.4698330000000  0.5686770000000  0.5664150000000 1.0
C      1  0.5382020000000  0.4420330000000  0.4416880000000 1.0
C      1  0.5563420000000  0.6036830000000  0.4763670000000 1.0
C      1  0.5432990000000  0.4768530000000  0.5885820000000 1.0
C      1  0.5666840000000  0.5266070000000  0.5483170000000 1.0
C      1  0.5934730000000  0.4348880000000  0.4951720000000 1.0
C      1  0.5738160000000  0.5433440000000  0.4546100000000 1.0
C      1  0.4593120000000  0.4752460000000  0.5734420000000 1.0
C      1  0.4654220000000  0.4593990000000  0.4474300000000 1.0
C      1  0.4703180000000  0.5688380000000  0.4849740000000 1.0
C      1  0.4379330000000  0.4023780000000  0.4869190000000 1.0
C      1  0.4320160000000  0.5605450000000  0.4096800000000 1.0
C      1  0.4355940000000  0.5358790000000  0.5903590000000 1.0
END
