TITL C-2782225-7408-1343 -0.00160410168196412 125000 -311.109024798257 0 0 52 (C3) n - 1
REM
REM in /home/nfs/bkarasulu/CARBON/AIRSS/Generating-Clusters/REBO/Higher-Symm/SD-CG/HFTN-CG
REM
REM
REM
REM
REM
REM ./C.cell (12c818d87b63d06a65506943cc24bca4)
REM
REM compiler GCC version 9.2.1 20190827 (Red Hat 9.2.1-1)
REM options -cpp -mtune=generic -march=x86-64 -g -O0 -fpre-include=/usr/include/finclude/math-vector-fortran.h
REM seed 1585349949 1402715927 -59713958 -347399512 -47774588 276187168 1330740627 1560189529 1995546078 -1894956057 116441224 -523749979 242136006 -1979561131 1926730182 -1102081395 1812775186 -310827739 -955458761 -329890749 359507467 196660183 -1717490759 -2031256519 1646614204 1113128167 942020515 970823583 -325694697 982999867 1531211007 -728036088 301747858
REM
CELL 1.54180   50.00000   50.00000   50.00000   90.00000   90.00000   90.00000
LATT -1
SFAC C  
C      1  0.5289450000000  0.4992900000000  0.5574480000000 1.0
C      1  0.5289330000000  0.4500700000000  0.4713410000000 1.0
C      1  0.5289520000000  0.5492500000000  0.4717690000000 1.0
C      1  0.5281980000000  0.5006410000000  0.4429790000000 1.0
C      1  0.5281910000000  0.4494420000000  0.5278330000000 1.0
C      1  0.5282100000000  0.5485280000000  0.5297460000000 1.0
C      1  0.5513270000000  0.4695770000000  0.5170580000000 1.0
C      1  0.5513310000000  0.4998980000000  0.4658070000000 1.0
C      1  0.5513380000000  0.5291220000000  0.5176910000000 1.0
C      1  0.5515450000000  0.4700370000000  0.4826790000000 1.0
C      1  0.5515520000000  0.4991190000000  0.5344820000000 1.0
C      1  0.5515560000000  0.5294410000000  0.4833940000000 1.0
C      1  0.5053350000000  0.4792600000000  0.5629060000000 1.0
C      1  0.5053260000000  0.4553660000000  0.4512640000000 1.0
C      1  0.5053490000000  0.5639980000000  0.4863910000000 1.0
C      1  0.5044380000000  0.4802970000000  0.4378340000000 1.0
C      1  0.5044370000000  0.4551650000000  0.5480300000000 1.0
C      1  0.5044570000000  0.5631630000000  0.5146970000000 1.0
C      1  0.4797140000000  0.4907040000000  0.5645940000000 1.0
C      1  0.4797020000000  0.4481890000000  0.4603270000000 1.0
C      1  0.4797240000000  0.5597450000000  0.4756420000000 1.0
C      1  0.4784620000000  0.4908720000000  0.4391390000000 1.0
C      1  0.4784580000000  0.4510140000000  0.5382250000000 1.0
C      1  0.4784780000000  0.5567540000000  0.5232000000000 1.0
C      1  0.4399720000000  0.5026150000000  0.5325540000000 1.0
C      1  0.4399640000000  0.4699940000000  0.4866580000000 1.0
C      1  0.4399750000000  0.5260520000000  0.4813560000000 1.0
C      1  0.4363310000000  0.4972530000000  0.4686100000000 1.0
C      1  0.4363290000000  0.4733570000000  0.5179730000000 1.0
C      1  0.4363390000000  0.5280540000000  0.5139860000000 1.0
C      1  0.5112010000000  0.5238370000000  0.5148100000000 1.0
C      1  0.5111920000000  0.4747280000000  0.5139170000000 1.0
C      1  0.5111950000000  0.5000560000000  0.4718330000000 1.0
C      1  0.5113550000000  0.5244890000000  0.4863230000000 1.0
C      1  0.5113450000000  0.4750590000000  0.4855120000000 1.0
C      1  0.5113510000000  0.4990720000000  0.5287250000000 1.0
C      1  0.4604180000000  0.4502160000000  0.5145760000000 1.0
C      1  0.4604270000000  0.5117570000000  0.4502700000000 1.0
C      1  0.4604350000000  0.5366770000000  0.5357200000000 1.0
C      1  0.4637770000000  0.4456970000000  0.4851190000000 1.0
C      1  0.4637930000000  0.5134250000000  0.5543610000000 1.0
C      1  0.4637940000000  0.5395260000000  0.4610860000000 1.0
C      1  0.5284250000000  0.5479380000000  0.5604450000000 1.0
C      1  0.5283990000000  0.4231510000000  0.5119730000000 1.0
C      1  0.5284160000000  0.5275220000000  0.4281400000000 1.0
C      1  0.5289600000000  0.5492220000000  0.4410290000000 1.0
C      1  0.5289380000000  0.4234630000000  0.4867360000000 1.0
C      1  0.5289610000000  0.5259250000000  0.5727930000000 1.0
C      1  0.4566150000000  0.5507670000000  0.4985790000000 1.0
C      1  0.4566020000000  0.4753370000000  0.5453480000000 1.0
C      1  0.4565990000000  0.4725480000000  0.4566390000000 1.0
C      1  0.5392330000000  0.4995350000000  0.5001860000000 1.0
END
