TITL C-2782226-7400-1448 -0.000409268713958719 125000 -399.406380612035 0 0 66 (C1) n - 1
REM
REM in /home/nfs/bkarasulu/CARBON/AIRSS/Generating-Clusters/REBO/Higher-Symm/SD-CG/HFTN-CG
REM
REM
REM
REM
REM
REM ./C.cell (12c818d87b63d06a65506943cc24bca4)
REM
REM compiler GCC version 9.2.1 20190827 (Red Hat 9.2.1-1)
REM options -cpp -mtune=generic -march=x86-64 -g -O0 -fpre-include=/usr/include/finclude/math-vector-fortran.h
REM seed -1046952274 -1779907071 -1890879332 749492729 1791883595 122483489 341714213 -601169043 -567296668 -527304067 1146325999 -1385832538 -1107089738 -181753728 1583652620 -1608403921 547668676 -1042074159 26474951 535155765 1204434574 -1372052131 563315661 1934897365 1788013028 -710412388 1434147214 -435344502 1483117731 -1433068362 -1736048093 -1040803958 -1344134415
REM
CELL 1.54180   50.00000   50.00000   50.00000   90.00000   90.00000   90.00000
LATT -1
SFAC C  
C      1  0.5630020000000  0.5311380000000  0.4417270000000 1.0
C      1  0.5589120000000  0.4695020000000  0.5613180000000 1.0
C      1  0.4387020000000  0.5315710000000  0.5595880000000 1.0
C      1  0.4416700000000  0.4691240000000  0.4397180000000 1.0
C      1  0.5206790000000  0.4456710000000  0.5212660000000 1.0
C      1  0.4793420000000  0.5511880000000  0.5180950000000 1.0
C      1  0.4821020000000  0.4475230000000  0.4802380000000 1.0
C      1  0.5231720000000  0.5539750000000  0.4813880000000 1.0
C      1  0.4182050000000  0.4798990000000  0.4493480000000 1.0
C      1  0.5531130000000  0.5204680000000  0.4193380000000 1.0
C      1  0.5817550000000  0.4799230000000  0.5523280000000 1.0
C      1  0.4488740000000  0.5208160000000  0.5828500000000 1.0
C      1  0.4984370000000  0.5089500000000  0.5892700000000 1.0
C      1  0.4083140000000  0.4917590000000  0.4984470000000 1.0
C      1  0.5035900000000  0.5086020000000  0.4117850000000 1.0
C      1  0.5920850000000  0.4918740000000  0.5033770000000 1.0
C      1  0.5072390000000  0.4985780000000  0.5188690000000 1.0
C      1  0.4768540000000  0.5002600000000  0.5082180000000 1.0
C      1  0.4939990000000  0.4984880000000  0.4811380000000 1.0
C      1  0.5241520000000  0.5007170000000  0.4916190000000 1.0
C      1  0.4393210000000  0.5573150000000  0.5167300000000 1.0
C      1  0.4843280000000  0.4430020000000  0.4403590000000 1.0
C      1  0.5627010000000  0.5568260000000  0.4866590000000 1.0
C      1  0.5137840000000  0.4442000000000  0.5606280000000 1.0
C      1  0.4533410000000  0.4808160000000  0.5131590000000 1.0
C      1  0.4879850000000  0.5183360000000  0.4568790000000 1.0
C      1  0.5474970000000  0.4811480000000  0.4869120000000 1.0
C      1  0.5125730000000  0.5183470000000  0.5435830000000 1.0
C      1  0.4562310000000  0.4522110000000  0.5103240000000 1.0
C      1  0.4897830000000  0.5470760000000  0.4574260000000 1.0
C      1  0.5441430000000  0.4526910000000  0.4896480000000 1.0
C      1  0.5104440000000  0.5471110000000  0.5428330000000 1.0
C      1  0.4746220000000  0.4757830000000  0.4377730000000 1.0
C      1  0.5660930000000  0.5251250000000  0.4742760000000 1.0
C      1  0.5265010000000  0.4758290000000  0.5626150000000 1.0
C      1  0.4355280000000  0.5246590000000  0.5267220000000 1.0
C      1  0.4517750000000  0.4401260000000  0.4816460000000 1.0
C      1  0.5172180000000  0.5592040000000  0.4498420000000 1.0
C      1  0.5525000000000  0.4400090000000  0.5166570000000 1.0
C      1  0.4817150000000  0.5591780000000  0.5481970000000 1.0
C      1  0.4051400000000  0.4869140000000  0.4719660000000 1.0
C      1  0.5298990000000  0.5133090000000  0.4074210000000 1.0
C      1  0.5950630000000  0.4870820000000  0.5298880000000 1.0
C      1  0.4723140000000  0.5138230000000  0.5944100000000 1.0
C      1  0.5090610000000  0.4375010000000  0.4524440000000 1.0
C      1  0.5499000000000  0.5624080000000  0.5099200000000 1.0
C      1  0.4896990000000  0.4387290000000  0.5495610000000 1.0
C      1  0.4514250000000  0.5631650000000  0.4920810000000 1.0
C      1  0.5146810000000  0.4724440000000  0.5326490000000 1.0
C      1  0.4652650000000  0.5272430000000  0.5138370000000 1.0
C      1  0.4874730000000  0.4720130000000  0.4674750000000 1.0
C      1  0.5359210000000  0.5274910000000  0.4860910000000 1.0
C      1  0.5497700000000  0.5562370000000  0.4559040000000 1.0
C      1  0.5451630000000  0.4437020000000  0.5487860000000 1.0
C      1  0.4508730000000  0.5560700000000  0.5457120000000 1.0
C      1  0.4549600000000  0.4439030000000  0.4511180000000 1.0
C      1  0.5156370000000  0.5036850000000  0.5678710000000 1.0
C      1  0.4293530000000  0.4962470000000  0.5164220000000 1.0
C      1  0.4854190000000  0.5036410000000  0.4324880000000 1.0
C      1  0.5717020000000  0.4964850000000  0.4846900000000 1.0
C      1  0.5240700000000  0.5607710000000  0.5209350000000 1.0
C      1  0.4784790000000  0.4392100000000  0.5236880000000 1.0
C      1  0.4765260000000  0.5611720000000  0.4795160000000 1.0
C      1  0.5211710000000  0.4394700000000  0.4778330000000 1.0
C      1  0.5005040000000  0.4331660000000  0.5015890000000 1.0
C      1  0.5009280000000  0.5651010000000  0.4995540000000 1.0
END
