TITL C-2782225-7408-147 -0.0935413157770538 125000 -1096.64884857495 0 0 191 (C1) n - 1
REM
REM in /home/nfs/bkarasulu/CARBON/AIRSS/Generating-Clusters/REBO/Higher-Symm/SD-CG/HFTN-CG
REM
REM
REM
REM
REM
REM ./C.cell (12c818d87b63d06a65506943cc24bca4)
REM
REM compiler GCC version 9.2.1 20190827 (Red Hat 9.2.1-1)
REM options -cpp -mtune=generic -march=x86-64 -g -O0 -fpre-include=/usr/include/finclude/math-vector-fortran.h
REM seed 1199711654 -870932886 527674820 1983143233 -687356750 755154207 -1067259302 1657606107 -526341127 -662981892 1722358310 25726121 -582005918 -1886268482 -941958254 1704470676 1791570072 -1995091681 1242220608 674055705 2124082358 -1248825783 -518189933 1236990523 1734465027 208979128 165016444 -1038318957 -1780893810 -266345489 -1402332246 -80791996 967398303
REM
CELL 1.54180   50.00000   50.00000   50.00000   90.00000   90.00000   90.00000
LATT -1
SFAC C  
C      1  0.4545550000000  0.4383990000000  0.5033470000000 1.0
C      1  0.4433180000000  0.5252100000000  0.5562090000000 1.0
C      1  0.4573040000000  0.5266310000000  0.4535900000000 1.0
C      1  0.5492640000000  0.4452470000000  0.5003530000000 1.0
C      1  0.5553190000000  0.5226220000000  0.5519050000000 1.0
C      1  0.5457540000000  0.5366250000000  0.4539550000000 1.0
C      1  0.5323270000000  0.5705860000000  0.4380710000000 1.0
C      1  0.5319420000000  0.3830160000000  0.4881420000000 1.0
C      1  0.5233430000000  0.5291570000000  0.6082720000000 1.0
C      1  0.4596650000000  0.5709650000000  0.4279060000000 1.0
C      1  0.4754670000000  0.3839040000000  0.4885030000000 1.0
C      1  0.4714570000000  0.5383130000000  0.6012690000000 1.0
C      1  0.4475830000000  0.4769440000000  0.4832770000000 1.0
C      1  0.4453530000000  0.4960030000000  0.5272620000000 1.0
C      1  0.4339070000000  0.5205020000000  0.4913410000000 1.0
C      1  0.5543510000000  0.4810220000000  0.4812830000000 1.0
C      1  0.5594770000000  0.4948120000000  0.5260250000000 1.0
C      1  0.5523670000000  0.5256910000000  0.4918170000000 1.0
C      1  0.4816350000000  0.5159410000000  0.5874510000000 1.0
C      1  0.4722700000000  0.5851700000000  0.4484080000000 1.0
C      1  0.4886840000000  0.3952780000000  0.4661150000000 1.0
C      1  0.5109180000000  0.5111170000000  0.5910190000000 1.0
C      1  0.5035900000000  0.5893410000000  0.4404850000000 1.0
C      1  0.5198890000000  0.3921290000000  0.4639820000000 1.0
C      1  0.4502900000000  0.5154660000000  0.3895170000000 1.0
C      1  0.4176220000000  0.3913220000000  0.5327680000000 1.0
C      1  0.4440360000000  0.5686290000000  0.5636410000000 1.0
C      1  0.5483930000000  0.5214780000000  0.3912380000000 1.0
C      1  0.5548410000000  0.4081820000000  0.5219410000000 1.0
C      1  0.5599090000000  0.5693550000000  0.5596820000000 1.0
C      1  0.5656660000000  0.5321170000000  0.5207490000000 1.0
C      1  0.5570620000000  0.5048360000000  0.4583750000000 1.0
C      1  0.5659540000000  0.4653890000000  0.5158830000000 1.0
C      1  0.4423760000000  0.5296930000000  0.5233610000000 1.0
C      1  0.4416710000000  0.4983300000000  0.4592990000000 1.0
C      1  0.4403570000000  0.4635810000000  0.5198340000000 1.0
C      1  0.4521580000000  0.4704200000000  0.6097720000000 1.0
C      1  0.4476700000000  0.6008860000000  0.4810390000000 1.0
C      1  0.4469730000000  0.4377060000000  0.4218470000000 1.0
C      1  0.5434970000000  0.4695510000000  0.6092740000000 1.0
C      1  0.5432590000000  0.6117680000000  0.4734880000000 1.0
C      1  0.5498890000000  0.4315760000000  0.4235630000000 1.0
C      1  0.5968200000000  0.5735700000000  0.5123520000000 1.0
C      1  0.5823650000000  0.4789050000000  0.4205050000000 1.0
C      1  0.5928960000000  0.4453560000000  0.5525290000000 1.0
C      1  0.4145600000000  0.5765990000000  0.5094480000000 1.0
C      1  0.4159660000000  0.4725730000000  0.4184960000000 1.0
C      1  0.4048140000000  0.4493110000000  0.5531210000000 1.0
C      1  0.4479630000000  0.5816850000000  0.5272940000000 1.0
C      1  0.4514920000000  0.4876390000000  0.4085420000000 1.0
C      1  0.4401550000000  0.4348470000000  0.5523320000000 1.0
C      1  0.5617270000000  0.5821840000000  0.5290360000000 1.0
C      1  0.5486830000000  0.4891950000000  0.4021370000000 1.0
C      1  0.5580740000000  0.4296580000000  0.5531530000000 1.0
C      1  0.5354290000000  0.4478780000000  0.4694000000000 1.0
C      1  0.5509780000000  0.4907910000000  0.5633620000000 1.0
C      1  0.5528780000000  0.5618480000000  0.4758200000000 1.0
C      1  0.4653490000000  0.4433130000000  0.4714780000000 1.0
C      1  0.4411820000000  0.4930010000000  0.5668020000000 1.0
C      1  0.4566770000000  0.5496600000000  0.4770300000000 1.0
C      1  0.5575530000000  0.5486530000000  0.3999490000000 1.0
C      1  0.5554360000000  0.3965110000000  0.4950150000000 1.0
C      1  0.5611590000000  0.5606350000000  0.5893870000000 1.0
C      1  0.4370960000000  0.5403340000000  0.4008620000000 1.0
C      1  0.4321490000000  0.3864950000000  0.5094400000000 1.0
C      1  0.4327810000000  0.5615480000000  0.5898330000000 1.0
C      1  0.4817360000000  0.5206670000000  0.3851050000000 1.0
C      1  0.4798940000000  0.3994320000000  0.5669350000000 1.0
C      1  0.4918630000000  0.5903650000000  0.5675170000000 1.0
C      1  0.5146700000000  0.5207780000000  0.3883830000000 1.0
C      1  0.5106490000000  0.3966820000000  0.5603210000000 1.0
C      1  0.5197650000000  0.5858180000000  0.5663750000000 1.0
C      1  0.4336620000000  0.4677510000000  0.5529350000000 1.0
C      1  0.4416760000000  0.5562920000000  0.5068360000000 1.0
C      1  0.4448780000000  0.4753930000000  0.4361750000000 1.0
C      1  0.5637440000000  0.4629930000000  0.5494750000000 1.0
C      1  0.5658500000000  0.5608210000000  0.5052280000000 1.0
C      1  0.5520550000000  0.4837250000000  0.4346640000000 1.0
C      1  0.5547600000000  0.4286770000000  0.4498230000000 1.0
C      1  0.5541040000000  0.4897210000000  0.5943430000000 1.0
C      1  0.5563330000000  0.5900850000000  0.4632910000000 1.0
C      1  0.4428150000000  0.4375110000000  0.4488120000000 1.0
C      1  0.4364090000000  0.4890870000000  0.5973560000000 1.0
C      1  0.4401400000000  0.5768090000000  0.4706440000000 1.0
C      1  0.4414960000000  0.5463110000000  0.4326030000000 1.0
C      1  0.4371490000000  0.4100660000000  0.4963960000000 1.0
C      1  0.4212000000000  0.5384650000000  0.5763760000000 1.0
C      1  0.5594080000000  0.5527690000000  0.4285760000000 1.0
C      1  0.5645120000000  0.4226040000000  0.4797340000000 1.0
C      1  0.5743940000000  0.5360240000000  0.5759070000000 1.0
C      1  0.5152730000000  0.5892290000000  0.5108230000000 1.0
C      1  0.5160640000000  0.4715370000000  0.4223180000000 1.0
C      1  0.5157910000000  0.4461810000000  0.5720110000000 1.0
C      1  0.4851090000000  0.5866810000000  0.5134520000000 1.0
C      1  0.4849430000000  0.4704410000000  0.4219570000000 1.0
C      1  0.4841800000000  0.4473140000000  0.5721630000000 1.0
C      1  0.4840990000000  0.3946140000000  0.5172990000000 1.0
C      1  0.4871390000000  0.5618050000000  0.6059870000000 1.0
C      1  0.4772870000000  0.5685610000000  0.4064530000000 1.0
C      1  0.5141590000000  0.3794920000000  0.5093320000000 1.0
C      1  0.5156160000000  0.5567160000000  0.6064960000000 1.0
C      1  0.5107630000000  0.5730200000000  0.4117970000000 1.0
C      1  0.4793250000000  0.3773220000000  0.5455450000000 1.0
C      1  0.4799260000000  0.5859700000000  0.5928260000000 1.0
C      1  0.4895270000000  0.5514100000000  0.3858360000000 1.0
C      1  0.5108510000000  0.3740320000000  0.5385820000000 1.0
C      1  0.5327000000000  0.5721440000000  0.5889060000000 1.0
C      1  0.5213570000000  0.5541230000000  0.3870560000000 1.0
C      1  0.4195150000000  0.5347310000000  0.4637960000000 1.0
C      1  0.4217310000000  0.4556990000000  0.4771560000000 1.0
C      1  0.4141320000000  0.5052170000000  0.5373990000000 1.0
C      1  0.5802430000000  0.5335240000000  0.4736610000000 1.0
C      1  0.5796370000000  0.4595270000000  0.4784950000000 1.0
C      1  0.5884600000000  0.5026950000000  0.5421780000000 1.0
C      1  0.6000760000000  0.5001820000000  0.4396160000000 1.0
C      1  0.6085690000000  0.4499670000000  0.5226380000000 1.0
C      1  0.6124590000000  0.5447440000000  0.5217270000000 1.0
C      1  0.3982930000000  0.4950060000000  0.4364830000000 1.0
C      1  0.3945480000000  0.4534670000000  0.5212030000000 1.0
C      1  0.3952790000000  0.5493120000000  0.5165360000000 1.0
C      1  0.4101690000000  0.5032050000000  0.4644370000000 1.0
C      1  0.4129280000000  0.4729710000000  0.5027740000000 1.0
C      1  0.4058670000000  0.5202960000000  0.5104930000000 1.0
C      1  0.5894160000000  0.5040110000000  0.4690660000000 1.0
C      1  0.5960880000000  0.4723580000000  0.5036100000000 1.0
C      1  0.5954820000000  0.5184640000000  0.5149260000000 1.0
C      1  0.5190300000000  0.5383030000000  0.5198310000000 1.0
C      1  0.5129270000000  0.4984730000000  0.4625010000000 1.0
C      1  0.5191370000000  0.4595410000000  0.5243100000000 1.0
C      1  0.4852790000000  0.5382900000000  0.5245400000000 1.0
C      1  0.4810610000000  0.4962220000000  0.4653290000000 1.0
C      1  0.4861530000000  0.4568860000000  0.5234070000000 1.0
C      1  0.5165050000000  0.5747850000000  0.4680620000000 1.0
C      1  0.5172100000000  0.4229280000000  0.4621570000000 1.0
C      1  0.5054950000000  0.4948800000000  0.5635890000000 1.0
C      1  0.4858570000000  0.5763430000000  0.4737250000000 1.0
C      1  0.4879450000000  0.4256250000000  0.4648990000000 1.0
C      1  0.4713490000000  0.4978390000000  0.5636390000000 1.0
C      1  0.5259700000000  0.5195370000000  0.4840140000000 1.0
C      1  0.5309510000000  0.4807190000000  0.5011750000000 1.0
C      1  0.5290770000000  0.5072470000000  0.5217310000000 1.0
C      1  0.4654320000000  0.5118950000000  0.4896940000000 1.0
C      1  0.4727000000000  0.4732220000000  0.4969550000000 1.0
C      1  0.4761340000000  0.5085650000000  0.5200920000000 1.0
C      1  0.4862710000000  0.5172970000000  0.4394900000000 1.0
C      1  0.4767940000000  0.4248000000000  0.5240890000000 1.0
C      1  0.4670360000000  0.5486960000000  0.5483560000000 1.0
C      1  0.5198300000000  0.5221320000000  0.4417020000000 1.0
C      1  0.5310280000000  0.4300930000000  0.5240300000000 1.0
C      1  0.5375160000000  0.5502190000000  0.5425630000000 1.0
C      1  0.4086980000000  0.4655270000000  0.4510390000000 1.0
C      1  0.3974780000000  0.4806190000000  0.5419630000000 1.0
C      1  0.4070310000000  0.5544040000000  0.4846870000000 1.0
C      1  0.5926150000000  0.4684990000000  0.4512320000000 1.0
C      1  0.6036270000000  0.4763670000000  0.5443310000000 1.0
C      1  0.6006550000000  0.5489580000000  0.4897040000000 1.0
C      1  0.4806690000000  0.5575530000000  0.4998710000000 1.0
C      1  0.4716560000000  0.4695040000000  0.4525860000000 1.0
C      1  0.4849800000000  0.4705480000000  0.5515880000000 1.0
C      1  0.5264520000000  0.5609090000000  0.4972760000000 1.0
C      1  0.5273140000000  0.4729730000000  0.4532160000000 1.0
C      1  0.5248760000000  0.4711890000000  0.5536640000000 1.0
C      1  0.5268950000000  0.4218530000000  0.5563940000000 1.0
C      1  0.5304340000000  0.5834220000000  0.5371230000000 1.0
C      1  0.5215090000000  0.5036860000000  0.4147720000000 1.0
C      1  0.4690200000000  0.4259390000000  0.5563710000000 1.0
C      1  0.4760990000000  0.5812890000000  0.5438290000000 1.0
C      1  0.4803500000000  0.5022620000000  0.4122220000000 1.0
C      1  0.4208080000000  0.5668420000000  0.5414540000000 1.0
C      1  0.4224580000000  0.5037700000000  0.4061880000000 1.0
C      1  0.4153600000000  0.4224600000000  0.5347950000000 1.0
C      1  0.5883340000000  0.5664230000000  0.5444920000000 1.0
C      1  0.5725400000000  0.5108800000000  0.4132100000000 1.0
C      1  0.5824330000000  0.4213540000000  0.5307630000000 1.0
C      1  0.5885460000000  0.4338720000000  0.4997260000000 1.0
C      1  0.5975550000000  0.5345030000000  0.5510520000000 1.0
C      1  0.5822440000000  0.5298400000000  0.4397340000000 1.0
C      1  0.4148750000000  0.4334880000000  0.5022290000000 1.0
C      1  0.4064660000000  0.5371030000000  0.5464720000000 1.0
C      1  0.4152220000000  0.5245680000000  0.4313540000000 1.0
C      1  0.5275790000000  0.4493350000000  0.6005210000000 1.0
C      1  0.5255970000000  0.6131360000000  0.4941560000000 1.0
C      1  0.5330620000000  0.4483630000000  0.4099020000000 1.0
C      1  0.4712430000000  0.4543580000000  0.5992210000000 1.0
C      1  0.4673020000000  0.6072950000000  0.4987810000000 1.0
C      1  0.4670160000000  0.4495380000000  0.4074160000000 1.0
C      1  0.5008220000000  0.4946780000000  0.5239400000000 1.0
C      1  0.4975580000000  0.5231740000000  0.4897410000000 1.0
C      1  0.5014280000000  0.4728610000000  0.4904490000000 1.0
C      1  0.4013640000000  0.4972430000000  0.4916020000000 1.0
C      1  0.6021680000000  0.4989170000000  0.4947710000000 1.0
END
