TITL C-2782236-320-467 2.31911861152536e-05 125000 -718.366774624732 0 0 118 (D2) n - 1
REM
REM in /home/nfs/bkarasulu/CARBON/AIRSS/Generating-Clusters/REBO/Higher-Symm/SD-CG/HFTN-CG
REM
REM
REM
REM
REM
REM ./C.cell (12c818d87b63d06a65506943cc24bca4)
REM
REM compiler GCC version 9.2.1 20190827 (Red Hat 9.2.1-1)
REM options -cpp -mtune=generic -march=x86-64 -g -O0 -fpre-include=/usr/include/finclude/math-vector-fortran.h
REM seed 725279075 -81787898 -1605829787 156183850 -113334427 -1323800197 -655995754 -596185294 499828032 -885770014 -311980984 -1459268709 -1676999193 -51717201 1168538931 -1571378632 -19517283 -2114825525 1422487033 1584645168 -2103275232 751867473 -894105050 51969555 2035112643 -1018562143 -2018573948 -1298583083 146152263 2077137613 546410069 614689792 -1767136933
REM
CELL 1.54180   50.00000   50.00000   50.00000   90.00000   90.00000   90.00000
LATT -1
SFAC C  
C      1  0.5189450000000  0.5285690000000  0.5916500000000 1.0
C      1  0.5284160000000  0.4816770000000  0.5899500000000 1.0
C      1  0.4817030000000  0.4718960000000  0.5916460000000 1.0
C      1  0.4722330000000  0.5187880000000  0.5899400000000 1.0
C      1  0.5189770000000  0.4718940000000  0.4083200000000 1.0
C      1  0.5284420000000  0.5187870000000  0.4100230000000 1.0
C      1  0.4817280000000  0.5285620000000  0.4083120000000 1.0
C      1  0.4722630000000  0.4816690000000  0.4100150000000 1.0
C      1  0.4084880000000  0.5008590000000  0.5425550000000 1.0
C      1  0.5035500000000  0.5889960000000  0.5429370000000 1.0
C      1  0.5921760000000  0.4996040000000  0.5425840000000 1.0
C      1  0.4971140000000  0.4114670000000  0.5429410000000 1.0
C      1  0.4085010000000  0.4995900000000  0.4573810000000 1.0
C      1  0.5035750000000  0.4114660000000  0.4570280000000 1.0
C      1  0.5921890000000  0.5008680000000  0.4574090000000 1.0
C      1  0.4971160000000  0.5889930000000  0.4570220000000 1.0
C      1  0.4761960000000  0.5882900000000  0.5259500000000 1.0
C      1  0.5937530000000  0.5266510000000  0.5245400000000 1.0
C      1  0.5244730000000  0.4121720000000  0.5259620000000 1.0
C      1  0.4069160000000  0.4738110000000  0.5245130000000 1.0
C      1  0.4762150000000  0.4121680000000  0.4740070000000 1.0
C      1  0.5937640000000  0.4738210000000  0.4754530000000 1.0
C      1  0.5244700000000  0.5882920000000  0.4740100000000 1.0
C      1  0.4069200000000  0.5266380000000  0.4754230000000 1.0
C      1  0.5720470000000  0.4971990000000  0.4386440000000 1.0
C      1  0.5007710000000  0.4282190000000  0.4342320000000 1.0
C      1  0.4286490000000  0.5032590000000  0.4386220000000 1.0
C      1  0.4999260000000  0.5722380000000  0.4342280000000 1.0
C      1  0.5720280000000  0.5032710000000  0.5613420000000 1.0
C      1  0.5007410000000  0.5722420000000  0.5657320000000 1.0
C      1  0.4286300000000  0.4971930000000  0.5613200000000 1.0
C      1  0.4999150000000  0.4282230000000  0.5657360000000 1.0
C      1  0.5101610000000  0.5176030000000  0.5172460000000 1.0
C      1  0.5235590000000  0.4863810000000  0.5143260000000 1.0
C      1  0.4905100000000  0.4828580000000  0.5172440000000 1.0
C      1  0.4771130000000  0.5140800000000  0.5143190000000 1.0
C      1  0.5101690000000  0.4828580000000  0.4827210000000 1.0
C      1  0.5235610000000  0.5140820000000  0.4856450000000 1.0
C      1  0.4905130000000  0.5176010000000  0.4827170000000 1.0
C      1  0.4771200000000  0.4863780000000  0.4856390000000 1.0
C      1  0.5573730000000  0.5317860000000  0.5501540000000 1.0
C      1  0.5286160000000  0.4416950000000  0.5525710000000 1.0
C      1  0.4432880000000  0.4686770000000  0.5501380000000 1.0
C      1  0.4720450000000  0.5587680000000  0.5525590000000 1.0
C      1  0.5573930000000  0.4686820000000  0.4498270000000 1.0
C      1  0.5286240000000  0.5587690000000  0.4474020000000 1.0
C      1  0.4432990000000  0.5317760000000  0.4498080000000 1.0
C      1  0.4720690000000  0.4416890000000  0.4473960000000 1.0
C      1  0.5239900000000  0.4557330000000  0.5812090000000 1.0
C      1  0.4581190000000  0.4759810000000  0.5775150000000 1.0
C      1  0.4766610000000  0.5447320000000  0.5812000000000 1.0
C      1  0.5425340000000  0.5244830000000  0.5775260000000 1.0
C      1  0.5240100000000  0.5447300000000  0.4187620000000 1.0
C      1  0.4581400000000  0.5244740000000  0.4224370000000 1.0
C      1  0.4766920000000  0.4557260000000  0.4187570000000 1.0
C      1  0.5425610000000  0.4759830000000  0.4224510000000 1.0
C      1  0.6070860000000  0.5150000000000  0.4989710000000 1.0
C      1  0.5151050000000  0.3979250000000  0.4999810000000 1.0
C      1  0.3935910000000  0.4854610000000  0.4989380000000 1.0
C      1  0.4855710000000  0.6025360000000  0.4999710000000 1.0
C      1  0.6070880000000  0.4854740000000  0.5010270000000 1.0
C      1  0.5150920000000  0.6025380000000  0.4999880000000 1.0
C      1  0.3935890000000  0.5149870000000  0.5009930000000 1.0
C      1  0.4855840000000  0.3979230000000  0.4999890000000 1.0
C      1  0.5047240000000  0.4477290000000  0.4114130000000 1.0
C      1  0.4499640000000  0.4961260000000  0.4183060000000 1.0
C      1  0.4959800000000  0.5527270000000  0.4114090000000 1.0
C      1  0.5507380000000  0.5043300000000  0.4183210000000 1.0
C      1  0.5046900000000  0.5527320000000  0.5885530000000 1.0
C      1  0.4499380000000  0.5043280000000  0.5816430000000 1.0
C      1  0.4959590000000  0.4477330000000  0.5885540000000 1.0
C      1  0.5507140000000  0.4961370000000  0.5816590000000 1.0
C      1  0.4592480000000  0.5658640000000  0.4791800000000 1.0
C      1  0.5696810000000  0.5406320000000  0.4768960000000 1.0
C      1  0.5414350000000  0.4345960000000  0.4791960000000 1.0
C      1  0.4310020000000  0.4598270000000  0.4768770000000 1.0
C      1  0.4592500000000  0.4345920000000  0.5207720000000 1.0
C      1  0.5696790000000  0.4598380000000  0.5230900000000 1.0
C      1  0.5414210000000  0.5658700000000  0.5207810000000 1.0
C      1  0.4309900000000  0.5406240000000  0.5230660000000 1.0
C      1  0.5174290000000  0.5485680000000  0.5102910000000 1.0
C      1  0.5533130000000  0.4843120000000  0.5119230000000 1.0
C      1  0.4832440000000  0.4518930000000  0.5102880000000 1.0
C      1  0.4473600000000  0.5161490000000  0.5119060000000 1.0
C      1  0.5174390000000  0.4518950000000  0.4896780000000 1.0
C      1  0.5533150000000  0.5161550000000  0.4880580000000 1.0
C      1  0.4832410000000  0.5485650000000  0.4896700000000 1.0
C      1  0.4473660000000  0.4843050000000  0.4880420000000 1.0
C      1  0.4052290000000  0.4769990000000  0.4741490000000 1.0
C      1  0.4755600000000  0.5916910000000  0.4753600000000 1.0
C      1  0.5954560000000  0.5234610000000  0.4741770000000 1.0
C      1  0.5251250000000  0.4087680000000  0.4753730000000 1.0
C      1  0.4052180000000  0.5234500000000  0.5257860000000 1.0
C      1  0.4755640000000  0.4087670000000  0.5245960000000 1.0
C      1  0.5954510000000  0.4770120000000  0.5258170000000 1.0
C      1  0.5251050000000  0.5916950000000  0.5245990000000 1.0
C      1  0.5512180000000  0.5678520000000  0.4690530000000 1.0
C      1  0.5717820000000  0.4481190000000  0.4714310000000 1.0
C      1  0.4494690000000  0.4326070000000  0.4690410000000 1.0
C      1  0.4289030000000  0.5523400000000  0.4714060000000 1.0
C      1  0.5512170000000  0.4326150000000  0.5309270000000 1.0
C      1  0.5717670000000  0.5523510000000  0.5285560000000 1.0
C      1  0.4494510000000  0.5678470000000  0.5309080000000 1.0
C      1  0.4289010000000  0.4481110000000  0.5285360000000 1.0
C      1  0.4864300000000  0.5559080000000  0.5218110000000 1.0
C      1  0.5620560000000  0.5145280000000  0.5209500000000 1.0
C      1  0.5142400000000  0.4445540000000  0.5218180000000 1.0
C      1  0.4386140000000  0.4859340000000  0.5209320000000 1.0
C      1  0.4864440000000  0.4445510000000  0.4781490000000 1.0
C      1  0.5620650000000  0.4859400000000  0.4790330000000 1.0
C      1  0.5142400000000  0.5559080000000  0.4781510000000 1.0
C      1  0.4386180000000  0.5145190000000  0.4790130000000 1.0
C      1  0.4347920000000  0.4354610000000  0.4986050000000 1.0
C      1  0.4347830000000  0.5649920000000  0.5013390000000 1.0
C      1  0.5658850000000  0.5650000000000  0.4986220000000 1.0
C      1  0.5658930000000  0.4354690000000  0.5013630000000 1.0
C      1  0.5003240000000  0.5002330000000  0.5958160000000 1.0
C      1  0.5003530000000  0.5002280000000  0.4041480000000 1.0
END
