TITL C-2782227-3064-1447 -0.00405609597906081 125000 -979.847996264732 0 0 168 (C1) n - 1
REM
REM in /home/nfs/bkarasulu/CARBON/AIRSS/Generating-Clusters/REBO/Higher-Symm/SD-CG/HFTN-CG
REM
REM
REM
REM
REM
REM ./C.cell (12c818d87b63d06a65506943cc24bca4)
REM
REM compiler GCC version 9.2.1 20190827 (Red Hat 9.2.1-1)
REM options -cpp -mtune=generic -march=x86-64 -g -O0 -fpre-include=/usr/include/finclude/math-vector-fortran.h
REM seed -1474441295 244334104 858807935 781211398 1032877599 1124137352 -1341886963 511028623 -1666087539 -1317238351 736127753 -1680101693 -124906383 568529000 -71520151 -109918309 1736351282 1355327388 -305409256 788311630 -2112256478 -1121086579 61196192 1227159056 304027807 -590408403 -1600452842 -504919328 848866421 -74112343 849008097 -30819204 -585571471
REM
CELL 1.54180   50.00000   50.00000   50.00000   90.00000   90.00000   90.00000
LATT -1
SFAC C  
C      1  0.4394470000000  0.5376740000000  0.4724720000000 1.0
C      1  0.4688380000000  0.4400780000000  0.5340210000000 1.0
C      1  0.5357110000000  0.4698190000000  0.4351150000000 1.0
C      1  0.4411900000000  0.4670510000000  0.5303660000000 1.0
C      1  0.5569840000000  0.4548050000000  0.4730340000000 1.0
C      1  0.5543280000000  0.5398580000000  0.5278740000000 1.0
C      1  0.4723460000000  0.5518100000000  0.4519480000000 1.0
C      1  0.5320200000000  0.5590280000000  0.5323710000000 1.0
C      1  0.5344090000000  0.4421290000000  0.4637070000000 1.0
C      1  0.5523520000000  0.5245250000000  0.5538550000000 1.0
C      1  0.4617190000000  0.5309560000000  0.4399650000000 1.0
C      1  0.4661180000000  0.4687210000000  0.5600620000000 1.0
C      1  0.5044460000000  0.5147350000000  0.5605870000000 1.0
C      1  0.5601850000000  0.5023970000000  0.5151520000000 1.0
C      1  0.5149400000000  0.5548380000000  0.5050420000000 1.0
C      1  0.5065940000000  0.4834530000000  0.4404470000000 1.0
C      1  0.4950850000000  0.4847350000000  0.5568680000000 1.0
C      1  0.4977640000000  0.5140740000000  0.4359930000000 1.0
C      1  0.5592360000000  0.4931020000000  0.4842440000000 1.0
C      1  0.4435530000000  0.4974000000000  0.5166440000000 1.0
C      1  0.4461990000000  0.5081720000000  0.4861070000000 1.0
C      1  0.5160510000000  0.4367630000000  0.4987620000000 1.0
C      1  0.4852630000000  0.4443940000000  0.5062430000000 1.0
C      1  0.4850790000000  0.5595210000000  0.4980910000000 1.0
C      1  0.4205760000000  0.5010960000000  0.5647150000000 1.0
C      1  0.5673090000000  0.4205670000000  0.4992560000000 1.0
C      1  0.4939180000000  0.5643540000000  0.4206960000000 1.0
C      1  0.4224700000000  0.5033210000000  0.4370470000000 1.0
C      1  0.5780830000000  0.4984770000000  0.5694280000000 1.0
C      1  0.5755820000000  0.4951350000000  0.4318750000000 1.0
C      1  0.5617280000000  0.5750100000000  0.5004500000000 1.0
C      1  0.4330740000000  0.5771090000000  0.4981660000000 1.0
C      1  0.4384160000000  0.4236570000000  0.4981150000000 1.0
C      1  0.5000840000000  0.4368050000000  0.5773070000000 1.0
C      1  0.5029130000000  0.4384830000000  0.4215680000000 1.0
C      1  0.4997860000000  0.5664460000000  0.5778280000000 1.0
C      1  0.5889580000000  0.5195070000000  0.5173850000000 1.0
C      1  0.5160440000000  0.5939760000000  0.5222700000000 1.0
C      1  0.5195300000000  0.5177730000000  0.5900350000000 1.0
C      1  0.5898400000000  0.4780380000000  0.4827350000000 1.0
C      1  0.4059550000000  0.4782080000000  0.5162310000000 1.0
C      1  0.4056470000000  0.5210670000000  0.4850980000000 1.0
C      1  0.5185480000000  0.4089180000000  0.4787610000000 1.0
C      1  0.4847550000000  0.4058050000000  0.5221850000000 1.0
C      1  0.4820650000000  0.5881000000000  0.4799260000000 1.0
C      1  0.5194130000000  0.4844050000000  0.4019610000000 1.0
C      1  0.4759170000000  0.4838850000000  0.5952620000000 1.0
C      1  0.4787950000000  0.5151730000000  0.4076230000000 1.0
C      1  0.5524990000000  0.4920020000000  0.4065020000000 1.0
C      1  0.4080490000000  0.5535730000000  0.4957980000000 1.0
C      1  0.4916970000000  0.4108370000000  0.5559160000000 1.0
C      1  0.5526710000000  0.5087040000000  0.5901810000000 1.0
C      1  0.4458220000000  0.5062700000000  0.4118000000000 1.0
C      1  0.4425490000000  0.4918510000000  0.5896480000000 1.0
C      1  0.4133990000000  0.4461390000000  0.5056700000000 1.0
C      1  0.5904430000000  0.4447800000000  0.4920450000000 1.0
C      1  0.5866600000000  0.5526810000000  0.5085330000000 1.0
C      1  0.4938390000000  0.5852150000000  0.4478720000000 1.0
C      1  0.5088730000000  0.5910190000000  0.5557480000000 1.0
C      1  0.5098230000000  0.4148570000000  0.4456870000000 1.0
C      1  0.4591690000000  0.5320250000000  0.5707710000000 1.0
C      1  0.5710960000000  0.4601290000000  0.5319360000000 1.0
C      1  0.5255170000000  0.5640290000000  0.4599500000000 1.0
C      1  0.4619740000000  0.4723320000000  0.4288170000000 1.0
C      1  0.5399350000000  0.4703450000000  0.5689930000000 1.0
C      1  0.5362320000000  0.5291430000000  0.4252550000000 1.0
C      1  0.5669110000000  0.5351250000000  0.4673810000000 1.0
C      1  0.4263950000000  0.5406970000000  0.5323680000000 1.0
C      1  0.4311000000000  0.4636160000000  0.4681300000000 1.0
C      1  0.5319980000000  0.4290480000000  0.5385220000000 1.0
C      1  0.4722370000000  0.4351560000000  0.4606850000000 1.0
C      1  0.4680970000000  0.5711180000000  0.5397270000000 1.0
C      1  0.5396620000000  0.4876570000000  0.5291810000000 1.0
C      1  0.5271130000000  0.5352600000000  0.4876320000000 1.0
C      1  0.4878140000000  0.5307830000000  0.5429280000000 1.0
C      1  0.5380550000000  0.5077250000000  0.4707510000000 1.0
C      1  0.4601130000000  0.5145940000000  0.5331480000000 1.0
C      1  0.4660990000000  0.4922780000000  0.4727010000000 1.0
C      1  0.5296910000000  0.4595220000000  0.5127970000000 1.0
C      1  0.4732570000000  0.4635340000000  0.4888500000000 1.0
C      1  0.4708530000000  0.5404050000000  0.5145220000000 1.0
C      1  0.4907350000000  0.4717620000000  0.4614340000000 1.0
C      1  0.5128110000000  0.4710370000000  0.5397340000000 1.0
C      1  0.5112980000000  0.5266660000000  0.4600030000000 1.0
C      1  0.5962480000000  0.4699110000000  0.5145290000000 1.0
C      1  0.5149960000000  0.5907050000000  0.4742700000000 1.0
C      1  0.4666150000000  0.5152290000000  0.5975280000000 1.0
C      1  0.5930290000000  0.5282510000000  0.4851150000000 1.0
C      1  0.4013990000000  0.5275140000000  0.5173920000000 1.0
C      1  0.4043180000000  0.4714090000000  0.4840200000000 1.0
C      1  0.5154970000000  0.4023130000000  0.5323130000000 1.0
C      1  0.4869470000000  0.4083030000000  0.4708160000000 1.0
C      1  0.4848500000000  0.5973100000000  0.5316050000000 1.0
C      1  0.4699540000000  0.4844070000000  0.4006490000000 1.0
C      1  0.5269590000000  0.4858530000000  0.5940210000000 1.0
C      1  0.5293380000000  0.5156260000000  0.3971330000000 1.0
C      1  0.4449500000000  0.4582870000000  0.5847480000000 1.0
C      1  0.5857090000000  0.4468460000000  0.4583690000000 1.0
C      1  0.4601270000000  0.5813400000000  0.4461280000000 1.0
C      1  0.4398930000000  0.5390290000000  0.4169140000000 1.0
C      1  0.5499000000000  0.5423430000000  0.5827300000000 1.0
C      1  0.5610670000000  0.4610620000000  0.4164530000000 1.0
C      1  0.5836060000000  0.5495830000000  0.5426550000000 1.0
C      1  0.4173630000000  0.5614860000000  0.4649630000000 1.0
C      1  0.4149870000000  0.4471380000000  0.5396530000000 1.0
C      1  0.4579210000000  0.4144170000000  0.5537200000000 1.0
C      1  0.5438180000000  0.4155090000000  0.4460890000000 1.0
C      1  0.5419670000000  0.5841470000000  0.5509670000000 1.0
C      1  0.5700950000000  0.5770250000000  0.4448150000000 1.0
C      1  0.4442610000000  0.5767180000000  0.5805320000000 1.0
C      1  0.5803380000000  0.4428180000000  0.5757310000000 1.0
C      1  0.5746150000000  0.4180900000000  0.5555580000000 1.0
C      1  0.4282090000000  0.4222860000000  0.4437030000000 1.0
C      1  0.4245240000000  0.5821100000000  0.5553860000000 1.0
C      1  0.4479040000000  0.4282380000000  0.4187170000000 1.0
C      1  0.5540850000000  0.4244150000000  0.5799010000000 1.0
C      1  0.5508770000000  0.5725130000000  0.4192280000000 1.0
C      1  0.5761090000000  0.5528410000000  0.4239820000000 1.0
C      1  0.4185580000000  0.5575910000000  0.5757200000000 1.0
C      1  0.4220320000000  0.4471730000000  0.4237840000000 1.0
C      1  0.5558200000000  0.5647370000000  0.4703770000000 1.0
C      1  0.4695130000000  0.5608120000000  0.5699770000000 1.0
C      1  0.5704800000000  0.4687430000000  0.5612650000000 1.0
C      1  0.5611800000000  0.4296530000000  0.5292000000000 1.0
C      1  0.4424240000000  0.4342770000000  0.4692340000000 1.0
C      1  0.4387340000000  0.5704470000000  0.5293720000000 1.0
C      1  0.4728500000000  0.4433040000000  0.4308250000000 1.0
C      1  0.5294950000000  0.4408970000000  0.5682850000000 1.0
C      1  0.5249970000000  0.5578680000000  0.4294760000000 1.0
C      1  0.5666470000000  0.5257150000000  0.4381030000000 1.0
C      1  0.4288050000000  0.5311610000000  0.5617180000000 1.0
C      1  0.4319270000000  0.4732160000000  0.4389370000000 1.0
C      1  0.5674920000000  0.5771910000000  0.5330250000000 1.0
C      1  0.5324140000000  0.5667110000000  0.5770350000000 1.0
C      1  0.5803060000000  0.5323350000000  0.5709060000000 1.0
C      1  0.5697420000000  0.4180000000000  0.4657270000000 1.0
C      1  0.4385610000000  0.4271390000000  0.5300890000000 1.0
C      1  0.4376450000000  0.5861120000000  0.4655440000000 1.0
C      1  0.5363440000000  0.4386890000000  0.4240520000000 1.0
C      1  0.4682500000000  0.4378110000000  0.5738260000000 1.0
C      1  0.4601280000000  0.5647000000000  0.4164050000000 1.0
C      1  0.5873890000000  0.4632090000000  0.4337040000000 1.0
C      1  0.4262340000000  0.4697920000000  0.5606210000000 1.0
C      1  0.4222850000000  0.5356960000000  0.4443210000000 1.0
C      1  0.4995140000000  0.5585390000000  0.5351910000000 1.0
C      1  0.5330590000000  0.5012430000000  0.5562770000000 1.0
C      1  0.5554830000000  0.5301980000000  0.4985760000000 1.0
C      1  0.5033060000000  0.4448020000000  0.4705830000000 1.0
C      1  0.5016150000000  0.4428350000000  0.5353390000000 1.0
C      1  0.4954910000000  0.5518850000000  0.4698450000000 1.0
C      1  0.5352230000000  0.5012300000000  0.4411760000000 1.0
C      1  0.4669480000000  0.5014050000000  0.5600510000000 1.0
C      1  0.4691570000000  0.5000150000000  0.4433560000000 1.0
C      1  0.5574290000000  0.4649770000000  0.5017090000000 1.0
C      1  0.4441810000000  0.4699280000000  0.4973540000000 1.0
C      1  0.4423560000000  0.5356610000000  0.5045960000000 1.0
C      1  0.5902680000000  0.5034040000000  0.4617520000000 1.0
C      1  0.4630730000000  0.5916780000000  0.5059180000000 1.0
C      1  0.4983390000000  0.4675000000000  0.5927640000000 1.0
C      1  0.5914690000000  0.4938780000000  0.5383030000000 1.0
C      1  0.4082230000000  0.5005390000000  0.4681100000000 1.0
C      1  0.4061410000000  0.4992280000000  0.5336180000000 1.0
C      1  0.4690630000000  0.4084640000000  0.4997180000000 1.0
C      1  0.5373580000000  0.4059730000000  0.5064000000000 1.0
C      1  0.5314880000000  0.5909170000000  0.5005160000000 1.0
C      1  0.5031950000000  0.5362740000000  0.4038760000000 1.0
C      1  0.4927760000000  0.5362860000000  0.5920160000000 1.0
C      1  0.4983700000000  0.4678280000000  0.4045900000000 1.0
END
