TITL C-2782237-5345-636 -0.00196924943049649 125000 -783.129009049486 0 0 140 (C1) n - 1
REM
REM in /home/nfs/bkarasulu/CARBON/AIRSS/Generating-Clusters/REBO/Higher-Symm/SD-CG/HFTN-CG
REM
REM
REM
REM
REM
REM ./C.cell (12c818d87b63d06a65506943cc24bca4)
REM
REM compiler GCC version 9.2.1 20190827 (Red Hat 9.2.1-1)
REM options -cpp -mtune=generic -march=x86-64 -g -O0 -fpre-include=/usr/include/finclude/math-vector-fortran.h
REM seed -180597002 1277605387 -1355908024 1786431672 -1164923550 -1281363255 1050259788 -1805863894 2031612049 694403637 -817164642 1545676931 1517887925 586224292 1660016761 1193042259 -1619716468 2135875225 -1590131454 -870943687 1763326563 -42496669 1930973717 -873527242 656695921 -2097018288 272490837 763154323 2004434203 -248688449 3126343 495152449 -602188859
REM
CELL 1.54180   50.00000   50.00000   50.00000   90.00000   90.00000   90.00000
LATT -1
SFAC C  
C      1  0.4830400000000  0.5524620000000  0.4158320000000 1.0
C      1  0.5473160000000  0.4195290000000  0.4908960000000 1.0
C      1  0.4199060000000  0.4791090000000  0.5474890000000 1.0
C      1  0.4870710000000  0.4505010000000  0.5882740000000 1.0
C      1  0.5127830000000  0.5444390000000  0.5841370000000 1.0
C      1  0.5155280000000  0.4515190000000  0.4212370000000 1.0
C      1  0.5455650000000  0.5825510000000  0.5141960000000 1.0
C      1  0.4549340000000  0.4158830000000  0.5171050000000 1.0
C      1  0.4535120000000  0.5815580000000  0.4861420000000 1.0
C      1  0.4102580000000  0.5221320000000  0.4437990000000 1.0
C      1  0.5867020000000  0.4826950000000  0.4507070000000 1.0
C      1  0.5799980000000  0.5130490000000  0.5424650000000 1.0
C      1  0.5175430000000  0.5503260000000  0.4161800000000 1.0
C      1  0.4503590000000  0.4196230000000  0.4831540000000 1.0
C      1  0.5837590000000  0.4794240000000  0.5491640000000 1.0
C      1  0.5209790000000  0.4447440000000  0.5913570000000 1.0
C      1  0.4787320000000  0.5503240000000  0.5864930000000 1.0
C      1  0.4814710000000  0.4539480000000  0.4153370000000 1.0
C      1  0.4465870000000  0.5860440000000  0.5196900000000 1.0
C      1  0.5540100000000  0.4103440000000  0.5234720000000 1.0
C      1  0.5510280000000  0.5827630000000  0.4801330000000 1.0
C      1  0.5889000000000  0.5164220000000  0.4429830000000 1.0
C      1  0.4100970000000  0.4880290000000  0.4501650000000 1.0
C      1  0.4172150000000  0.5130940000000  0.5420290000000 1.0
C      1  0.5171710000000  0.4767740000000  0.5796400000000 1.0
C      1  0.4800360000000  0.5792680000000  0.5189250000000 1.0
C      1  0.5784270000000  0.5156340000000  0.4755040000000 1.0
C      1  0.5107840000000  0.5178370000000  0.4246880000000 1.0
C      1  0.4821930000000  0.4875450000000  0.4222380000000 1.0
C      1  0.4824680000000  0.5180280000000  0.5760880000000 1.0
C      1  0.4825870000000  0.4297010000000  0.4876280000000 1.0
C      1  0.5192020000000  0.5715700000000  0.4848120000000 1.0
C      1  0.5207830000000  0.4180290000000  0.5219430000000 1.0
C      1  0.5737370000000  0.4829040000000  0.5169650000000 1.0
C      1  0.4255490000000  0.5166570000000  0.5086680000000 1.0
C      1  0.4201770000000  0.4860640000000  0.4835170000000 1.0
C      1  0.4848540000000  0.4843420000000  0.5804690000000 1.0
C      1  0.5120010000000  0.5752020000000  0.5169500000000 1.0
C      1  0.4207660000000  0.5176000000000  0.4758280000000 1.0
C      1  0.4771210000000  0.5190840000000  0.4211240000000 1.0
C      1  0.5155540000000  0.4852130000000  0.4272480000000 1.0
C      1  0.5145730000000  0.5105870000000  0.5765970000000 1.0
C      1  0.5148690000000  0.4308830000000  0.4910590000000 1.0
C      1  0.4860020000000  0.5701360000000  0.4869970000000 1.0
C      1  0.4885670000000  0.4228100000000  0.5200110000000 1.0
C      1  0.4300470000000  0.4847750000000  0.5160510000000 1.0
C      1  0.5725230000000  0.5152070000000  0.5087940000000 1.0
C      1  0.5792490000000  0.4842170000000  0.4845720000000 1.0
C      1  0.5510840000000  0.4881210000000  0.4659100000000 1.0
C      1  0.4899220000000  0.4659570000000  0.5524300000000 1.0
C      1  0.4647420000000  0.5436860000000  0.4833680000000 1.0
C      1  0.5438090000000  0.5113360000000  0.5268830000000 1.0
C      1  0.4575920000000  0.4847470000000  0.5363640000000 1.0
C      1  0.4478750000000  0.5211790000000  0.4553210000000 1.0
C      1  0.4851310000000  0.5339710000000  0.4506420000000 1.0
C      1  0.5172900000000  0.4690350000000  0.4566950000000 1.0
C      1  0.5090340000000  0.5289400000000  0.5483900000000 1.0
C      1  0.4706510000000  0.4518940000000  0.5183780000000 1.0
C      1  0.5301810000000  0.5463870000000  0.5135940000000 1.0
C      1  0.5360280000000  0.4576290000000  0.4898050000000 1.0
C      1  0.4467130000000  0.4900410000000  0.4631430000000 1.0
C      1  0.5209680000000  0.4553070000000  0.5535150000000 1.0
C      1  0.5401600000000  0.5448100000000  0.4833990000000 1.0
C      1  0.4538500000000  0.5147310000000  0.5276100000000 1.0
C      1  0.5461400000000  0.4812320000000  0.5368650000000 1.0
C      1  0.5515950000000  0.5193790000000  0.4549590000000 1.0
C      1  0.5157920000000  0.5361010000000  0.4530470000000 1.0
C      1  0.4873170000000  0.4697020000000  0.4509180000000 1.0
C      1  0.4775480000000  0.5384460000000  0.5490630000000 1.0
C      1  0.5386660000000  0.4463660000000  0.5191770000000 1.0
C      1  0.4635080000000  0.5508810000000  0.5138880000000 1.0
C      1  0.4623890000000  0.4570830000000  0.4883110000000 1.0
C      1  0.5237870000000  0.5672810000000  0.4453620000000 1.0
C      1  0.5705760000000  0.4403540000000  0.5256660000000 1.0
C      1  0.4456640000000  0.5173730000000  0.5608650000000 1.0
C      1  0.5248000000000  0.4247710000000  0.5634920000000 1.0
C      1  0.4747670000000  0.5706530000000  0.5591590000000 1.0
C      1  0.4789120000000  0.4371860000000  0.4450290000000 1.0
C      1  0.5699700000000  0.5545120000000  0.4764890000000 1.0
C      1  0.4317370000000  0.4481420000000  0.4821780000000 1.0
C      1  0.4307390000000  0.5556200000000  0.5194600000000 1.0
C      1  0.4384150000000  0.4860990000000  0.4301870000000 1.0
C      1  0.5612370000000  0.5208380000000  0.4230380000000 1.0
C      1  0.5552230000000  0.4754630000000  0.5675250000000 1.0
C      1  0.4800030000000  0.5674380000000  0.4465940000000 1.0
C      1  0.4372080000000  0.4450640000000  0.5218290000000 1.0
C      1  0.5507320000000  0.5144470000000  0.5604180000000 1.0
C      1  0.4859010000000  0.4325230000000  0.5586350000000 1.0
C      1  0.5136010000000  0.5624220000000  0.5546600000000 1.0
C      1  0.5183510000000  0.4357970000000  0.4515240000000 1.0
C      1  0.4328910000000  0.5551450000000  0.4795610000000 1.0
C      1  0.5677890000000  0.4462590000000  0.4853910000000 1.0
C      1  0.5637790000000  0.5534470000000  0.5159230000000 1.0
C      1  0.5568820000000  0.4791530000000  0.4334820000000 1.0
C      1  0.4377380000000  0.5255470000000  0.4236760000000 1.0
C      1  0.4481290000000  0.4779610000000  0.5665260000000 1.0
C      1  0.5696980000000  0.5457660000000  0.5464580000000 1.0
C      1  0.5444910000000  0.5442210000000  0.5702470000000 1.0
C      1  0.5439630000000  0.5690170000000  0.5459710000000 1.0
C      1  0.5738830000000  0.4507370000000  0.4544150000000 1.0
C      1  0.4250130000000  0.5530920000000  0.4486140000000 1.0
C      1  0.4288940000000  0.4463820000000  0.5532460000000 1.0
C      1  0.5487240000000  0.4488910000000  0.4303870000000 1.0
C      1  0.4497800000000  0.5554910000000  0.4244430000000 1.0
C      1  0.4548330000000  0.4487420000000  0.5761140000000 1.0
C      1  0.5484520000000  0.4270670000000  0.4572290000000 1.0
C      1  0.4504600000000  0.5765810000000  0.4520090000000 1.0
C      1  0.4558940000000  0.4253260000000  0.5502780000000 1.0
C      1  0.4225030000000  0.5465700000000  0.5486330000000 1.0
C      1  0.4469170000000  0.5470410000000  0.5731930000000 1.0
C      1  0.4434880000000  0.5740710000000  0.5517880000000 1.0
C      1  0.4246660000000  0.4566780000000  0.4520580000000 1.0
C      1  0.5769510000000  0.5487350000000  0.4457570000000 1.0
C      1  0.5787930000000  0.4461010000000  0.5560270000000 1.0
C      1  0.4490860000000  0.4557900000000  0.4271180000000 1.0
C      1  0.5513740000000  0.5513640000000  0.4221120000000 1.0
C      1  0.5533220000000  0.4463530000000  0.5794380000000 1.0
C      1  0.4481390000000  0.4310400000000  0.4508690000000 1.0
C      1  0.5545660000000  0.5751460000000  0.4467830000000 1.0
C      1  0.5557250000000  0.4204190000000  0.5563060000000 1.0
C      1  0.4485710000000  0.4999750000000  0.5857700000000 1.0
C      1  0.5535970000000  0.4963540000000  0.4107710000000 1.0
C      1  0.4133110000000  0.4504320000000  0.5046820000000 1.0
C      1  0.4972980000000  0.4153920000000  0.4536540000000 1.0
C      1  0.4104130000000  0.5519980000000  0.4983600000000 1.0
C      1  0.5895770000000  0.4483380000000  0.5047730000000 1.0
C      1  0.5884310000000  0.5504520000000  0.4989850000000 1.0
C      1  0.4976540000000  0.5876780000000  0.5536490000000 1.0
C      1  0.5024140000000  0.4076190000000  0.5566660000000 1.0
C      1  0.5020440000000  0.5848060000000  0.4515080000000 1.0
C      1  0.4420530000000  0.5027810000000  0.4059340000000 1.0
C      1  0.5506230000000  0.4977700000000  0.5858980000000 1.0
C      1  0.4753380000000  0.5149300000000  0.4747040000000 1.0
C      1  0.5239320000000  0.4860490000000  0.4826420000000 1.0
C      1  0.4872470000000  0.4782330000000  0.5235860000000 1.0
C      1  0.5145080000000  0.5201030000000  0.5188840000000 1.0
C      1  0.5257810000000  0.5169190000000  0.4763050000000 1.0
C      1  0.4730470000000  0.4810530000000  0.4740220000000 1.0
C      1  0.5178220000000  0.4715690000000  0.5245670000000 1.0
C      1  0.4829740000000  0.5249440000000  0.5186000000000 1.0
END
