TITL C-2782238-9940-912 0.00655489689448763 125000 -435.685560342283 0 0 76 (C1) n - 1
REM
REM in /home/nfs/bkarasulu/CARBON/AIRSS/Generating-Clusters/REBO/Higher-Symm/SD-CG/HFTN-CG
REM
REM
REM
REM
REM
REM ./C.cell (12c818d87b63d06a65506943cc24bca4)
REM
REM compiler GCC version 9.2.1 20190827 (Red Hat 9.2.1-1)
REM options -cpp -mtune=generic -march=x86-64 -g -O0 -fpre-include=/usr/include/finclude/math-vector-fortran.h
REM seed 733308394 -352463894 -2141636149 31155066 -966961970 806903165 -1948994060 706575297 -2137045519 66455643 -1387225241 1267891651 510283952 853593442 1630319826 684910381 -1719661747 1765325170 -700588244 -49358139 -747620119 1805485430 -2104381069 402464367 1421318257 1295741968 1189390851 -1799306406 -1060833712 -415611565 217224173 563828723 644693905
REM
CELL 1.54180   50.00000   50.00000   50.00000   90.00000   90.00000   90.00000
LATT -1
SFAC C  
C      1  0.4529770000000  0.4762190000000  0.4833670000000 1.0
C      1  0.4963230000000  0.5387300000000  0.4818280000000 1.0
C      1  0.5542980000000  0.4793160000000  0.4845830000000 1.0
C      1  0.4521490000000  0.4786340000000  0.5168590000000 1.0
C      1  0.4952760000000  0.5398470000000  0.5142730000000 1.0
C      1  0.5524280000000  0.4783790000000  0.5172120000000 1.0
C      1  0.4842530000000  0.5102760000000  0.4265220000000 1.0
C      1  0.5173710000000  0.5133460000000  0.4241250000000 1.0
C      1  0.5039930000000  0.4839990000000  0.4266230000000 1.0
C      1  0.4845000000000  0.5087690000000  0.5731460000000 1.0
C      1  0.5176130000000  0.5108960000000  0.5715860000000 1.0
C      1  0.5028850000000  0.4820650000000  0.5720380000000 1.0
C      1  0.5222930000000  0.4821920000000  0.5271040000000 1.0
C      1  0.4757080000000  0.5016440000000  0.5257410000000 1.0
C      1  0.5086190000000  0.5102300000000  0.5246120000000 1.0
C      1  0.5242770000000  0.4817320000000  0.4718500000000 1.0
C      1  0.4755370000000  0.5003220000000  0.4745670000000 1.0
C      1  0.5086130000000  0.5083760000000  0.4738330000000 1.0
C      1  0.5155770000000  0.5721500000000  0.5697230000000 1.0
C      1  0.5560870000000  0.4451690000000  0.5722780000000 1.0
C      1  0.4260020000000  0.4810670000000  0.5740860000000 1.0
C      1  0.5146700000000  0.5745230000000  0.4255710000000 1.0
C      1  0.5617110000000  0.4485350000000  0.4288060000000 1.0
C      1  0.4259330000000  0.4820000000000  0.4266240000000 1.0
C      1  0.4246840000000  0.5052370000000  0.5284050000000 1.0
C      1  0.5296870000000  0.5579490000000  0.5236630000000 1.0
C      1  0.5414770000000  0.4346820000000  0.5257000000000 1.0
C      1  0.4250140000000  0.5048550000000  0.4723800000000 1.0
C      1  0.5296020000000  0.5578100000000  0.4705810000000 1.0
C      1  0.5439440000000  0.4346440000000  0.4734690000000 1.0
C      1  0.4904230000000  0.4489950000000  0.5277360000000 1.0
C      1  0.4618930000000  0.5366420000000  0.5407190000000 1.0
C      1  0.5520230000000  0.5166190000000  0.5360500000000 1.0
C      1  0.4927450000000  0.4473510000000  0.4666950000000 1.0
C      1  0.4626090000000  0.5362540000000  0.4615550000000 1.0
C      1  0.5538020000000  0.5192470000000  0.4563820000000 1.0
C      1  0.5346850000000  0.5286850000000  0.4820020000000 1.0
C      1  0.5196990000000  0.4512690000000  0.4837070000000 1.0
C      1  0.4495690000000  0.5183700000000  0.4856550000000 1.0
C      1  0.5337490000000  0.5293810000000  0.5120230000000 1.0
C      1  0.5187810000000  0.4515240000000  0.5134110000000 1.0
C      1  0.4495140000000  0.5191190000000  0.5153480000000 1.0
C      1  0.5823070000000  0.4550630000000  0.4464100000000 1.0
C      1  0.4181080000000  0.4618520000000  0.4441270000000 1.0
C      1  0.4937560000000  0.5822690000000  0.4421740000000 1.0
C      1  0.5780160000000  0.4527440000000  0.5568440000000 1.0
C      1  0.4181050000000  0.4612670000000  0.5563000000000 1.0
C      1  0.4954470000000  0.5824520000000  0.5535330000000 1.0
C      1  0.5380100000000  0.4431100000000  0.4420540000000 1.0
C      1  0.4353070000000  0.5052880000000  0.4403250000000 1.0
C      1  0.5330270000000  0.5570650000000  0.4387260000000 1.0
C      1  0.5335020000000  0.4407810000000  0.5569080000000 1.0
C      1  0.4353310000000  0.5044630000000  0.5606400000000 1.0
C      1  0.5329050000000  0.5544120000000  0.5555480000000 1.0
C      1  0.5695950000000  0.4532370000000  0.5269750000000 1.0
C      1  0.4216890000000  0.4715280000000  0.5277990000000 1.0
C      1  0.4990990000000  0.5721160000000  0.5248500000000 1.0
C      1  0.5713640000000  0.4540430000000  0.4754840000000 1.0
C      1  0.4220220000000  0.4713390000000  0.4730210000000 1.0
C      1  0.4982870000000  0.5707270000000  0.4701190000000 1.0
C      1  0.4682290000000  0.4521990000000  0.5113120000000 1.0
C      1  0.4642410000000  0.5561590000000  0.5172120000000 1.0
C      1  0.5668400000000  0.5069830000000  0.5102350000000 1.0
C      1  0.4693650000000  0.4482580000000  0.4814260000000 1.0
C      1  0.4670170000000  0.5541350000000  0.4878040000000 1.0
C      1  0.5685030000000  0.5076860000000  0.4795020000000 1.0
C      1  0.5140850000000  0.4631370000000  0.4460070000000 1.0
C      1  0.4599870000000  0.5202020000000  0.4380240000000 1.0
C      1  0.5392530000000  0.5293650000000  0.4334270000000 1.0
C      1  0.5108390000000  0.4617470000000  0.5512010000000 1.0
C      1  0.4600620000000  0.5190470000000  0.5630510000000 1.0
C      1  0.5385860000000  0.5263390000000  0.5599910000000 1.0
C      1  0.4132020000000  0.4893910000000  0.5003970000000 1.0
C      1  0.5644100000000  0.4323260000000  0.5006290000000 1.0
C      1  0.5179410000000  0.5755180000000  0.4971250000000 1.0
C      1  0.4875150000000  0.4870130000000  0.5002300000000 1.0
END
