TITL C-2782235-7892-1160 -0.000794962581674541 125000 -300.460284525589 0 0 55 (C1) n - 1
REM
REM in /home/nfs/bkarasulu/CARBON/AIRSS/Generating-Clusters/REBO/Higher-Symm/SD-CG/HFTN-CG
REM
REM
REM
REM
REM
REM ./C.cell (12c818d87b63d06a65506943cc24bca4)
REM
REM compiler GCC version 9.2.1 20190827 (Red Hat 9.2.1-1)
REM options -cpp -mtune=generic -march=x86-64 -g -O0 -fpre-include=/usr/include/finclude/math-vector-fortran.h
REM seed -770219484 1471394198 837465404 -719251621 -1140908924 362005724 -91537237 1317250823 -270664874 2069712233 1006252617 -880753284 18328827 -1466501017 1388626408 1747501577 1966674360 -1448894072 253146473 -832140939 -2106967238 864943479 -2059526708 1091749055 235480228 1821749066 750487585 -575963980 -1514231843 1747615565 1371620880 -1095403063 1465880324
REM
CELL 1.54180   50.00000   50.00000   50.00000   90.00000   90.00000   90.00000
LATT -1
SFAC C  
C      1  0.4687290000000  0.4606100000000  0.4591890000000 1.0
C      1  0.5135260000000  0.4525980000000  0.5418290000000 1.0
C      1  0.5213120000000  0.4711230000000  0.4686680000000 1.0
C      1  0.5419630000000  0.4898560000000  0.5341570000000 1.0
C      1  0.5318380000000  0.5414020000000  0.4551510000000 1.0
C      1  0.4872750000000  0.5471110000000  0.5428080000000 1.0
C      1  0.4760100000000  0.5301270000000  0.4630940000000 1.0
C      1  0.4621230000000  0.5051160000000  0.5374240000000 1.0
C      1  0.5032330000000  0.5237680000000  0.4761970000000 1.0
C      1  0.4750220000000  0.5194940000000  0.5147680000000 1.0
C      1  0.4751200000000  0.4905840000000  0.4579120000000 1.0
C      1  0.4920940000000  0.4776310000000  0.5436190000000 1.0
C      1  0.4962290000000  0.4755900000000  0.4839750000000 1.0
C      1  0.5123980000000  0.4850640000000  0.5192970000000 1.0
C      1  0.5247530000000  0.5090820000000  0.4566300000000 1.0
C      1  0.5043280000000  0.5248630000000  0.5465800000000 1.0
C      1  0.5301140000000  0.4335140000000  0.4325570000000 1.0
C      1  0.5825830000000  0.4638650000000  0.5544670000000 1.0
C      1  0.5558260000000  0.5691480000000  0.4174390000000 1.0
C      1  0.4649000000000  0.5746460000000  0.5834440000000 1.0
C      1  0.4640590000000  0.5606850000000  0.4217720000000 1.0
C      1  0.4407270000000  0.5268090000000  0.5805420000000 1.0
C      1  0.4480130000000  0.4318860000000  0.4199490000000 1.0
C      1  0.5263970000000  0.4175910000000  0.5790100000000 1.0
C      1  0.5195750000000  0.5509570000000  0.4840740000000 1.0
C      1  0.4777050000000  0.5535300000000  0.5133030000000 1.0
C      1  0.4579250000000  0.5073230000000  0.4801790000000 1.0
C      1  0.4628530000000  0.4732860000000  0.5322130000000 1.0
C      1  0.4769340000000  0.4489690000000  0.4873240000000 1.0
C      1  0.5249120000000  0.4548570000000  0.5107910000000 1.0
C      1  0.5441980000000  0.4928280000000  0.4774590000000 1.0
C      1  0.5288730000000  0.5198080000000  0.5303100000000 1.0
C      1  0.4757700000000  0.5612690000000  0.5637030000000 1.0
C      1  0.4699930000000  0.5455120000000  0.4422890000000 1.0
C      1  0.4513470000000  0.5160410000000  0.5591390000000 1.0
C      1  0.4582840000000  0.4461280000000  0.4394040000000 1.0
C      1  0.5199920000000  0.4350110000000  0.5605080000000 1.0
C      1  0.5257520000000  0.4521540000000  0.4504550000000 1.0
C      1  0.5622400000000  0.4768820000000  0.5442950000000 1.0
C      1  0.5438760000000  0.5553260000000  0.4362260000000 1.0
C      1  0.4547640000000  0.5377950000000  0.4944870000000 1.0
C      1  0.4517100000000  0.4873290000000  0.5033140000000 1.0
C      1  0.4587770000000  0.4489720000000  0.5118740000000 1.0
C      1  0.5065330000000  0.4378930000000  0.4924420000000 1.0
C      1  0.5504930000000  0.4648800000000  0.4950550000000 1.0
C      1  0.5463830000000  0.5112460000000  0.5018730000000 1.0
C      1  0.5372710000000  0.5413500000000  0.5064230000000 1.0
C      1  0.4976810000000  0.5693130000000  0.4958570000000 1.0
C      1  0.4942830000000  0.5025140000000  0.5610560000000 1.0
C      1  0.4985140000000  0.4996390000000  0.4409390000000 1.0
C      1  0.4739230000000  0.5037280000000  0.6108740000000 1.0
C      1  0.4974250000000  0.4993540000000  0.3879640000000 1.0
C      1  0.4838350000000  0.5031370000000  0.5866210000000 1.0
C      1  0.4979640000000  0.4994950000000  0.4141650000000 1.0
C      1  0.4968120000000  0.5043990000000  0.4998040000000 1.0
END
