TITL C-2782229-3092-666 -0.0042539019943867 125000 -913.980103898922 0 0 159 (C1) n - 1
REM
REM in /home/nfs/bkarasulu/CARBON/AIRSS/Generating-Clusters/REBO/Higher-Symm/SD-CG/HFTN-CG
REM
REM
REM
REM
REM
REM ./C.cell (12c818d87b63d06a65506943cc24bca4)
REM
REM compiler GCC version 9.2.1 20190827 (Red Hat 9.2.1-1)
REM options -cpp -mtune=generic -march=x86-64 -g -O0 -fpre-include=/usr/include/finclude/math-vector-fortran.h
REM seed 93896394 340708327 1864569056 -1000137879 -444063887 1709752957 -394555383 1407733294 -1458766170 1006061994 -1338425988 -425555216 -751834445 401396398 566290638 -2124068548 -225814442 153715207 877916769 454638995 416047325 1529504691 1304505813 1154444812 -1925155642 -642651255 -2000823850 -1290138177 1225953131 -806200589 -664632896 -658160322 -632384202
REM
CELL 1.54180   50.00000   50.00000   50.00000   90.00000   90.00000   90.00000
LATT -1
SFAC C  
C      1  0.5906730000000  0.5362090000000  0.4956190000000 1.0
C      1  0.5358700000000  0.4105360000000  0.5084220000000 1.0
C      1  0.3986790000000  0.4720620000000  0.4829980000000 1.0
C      1  0.4612750000000  0.5806150000000  0.5093060000000 1.0
C      1  0.5248820000000  0.4637240000000  0.4155670000000 1.0
C      1  0.4644110000000  0.4725660000000  0.5802330000000 1.0
C      1  0.4782540000000  0.5397270000000  0.4125520000000 1.0
C      1  0.5450730000000  0.5279710000000  0.5905500000000 1.0
C      1  0.5425560000000  0.4552360000000  0.4916490000000 1.0
C      1  0.4488570000000  0.4528890000000  0.5112840000000 1.0
C      1  0.4499060000000  0.5467320000000  0.4914740000000 1.0
C      1  0.5507110000000  0.5414770000000  0.5070490000000 1.0
C      1  0.4401060000000  0.4209000000000  0.5134790000000 1.0
C      1  0.4290070000000  0.5695100000000  0.5040140000000 1.0
C      1  0.5727000000000  0.5655640000000  0.4971780000000 1.0
C      1  0.5557140000000  0.4244510000000  0.4840730000000 1.0
C      1  0.4828750000000  0.4098960000000  0.4843580000000 1.0
C      1  0.4063080000000  0.5120310000000  0.5209770000000 1.0
C      1  0.5177220000000  0.5830790000000  0.4786520000000 1.0
C      1  0.5870740000000  0.4814460000000  0.5258910000000 1.0
C      1  0.4288400000000  0.5470880000000  0.4241230000000 1.0
C      1  0.5376880000000  0.5694040000000  0.5635950000000 1.0
C      1  0.5774320000000  0.4484690000000  0.4364000000000 1.0
C      1  0.4552100000000  0.4269170000000  0.5810790000000 1.0
C      1  0.4440540000000  0.5820010000000  0.5386240000000 1.0
C      1  0.5936340000000  0.5500780000000  0.4668750000000 1.0
C      1  0.5552400000000  0.4161700000000  0.5359110000000 1.0
C      1  0.4152360000000  0.4492000000000  0.4658490000000 1.0
C      1  0.5676940000000  0.4337960000000  0.5141410000000 1.0
C      1  0.4307760000000  0.4302580000000  0.4841660000000 1.0
C      1  0.4193150000000  0.5588330000000  0.5343110000000 1.0
C      1  0.5819470000000  0.5781050000000  0.4677800000000 1.0
C      1  0.5812970000000  0.4471400000000  0.4859540000000 1.0
C      1  0.4582060000000  0.4037710000000  0.5258980000000 1.0
C      1  0.4167590000000  0.5449530000000  0.4834770000000 1.0
C      1  0.5473380000000  0.5816780000000  0.5125170000000 1.0
C      1  0.5185570000000  0.5984690000000  0.5056610000000 1.0
C      1  0.5956310000000  0.4762840000000  0.4965570000000 1.0
C      1  0.4824530000000  0.3944750000000  0.5093400000000 1.0
C      1  0.3970800000000  0.5199700000000  0.4927640000000 1.0
C      1  0.5048820000000  0.4808970000000  0.4111390000000 1.0
C      1  0.4810120000000  0.4933500000000  0.5842310000000 1.0
C      1  0.4987420000000  0.5202840000000  0.4088260000000 1.0
C      1  0.5234730000000  0.5040910000000  0.5793420000000 1.0
C      1  0.5091310000000  0.5720080000000  0.5646620000000 1.0
C      1  0.5773090000000  0.4817220000000  0.4356820000000 1.0
C      1  0.4863690000000  0.4268060000000  0.5728260000000 1.0
C      1  0.4293720000000  0.5197610000000  0.4249700000000 1.0
C      1  0.4206970000000  0.4794530000000  0.4504640000000 1.0
C      1  0.4654180000000  0.5948600000000  0.5618710000000 1.0
C      1  0.5882180000000  0.5335160000000  0.4437920000000 1.0
C      1  0.5362870000000  0.4137410000000  0.5640020000000 1.0
C      1  0.4554020000000  0.4650410000000  0.5496030000000 1.0
C      1  0.4640890000000  0.5409540000000  0.4419830000000 1.0
C      1  0.5312410000000  0.5301570000000  0.5593920000000 1.0
C      1  0.5313020000000  0.4582420000000  0.4464870000000 1.0
C      1  0.4099420000000  0.5296690000000  0.5495710000000 1.0
C      1  0.5198720000000  0.5885500000000  0.4451680000000 1.0
C      1  0.5875540000000  0.4801740000000  0.5594000000000 1.0
C      1  0.4747350000000  0.4139930000000  0.4528530000000 1.0
C      1  0.5710990000000  0.5145010000000  0.5100220000000 1.0
C      1  0.5172700000000  0.4325610000000  0.4897750000000 1.0
C      1  0.4240730000000  0.4743210000000  0.5047810000000 1.0
C      1  0.4768350000000  0.5603800000000  0.4860390000000 1.0
C      1  0.5453380000000  0.4601020000000  0.5970900000000 1.0
C      1  0.4611020000000  0.4693280000000  0.4071930000000 1.0
C      1  0.4620060000000  0.5256240000000  0.6033790000000 1.0
C      1  0.5379060000000  0.5374520000000  0.4149360000000 1.0
C      1  0.5781060000000  0.4737400000000  0.4672910000000 1.0
C      1  0.4812950000000  0.4177250000000  0.5415800000000 1.0
C      1  0.4251330000000  0.5198990000000  0.4646110000000 1.0
C      1  0.5255880000000  0.5653390000000  0.5257670000000 1.0
C      1  0.5180280000000  0.4693000000000  0.5986330000000 1.0
C      1  0.4715840000000  0.4948510000000  0.3945910000000 1.0
C      1  0.4891790000000  0.5290170000000  0.5997270000000 1.0
C      1  0.5347800000000  0.5094660000000  0.3957180000000 1.0
C      1  0.4999870000000  0.4547730000000  0.5763830000000 1.0
C      1  0.4596770000000  0.5050930000000  0.4248380000000 1.0
C      1  0.4952670000000  0.5428790000000  0.5707690000000 1.0
C      1  0.5538640000000  0.4930390000000  0.4149500000000 1.0
C      1  0.4905990000000  0.5932200000000  0.5221160000000 1.0
C      1  0.5974560000000  0.5057870000000  0.4813170000000 1.0
C      1  0.5103330000000  0.3959870000000  0.5252290000000 1.0
C      1  0.3924080000000  0.4988170000000  0.4732960000000 1.0
C      1  0.5369460000000  0.4893370000000  0.4436730000000 1.0
C      1  0.4870070000000  0.4649930000000  0.5472390000000 1.0
C      1  0.4550420000000  0.5149170000000  0.4559870000000 1.0
C      1  0.5092160000000  0.5409510000000  0.5396440000000 1.0
C      1  0.5079040000000  0.4969150000000  0.5320850000000 1.0
C      1  0.5004760000000  0.4835880000000  0.4640510000000 1.0
C      1  0.4768870000000  0.5007180000000  0.5328390000000 1.0
C      1  0.5027350000000  0.5181580000000  0.4604310000000 1.0
C      1  0.5078010000000  0.4461630000000  0.4636390000000 1.0
C      1  0.4372180000000  0.4843910000000  0.5329060000000 1.0
C      1  0.4877240000000  0.5529750000000  0.4596650000000 1.0
C      1  0.5578330000000  0.5072160000000  0.5384380000000 1.0
C      1  0.5123150000000  0.4830820000000  0.5615960000000 1.0
C      1  0.4881680000000  0.4890630000000  0.4327780000000 1.0
C      1  0.4821910000000  0.5128300000000  0.5633380000000 1.0
C      1  0.5187570000000  0.5147770000000  0.4317780000000 1.0
C      1  0.4910310000000  0.5925370000000  0.4595220000000 1.0
C      1  0.5973600000000  0.5082020000000  0.5442320000000 1.0
C      1  0.5055420000000  0.4065720000000  0.4591580000000 1.0
C      1  0.4036840000000  0.4959580000000  0.5507370000000 1.0
C      1  0.5541540000000  0.4776620000000  0.5525110000000 1.0
C      1  0.4649510000000  0.4409940000000  0.4460220000000 1.0
C      1  0.4399190000000  0.5354100000000  0.5592560000000 1.0
C      1  0.5391110000000  0.5619160000000  0.4464860000000 1.0
C      1  0.5686350000000  0.5699180000000  0.4428540000000 1.0
C      1  0.5696070000000  0.4197820000000  0.5665160000000 1.0
C      1  0.4346500000000  0.4440450000000  0.4404850000000 1.0
C      1  0.4415320000000  0.5640110000000  0.5668320000000 1.0
C      1  0.4792520000000  0.4512990000000  0.4198600000000 1.0
C      1  0.4457480000000  0.5170360000000  0.5839510000000 1.0
C      1  0.5214180000000  0.5663520000000  0.4191960000000 1.0
C      1  0.5643430000000  0.4795590000000  0.5842690000000 1.0
C      1  0.5283390000000  0.4186070000000  0.4434550000000 1.0
C      1  0.4179990000000  0.4674890000000  0.5634880000000 1.0
C      1  0.4679230000000  0.5832570000000  0.4429530000000 1.0
C      1  0.5840070000000  0.5329590000000  0.5540800000000 1.0
C      1  0.5325890000000  0.5155930000000  0.5198110000000 1.0
C      1  0.5146520000000  0.4722250000000  0.4930320000000 1.0
C      1  0.4629840000000  0.4827870000000  0.5122210000000 1.0
C      1  0.4898740000000  0.5162150000000  0.4914910000000 1.0
C      1  0.5589910000000  0.5482690000000  0.5587990000000 1.0
C      1  0.5540080000000  0.4362880000000  0.4433910000000 1.0
C      1  0.4384080000000  0.4445450000000  0.5685410000000 1.0
C      1  0.4431900000000  0.5672830000000  0.4404450000000 1.0
C      1  0.5640390000000  0.4973440000000  0.4841630000000 1.0
C      1  0.5015320000000  0.4285120000000  0.5178850000000 1.0
C      1  0.4332480000000  0.4912200000000  0.4795780000000 1.0
C      1  0.4977800000000  0.5645510000000  0.5096060000000 1.0
C      1  0.4041940000000  0.5063830000000  0.4422910000000 1.0
C      1  0.4918550000000  0.5917680000000  0.5525200000000 1.0
C      1  0.5928530000000  0.5063650000000  0.4498070000000 1.0
C      1  0.5090370000000  0.4063840000000  0.5576070000000 1.0
C      1  0.4599810000000  0.5285180000000  0.5342710000000 1.0
C      1  0.5314700000000  0.5365790000000  0.4624410000000 1.0
C      1  0.5327710000000  0.4738210000000  0.5286080000000 1.0
C      1  0.4740750000000  0.4633660000000  0.4684540000000 1.0
C      1  0.4345100000000  0.4962540000000  0.5648140000000 1.0
C      1  0.4918270000000  0.5656810000000  0.4281850000000 1.0
C      1  0.5649910000000  0.5108580000000  0.5715600000000 1.0
C      1  0.5019140000000  0.4354930000000  0.4318440000000 1.0
C      1  0.5619140000000  0.4660450000000  0.5153280000000 1.0
C      1  0.4641910000000  0.4365630000000  0.4857020000000 1.0
C      1  0.4333720000000  0.5323970000000  0.5175850000000 1.0
C      1  0.5321910000000  0.5565690000000  0.4855060000000 1.0
C      1  0.5395090000000  0.5062170000000  0.4701070000000 1.0
C      1  0.5034530000000  0.4588520000000  0.5211090000000 1.0
C      1  0.4660510000000  0.4942020000000  0.4811700000000 1.0
C      1  0.4861470000000  0.5352030000000  0.5156150000000 1.0
C      1  0.4359100000000  0.4689290000000  0.4218180000000 1.0
C      1  0.4542980000000  0.5812050000000  0.5879140000000 1.0
C      1  0.5672030000000  0.5436280000000  0.4249550000000 1.0
C      1  0.5493660000000  0.4340340000000  0.5879910000000 1.0
C      1  0.5053240000000  0.4997500000000  0.6060070000000 1.0
C      1  0.5038370000000  0.4999740000000  0.3846510000000 1.0
C      1  0.5185730000000  0.5030740000000  0.4938640000000 1.0
END
