TITL C-2782237-5345-277 0.000817294436752598 125000 -592.288652099042 0 0 105 (C1) n - 1
REM
REM in /home/nfs/bkarasulu/CARBON/AIRSS/Generating-Clusters/REBO/Higher-Symm/SD-CG/HFTN-CG
REM
REM
REM
REM
REM
REM ./C.cell (12c818d87b63d06a65506943cc24bca4)
REM
REM compiler GCC version 9.2.1 20190827 (Red Hat 9.2.1-1)
REM options -cpp -mtune=generic -march=x86-64 -g -O0 -fpre-include=/usr/include/finclude/math-vector-fortran.h
REM seed 386909330 -1886106135 -478551213 -269276365 -359769531 2017525592 -1540727810 1180859362 -532533234 -2021128792 -458113654 1584409591 1792951706 -1083570376 1503183266 -321099347 1770040000 -1249235219 -543406644 -1631179295 -364373088 85892385 -961086637 -639841214 -1901347228 -889761693 230175743 -489793130 -2032102861 1202302603 -733430965 -1295459390 1718217063
REM
CELL 1.54180   50.00000   50.00000   50.00000   90.00000   90.00000   90.00000
LATT -1
SFAC C  
C      1  0.5370050000000  0.4757070000000  0.4220930000000 1.0
C      1  0.5404210000000  0.5504500000000  0.4344920000000 1.0
C      1  0.5423620000000  0.5850340000000  0.4968800000000 1.0
C      1  0.5443060000000  0.5641440000000  0.5543110000000 1.0
C      1  0.5383930000000  0.4829700000000  0.5832310000000 1.0
C      1  0.5499200000000  0.4355010000000  0.5474440000000 1.0
C      1  0.5407270000000  0.4264270000000  0.4678800000000 1.0
C      1  0.4843410000000  0.4692750000000  0.4743340000000 1.0
C      1  0.4817870000000  0.5007150000000  0.4630990000000 1.0
C      1  0.4853130000000  0.5306580000000  0.4758070000000 1.0
C      1  0.4901410000000  0.5362230000000  0.5076100000000 1.0
C      1  0.4868080000000  0.5145890000000  0.5329980000000 1.0
C      1  0.4830240000000  0.4829690000000  0.5272690000000 1.0
C      1  0.4850720000000  0.4594880000000  0.5054610000000 1.0
C      1  0.4344610000000  0.4871080000000  0.5352320000000 1.0
C      1  0.4344770000000  0.4650160000000  0.5125530000000 1.0
C      1  0.4336870000000  0.4664540000000  0.4781150000000 1.0
C      1  0.4348670000000  0.4939520000000  0.4626370000000 1.0
C      1  0.4385710000000  0.5261090000000  0.4736430000000 1.0
C      1  0.4338340000000  0.5401230000000  0.5043790000000 1.0
C      1  0.4350280000000  0.5212020000000  0.5296130000000 1.0
C      1  0.5622160000000  0.4853330000000  0.4684090000000 1.0
C      1  0.5646790000000  0.5175690000000  0.4656030000000 1.0
C      1  0.5671570000000  0.5388350000000  0.4901470000000 1.0
C      1  0.5623840000000  0.5330920000000  0.5220000000000 1.0
C      1  0.5619770000000  0.5051470000000  0.5396230000000 1.0
C      1  0.5605320000000  0.4738920000000  0.5278660000000 1.0
C      1  0.5615170000000  0.4667410000000  0.4956280000000 1.0
C      1  0.4535090000000  0.4411190000000  0.5214500000000 1.0
C      1  0.4549280000000  0.4437340000000  0.4656030000000 1.0
C      1  0.4534930000000  0.4905620000000  0.4368530000000 1.0
C      1  0.4561180000000  0.5456600000000  0.4529730000000 1.0
C      1  0.4562470000000  0.5646490000000  0.5058250000000 1.0
C      1  0.4558830000000  0.5338280000000  0.5490470000000 1.0
C      1  0.4572340000000  0.4793250000000  0.5587430000000 1.0
C      1  0.5071140000000  0.4412860000000  0.5240820000000 1.0
C      1  0.5058470000000  0.4443510000000  0.4748500000000 1.0
C      1  0.5048490000000  0.4849420000000  0.4439030000000 1.0
C      1  0.5113310000000  0.5344350000000  0.4566440000000 1.0
C      1  0.5157790000000  0.5555310000000  0.4999700000000 1.0
C      1  0.5099960000000  0.5352540000000  0.5470920000000 1.0
C      1  0.5021100000000  0.4847620000000  0.5546960000000 1.0
C      1  0.5131130000000  0.4122120000000  0.4819240000000 1.0
C      1  0.5182240000000  0.4511140000000  0.4213150000000 1.0
C      1  0.5146020000000  0.5320810000000  0.4235460000000 1.0
C      1  0.5171150000000  0.5788820000000  0.4760280000000 1.0
C      1  0.5193530000000  0.5749620000000  0.5478500000000 1.0
C      1  0.5099680000000  0.4983870000000  0.5826350000000 1.0
C      1  0.5247390000000  0.4358020000000  0.5594340000000 1.0
C      1  0.4833140000000  0.5434770000000  0.5675780000000 1.0
C      1  0.4837820000000  0.4684940000000  0.5781150000000 1.0
C      1  0.4800590000000  0.4199810000000  0.5262370000000 1.0
C      1  0.4803010000000  0.4280500000000  0.4487820000000 1.0
C      1  0.4826710000000  0.4916640000000  0.4185620000000 1.0
C      1  0.4784800000000  0.5686280000000  0.4413910000000 1.0
C      1  0.4798000000000  0.5875600000000  0.5156480000000 1.0
C      1  0.4662400000000  0.5205070000000  0.4402790000000 1.0
C      1  0.4692810000000  0.5603100000000  0.4790590000000 1.0
C      1  0.4725080000000  0.5517660000000  0.5303560000000 1.0
C      1  0.4695100000000  0.5068790000000  0.5614190000000 1.0
C      1  0.4716450000000  0.4550410000000  0.5428010000000 1.0
C      1  0.4667820000000  0.4344190000000  0.4918140000000 1.0
C      1  0.4691340000000  0.4656510000000  0.4453900000000 1.0
C      1  0.5578230000000  0.4517080000000  0.4654880000000 1.0
C      1  0.5535710000000  0.4994830000000  0.4388990000000 1.0
C      1  0.5589980000000  0.5500970000000  0.4591990000000 1.0
C      1  0.5641570000000  0.5651870000000  0.5101330000000 1.0
C      1  0.5494930000000  0.5336870000000  0.5534660000000 1.0
C      1  0.5614110000000  0.4804160000000  0.5615730000000 1.0
C      1  0.5541270000000  0.4419060000000  0.5171450000000 1.0
C      1  0.4870270000000  0.5847140000000  0.4692200000000 1.0
C      1  0.4893000000000  0.5749550000000  0.5452500000000 1.0
C      1  0.4834200000000  0.5169690000000  0.5894280000000 1.0
C      1  0.4926500000000  0.4397020000000  0.5611420000000 1.0
C      1  0.4827650000000  0.4069100000000  0.4944580000000 1.0
C      1  0.4879330000000  0.4498850000000  0.4247010000000 1.0
C      1  0.4848450000000  0.5254310000000  0.4145490000000 1.0
C      1  0.4049480000000  0.4554490000000  0.5035220000000 1.0
C      1  0.4018670000000  0.4542880000000  0.4762810000000 1.0
C      1  0.4049840000000  0.5084500000000  0.4619990000000 1.0
C      1  0.4055900000000  0.5339450000000  0.4768560000000 1.0
C      1  0.4020920000000  0.5515290000000  0.4998760000000 1.0
C      1  0.4063260000000  0.5144390000000  0.5426310000000 1.0
C      1  0.4034350000000  0.4880230000000  0.5493680000000 1.0
C      1  0.5653750000000  0.5756090000000  0.5400070000000 1.0
C      1  0.5465770000000  0.5135170000000  0.5784160000000 1.0
C      1  0.5691590000000  0.4497130000000  0.5614990000000 1.0
C      1  0.5492940000000  0.4186770000000  0.4968920000000 1.0
C      1  0.5620150000000  0.4606510000000  0.4369960000000 1.0
C      1  0.5538320000000  0.5249100000000  0.4232320000000 1.0
C      1  0.5595390000000  0.5769660000000  0.4722600000000 1.0
C      1  0.5158180000000  0.5005770000000  0.4167560000000 1.0
C      1  0.5121850000000  0.5653930000000  0.4454830000000 1.0
C      1  0.5138330000000  0.5843030000000  0.5154970000000 1.0
C      1  0.5130340000000  0.5316700000000  0.5800900000000 1.0
C      1  0.5165680000000  0.4591050000000  0.5814490000000 1.0
C      1  0.5105020000000  0.4093990000000  0.5147540000000 1.0
C      1  0.5144870000000  0.4297920000000  0.4463020000000 1.0
C      1  0.5224310000000  0.4891450000000  0.4694590000000 1.0
C      1  0.5261040000000  0.5156110000000  0.4759160000000 1.0
C      1  0.5285510000000  0.5274990000000  0.5008980000000 1.0
C      1  0.5260600000000  0.5163130000000  0.5261530000000 1.0
C      1  0.5222850000000  0.4890880000000  0.5313190000000 1.0
C      1  0.5231910000000  0.4669970000000  0.5144810000000 1.0
C      1  0.5223290000000  0.4678680000000  0.4867080000000 1.0
END
