TITL C-2782236-320-603 0.00179948397824335 125000 -672.905593945626 0 0 117 (C1) n - 1
REM
REM in /home/nfs/bkarasulu/CARBON/AIRSS/Generating-Clusters/REBO/Higher-Symm/SD-CG/HFTN-CG
REM
REM
REM
REM
REM
REM ./C.cell (12c818d87b63d06a65506943cc24bca4)
REM
REM compiler GCC version 9.2.1 20190827 (Red Hat 9.2.1-1)
REM options -cpp -mtune=generic -march=x86-64 -g -O0 -fpre-include=/usr/include/finclude/math-vector-fortran.h
REM seed -1644870728 -152970588 923195979 -312274849 -1704520645 -1944687282 -1317073592 -2016570856 2122662345 -179854901 -949286069 -2147215812 1316273815 -734652940 1568626486 878054330 284758853 318609457 -1657046782 614988340 1409316508 -1448299840 1728585520 144169125 -1038868253 -2046144928 640188336 -900870484 -1757755025 117419225 -297959944 -797521791 -820733584
REM
CELL 1.54180   50.00000   50.00000   50.00000   90.00000   90.00000   90.00000
LATT -1
SFAC C  
C      1  0.4514010000000  0.5724400000000  0.5504260000000 1.0
C      1  0.4780260000000  0.5703010000000  0.4364150000000 1.0
C      1  0.5638350000000  0.5715600000000  0.5133340000000 1.0
C      1  0.5381080000000  0.4387030000000  0.4792840000000 1.0
C      1  0.4979680000000  0.4370890000000  0.5459510000000 1.0
C      1  0.4610560000000  0.4368260000000  0.4805150000000 1.0
C      1  0.5068540000000  0.4701340000000  0.5237230000000 1.0
C      1  0.4796320000000  0.4695730000000  0.5028380000000 1.0
C      1  0.5093960000000  0.4663740000000  0.4768380000000 1.0
C      1  0.5126090000000  0.5723340000000  0.5468340000000 1.0
C      1  0.4511770000000  0.5791600000000  0.4896250000000 1.0
C      1  0.5328150000000  0.5784100000000  0.4639100000000 1.0
C      1  0.4644750000000  0.5305170000000  0.5297840000000 1.0
C      1  0.4981010000000  0.5292490000000  0.4444640000000 1.0
C      1  0.5532270000000  0.5278840000000  0.5315510000000 1.0
C      1  0.5293000000000  0.4362950000000  0.4343920000000 1.0
C      1  0.5416600000000  0.4368540000000  0.5605950000000 1.0
C      1  0.4287350000000  0.4380440000000  0.5038140000000 1.0
C      1  0.5539510000000  0.4599620000000  0.4325140000000 1.0
C      1  0.5312000000000  0.4636020000000  0.5790710000000 1.0
C      1  0.4117210000000  0.4633640000000  0.4888200000000 1.0
C      1  0.5209890000000  0.5212280000000  0.4931890000000 1.0
C      1  0.5035570000000  0.5248950000000  0.5212040000000 1.0
C      1  0.4699820000000  0.5241820000000  0.4736090000000 1.0
C      1  0.5229010000000  0.5335420000000  0.5433750000000 1.0
C      1  0.4552890000000  0.5371490000000  0.4977480000000 1.0
C      1  0.5265160000000  0.5353300000000  0.4626690000000 1.0
C      1  0.4164800000000  0.4585690000000  0.5280910000000 1.0
C      1  0.5205320000000  0.4598620000000  0.4107870000000 1.0
C      1  0.5674420000000  0.4582100000000  0.5579410000000 1.0
C      1  0.4886950000000  0.4508920000000  0.4189810000000 1.0
C      1  0.5818510000000  0.4538400000000  0.5268400000000 1.0
C      1  0.4323940000000  0.4517770000000  0.5576620000000 1.0
C      1  0.5812830000000  0.5249250000000  0.5170960000000 1.0
C      1  0.4499800000000  0.5239490000000  0.5583170000000 1.0
C      1  0.4778110000000  0.5248040000000  0.4188140000000 1.0
C      1  0.4054750000000  0.4871340000000  0.5127900000000 1.0
C      1  0.5434360000000  0.4852520000000  0.4152980000000 1.0
C      1  0.5579750000000  0.4846080000000  0.5777620000000 1.0
C      1  0.4481740000000  0.4672660000000  0.5746860000000 1.0
C      1  0.4670140000000  0.4681300000000  0.4209850000000 1.0
C      1  0.5884990000000  0.4697400000000  0.5037840000000 1.0
C      1  0.5910200000000  0.4882640000000  0.4538220000000 1.0
C      1  0.4841860000000  0.4927200000000  0.5973850000000 1.0
C      1  0.4262590000000  0.4932200000000  0.4336640000000 1.0
C      1  0.4426380000000  0.4681050000000  0.4420300000000 1.0
C      1  0.5838330000000  0.4636210000000  0.4729690000000 1.0
C      1  0.4781650000000  0.4647310000000  0.5854200000000 1.0
C      1  0.4601970000000  0.5018760000000  0.5158230000000 1.0
C      1  0.5074440000000  0.5009840000000  0.4573380000000 1.0
C      1  0.5345460000000  0.5001310000000  0.5252370000000 1.0
C      1  0.5298650000000  0.5412840000000  0.4234340000000 1.0
C      1  0.5565350000000  0.5421590000000  0.5625190000000 1.0
C      1  0.4135450000000  0.5449780000000  0.5197780000000 1.0
C      1  0.5176770000000  0.5026820000000  0.5547740000000 1.0
C      1  0.4331560000000  0.4953780000000  0.4962140000000 1.0
C      1  0.5408020000000  0.5053450000000  0.4623890000000 1.0
C      1  0.4887330000000  0.4910230000000  0.5573480000000 1.0
C      1  0.4524800000000  0.5188730000000  0.4487760000000 1.0
C      1  0.5702720000000  0.5011090000000  0.4740590000000 1.0
C      1  0.5249380000000  0.5519420000000  0.5711700000000 1.0
C      1  0.4274720000000  0.5408600000000  0.4939640000000 1.0
C      1  0.5489750000000  0.5553900000000  0.4475860000000 1.0
C      1  0.5550330000000  0.4418270000000  0.5238920000000 1.0
C      1  0.4483100000000  0.4368340000000  0.5381980000000 1.0
C      1  0.4901940000000  0.4359120000000  0.4421150000000 1.0
C      1  0.5190440000000  0.4636840000000  0.4498790000000 1.0
C      1  0.5305030000000  0.4659380000000  0.5452100000000 1.0
C      1  0.4479920000000  0.4658470000000  0.5047210000000 1.0
C      1  0.5260930000000  0.4280910000000  0.5321190000000 1.0
C      1  0.4578280000000  0.4213390000000  0.5098360000000 1.0
C      1  0.5131400000000  0.4238790000000  0.4620430000000 1.0
C      1  0.5834210000000  0.5039840000000  0.5413540000000 1.0
C      1  0.4267040000000  0.5064660000000  0.5469430000000 1.0
C      1  0.5007910000000  0.5073690000000  0.4076790000000 1.0
C      1  0.4901160000000  0.4166740000000  0.5194290000000 1.0
C      1  0.4889270000000  0.4168920000000  0.4852540000000 1.0
C      1  0.5188090000000  0.4212050000000  0.5012430000000 1.0
C      1  0.5047580000000  0.5110510000000  0.6018260000000 1.0
C      1  0.4225800000000  0.5160770000000  0.4531720000000 1.0
C      1  0.5830820000000  0.5116210000000  0.4366280000000 1.0
C      1  0.5241420000000  0.5713340000000  0.5150090000000 1.0
C      1  0.4696680000000  0.5785030000000  0.5160210000000 1.0
C      1  0.5001790000000  0.5812480000000  0.4670140000000 1.0
C      1  0.5808700000000  0.4984960000000  0.5001830000000 1.0
C      1  0.4616880000000  0.4985340000000  0.5724600000000 1.0
C      1  0.4578350000000  0.4991720000000  0.4219710000000 1.0
C      1  0.5085720000000  0.5528800000000  0.4937230000000 1.0
C      1  0.4860110000000  0.5523040000000  0.5177690000000 1.0
C      1  0.4895780000000  0.5490860000000  0.4682910000000 1.0
C      1  0.5446000000000  0.5816190000000  0.4913360000000 1.0
C      1  0.4829650000000  0.5796380000000  0.5466190000000 1.0
C      1  0.4661360000000  0.5810290000000  0.4649990000000 1.0
C      1  0.5005410000000  0.4516060000000  0.5731060000000 1.0
C      1  0.4369530000000  0.4549880000000  0.4679260000000 1.0
C      1  0.5605010000000  0.4507630000000  0.4616490000000 1.0
C      1  0.4846660000000  0.4961270000000  0.4821100000000 1.0
C      1  0.5263320000000  0.4893520000000  0.4953550000000 1.0
C      1  0.4895190000000  0.4995480000000  0.5266310000000 1.0
C      1  0.4063220000000  0.5176850000000  0.5285500000000 1.0
C      1  0.5298850000000  0.5136750000000  0.4140050000000 1.0
C      1  0.5668330000000  0.5104330000000  0.5667750000000 1.0
C      1  0.4852430000000  0.4519790000000  0.4675230000000 1.0
C      1  0.5337640000000  0.4578300000000  0.5063920000000 1.0
C      1  0.4739790000000  0.4510040000000  0.5309170000000 1.0
C      1  0.5459960000000  0.5660790000000  0.5406680000000 1.0
C      1  0.4367460000000  0.5700240000000  0.5196260000000 1.0
C      1  0.5119180000000  0.5662240000000  0.4383600000000 1.0
C      1  0.4660390000000  0.5532440000000  0.4187440000000 1.0
C      1  0.5849340000000  0.5544890000000  0.5089890000000 1.0
C      1  0.4449450000000  0.5525930000000  0.5683260000000 1.0
C      1  0.5189320000000  0.5214580000000  0.5810810000000 1.0
C      1  0.4179500000000  0.5173870000000  0.4803640000000 1.0
C      1  0.5600240000000  0.5247320000000  0.4436400000000 1.0
C      1  0.5586040000000  0.4839540000000  0.5380280000000 1.0
C      1  0.4393570000000  0.4824830000000  0.5333400000000 1.0
C      1  0.5061860000000  0.4851780000000  0.4289380000000 1.0
END
