TITL C-2782229-3092-515 0.00142968985728348 125000 -520.102244592054 0 0 92 (C1) n - 1
REM
REM in /home/nfs/bkarasulu/CARBON/AIRSS/Generating-Clusters/REBO/Higher-Symm/SD-CG/HFTN-CG
REM
REM
REM
REM
REM
REM ./C.cell (12c818d87b63d06a65506943cc24bca4)
REM
REM compiler GCC version 9.2.1 20190827 (Red Hat 9.2.1-1)
REM options -cpp -mtune=generic -march=x86-64 -g -O0 -fpre-include=/usr/include/finclude/math-vector-fortran.h
REM seed -1651922531 1664159472 -1303951789 -1963031736 264994438 701576505 324708999 -1537509516 -1230898715 971242564 786300609 -1497538356 -210030770 487955391 -2053408695 1919258038 -1134521571 -1222111415 -76389688 284699835 -1059141171 1304430528 1156530812 286436772 -885988829 -1794691333 1132199799 -553120010 1146664445 -2055660888 1075586549 -1430927142 1707684260
REM
CELL 1.54180   50.00000   50.00000   50.00000   90.00000   90.00000   90.00000
LATT -1
SFAC C  
C      1  0.5885110000000  0.4717230000000  0.4791590000000 1.0
C      1  0.5776050000000  0.4872720000000  0.5321020000000 1.0
C      1  0.5792840000000  0.5214430000000  0.4949910000000 1.0
C      1  0.4215070000000  0.4737120000000  0.4845480000000 1.0
C      1  0.4260310000000  0.4953420000000  0.5263070000000 1.0
C      1  0.4187730000000  0.5214260000000  0.4904200000000 1.0
C      1  0.5088700000000  0.4984050000000  0.5773190000000 1.0
C      1  0.5199860000000  0.5688360000000  0.4828970000000 1.0
C      1  0.5122000000000  0.4368630000000  0.4554160000000 1.0
C      1  0.4814730000000  0.4951100000000  0.5775210000000 1.0
C      1  0.4884470000000  0.5688400000000  0.4774400000000 1.0
C      1  0.4855240000000  0.4435060000000  0.4512290000000 1.0
C      1  0.4261580000000  0.5432050000000  0.4760990000000 1.0
C      1  0.4343610000000  0.4486250000000  0.4801530000000 1.0
C      1  0.4365230000000  0.5039590000000  0.5514350000000 1.0
C      1  0.5671990000000  0.5396320000000  0.4795970000000 1.0
C      1  0.5751020000000  0.4497850000000  0.4695640000000 1.0
C      1  0.5647760000000  0.4939500000000  0.5547700000000 1.0
C      1  0.4474100000000  0.5298940000000  0.5495030000000 1.0
C      1  0.4450450000000  0.5369310000000  0.4521070000000 1.0
C      1  0.4452790000000  0.4383500000000  0.5039320000000 1.0
C      1  0.5556180000000  0.5249600000000  0.5585370000000 1.0
C      1  0.5545570000000  0.5290830000000  0.4514610000000 1.0
C      1  0.5576180000000  0.4363630000000  0.4915420000000 1.0
C      1  0.5433400000000  0.4440940000000  0.4585450000000 1.0
C      1  0.5367600000000  0.4997030000000  0.5724670000000 1.0
C      1  0.5414970000000  0.5559130000000  0.4702030000000 1.0
C      1  0.4531440000000  0.4501980000000  0.4582580000000 1.0
C      1  0.4558080000000  0.4871120000000  0.5679020000000 1.0
C      1  0.4550830000000  0.5612300000000  0.4741650000000 1.0
C      1  0.5576240000000  0.5416660000000  0.5309270000000 1.0
C      1  0.5643440000000  0.4998800000000  0.4479310000000 1.0
C      1  0.5689920000000  0.4384650000000  0.5190810000000 1.0
C      1  0.4369120000000  0.5494820000000  0.5339490000000 1.0
C      1  0.4426650000000  0.5123100000000  0.4412790000000 1.0
C      1  0.4360690000000  0.4451260000000  0.5288220000000 1.0
C      1  0.5206980000000  0.5485400000000  0.4158000000000 1.0
C      1  0.5143440000000  0.4129460000000  0.4909890000000 1.0
C      1  0.5226130000000  0.5353840000000  0.5830850000000 1.0
C      1  0.4900940000000  0.5452630000000  0.4238370000000 1.0
C      1  0.4843170000000  0.4121920000000  0.4882060000000 1.0
C      1  0.4913670000000  0.5343550000000  0.5772740000000 1.0
C      1  0.4840400000000  0.5517530000000  0.4497520000000 1.0
C      1  0.4751280000000  0.4409070000000  0.5007710000000 1.0
C      1  0.4781890000000  0.5259920000000  0.5483410000000 1.0
C      1  0.5240210000000  0.5307300000000  0.4446370000000 1.0
C      1  0.5276090000000  0.4427690000000  0.4949800000000 1.0
C      1  0.5242060000000  0.5295280000000  0.5492310000000 1.0
C      1  0.4513450000000  0.4683110000000  0.5411060000000 1.0
C      1  0.4491180000000  0.5538120000000  0.5069340000000 1.0
C      1  0.4440790000000  0.4789480000000  0.4424780000000 1.0
C      1  0.5606330000000  0.4517880000000  0.5385840000000 1.0
C      1  0.5421820000000  0.5490010000000  0.5095730000000 1.0
C      1  0.5494090000000  0.4786600000000  0.4601640000000 1.0
C      1  0.4632700000000  0.4882230000000  0.4696240000000 1.0
C      1  0.4680160000000  0.4829730000000  0.5151430000000 1.0
C      1  0.4604640000000  0.5267120000000  0.4933940000000 1.0
C      1  0.5447640000000  0.4830100000000  0.4916860000000 1.0
C      1  0.5280280000000  0.5033120000000  0.5071480000000 1.0
C      1  0.5266780000000  0.5291550000000  0.4959140000000 1.0
C      1  0.4962490000000  0.4529990000000  0.4124560000000 1.0
C      1  0.4973470000000  0.4586160000000  0.5745090000000 1.0
C      1  0.4852870000000  0.6027370000000  0.5149180000000 1.0
C      1  0.5195420000000  0.4568290000000  0.4216500000000 1.0
C      1  0.5226200000000  0.4611010000000  0.5736320000000 1.0
C      1  0.5105780000000  0.6039390000000  0.5180250000000 1.0
C      1  0.4886080000000  0.4097180000000  0.5212090000000 1.0
C      1  0.4844080000000  0.5626850000000  0.5624350000000 1.0
C      1  0.4815130000000  0.5170290000000  0.4158110000000 1.0
C      1  0.5203120000000  0.4155770000000  0.5231360000000 1.0
C      1  0.5167380000000  0.5635670000000  0.5686460000000 1.0
C      1  0.5139450000000  0.5174500000000  0.4084700000000 1.0
C      1  0.4917790000000  0.4429250000000  0.5290840000000 1.0
C      1  0.4818630000000  0.5544230000000  0.5297580000000 1.0
C      1  0.4792770000000  0.4966460000000  0.4406790000000 1.0
C      1  0.5228880000000  0.4483730000000  0.5261250000000 1.0
C      1  0.5133490000000  0.5571240000000  0.5357480000000 1.0
C      1  0.5102880000000  0.5013370000000  0.4383140000000 1.0
C      1  0.5339720000000  0.4701370000000  0.5458250000000 1.0
C      1  0.5257750000000  0.5772620000000  0.5135270000000 1.0
C      1  0.5215770000000  0.4752060000000  0.4464200000000 1.0
C      1  0.4823400000000  0.4649890000000  0.5478630000000 1.0
C      1  0.4740550000000  0.5749360000000  0.5064120000000 1.0
C      1  0.4725570000000  0.4660500000000  0.4289870000000 1.0
C      1  0.4800650000000  0.5300090000000  0.4735300000000 1.0
C      1  0.4848600000000  0.4700610000000  0.4883830000000 1.0
C      1  0.4883650000000  0.4972400000000  0.5382070000000 1.0
C      1  0.5098800000000  0.5315870000000  0.4726410000000 1.0
C      1  0.5159010000000  0.4685230000000  0.4793610000000 1.0
C      1  0.5198860000000  0.4992360000000  0.5361270000000 1.0
C      1  0.5747910000000  0.4910030000000  0.5012720000000 1.0
C      1  0.4429430000000  0.4975690000000  0.4963540000000 1.0
END
