TITL C-2782239-8622-380 0.0019161136152305 125000 -981.996732836574 0 0 171 (C1) n - 1
REM
REM in /home/nfs/bkarasulu/CARBON/AIRSS/Generating-Clusters/REBO/Higher-Symm/SD-CG/HFTN-CG
REM
REM
REM
REM
REM
REM ./C.cell (12c818d87b63d06a65506943cc24bca4)
REM
REM compiler GCC version 9.2.1 20190827 (Red Hat 9.2.1-1)
REM options -cpp -mtune=generic -march=x86-64 -g -O0 -fpre-include=/usr/include/finclude/math-vector-fortran.h
REM seed 240176730 1786063153 -1501997426 -1011548803 -44785274 1036025798 271613460 -1268916917 -1972712742 -1029469980 -2022678230 97252181 -476977561 325007055 2052823949 -1654231468 1614373445 -702166499 963011366 -121376542 1556834111 -19405397 -1650068075 -169198088 1384852827 1677696637 -1505185345 -280788618 1978388179 -127962235 1055344603 1016566387 -348200229
REM
CELL 1.54180   50.00000   50.00000   50.00000   90.00000   90.00000   90.00000
LATT -1
SFAC C  
C      1  0.5719970000000  0.5219740000000  0.4563570000000 1.0
C      1  0.4466030000000  0.5517400000000  0.4585000000000 1.0
C      1  0.4826780000000  0.4260680000000  0.4586340000000 1.0
C      1  0.4233580000000  0.5297080000000  0.5390610000000 1.0
C      1  0.5545070000000  0.5514110000000  0.5437500000000 1.0
C      1  0.5184770000000  0.4274590000000  0.5438720000000 1.0
C      1  0.5821860000000  0.5057270000000  0.5691430000000 1.0
C      1  0.4591180000000  0.5658300000000  0.5689990000000 1.0
C      1  0.4660510000000  0.4238250000000  0.5687900000000 1.0
C      1  0.4173650000000  0.5082280000000  0.4294900000000 1.0
C      1  0.5476260000000  0.5680930000000  0.4312170000000 1.0
C      1  0.5350790000000  0.4263190000000  0.4324720000000 1.0
C      1  0.4304940000000  0.4313080000000  0.5275070000000 1.0
C      1  0.5921840000000  0.4726050000000  0.5265770000000 1.0
C      1  0.4814000000000  0.5912740000000  0.5256390000000 1.0
C      1  0.5687920000000  0.4369600000000  0.4725280000000 1.0
C      1  0.4095080000000  0.4664080000000  0.4714130000000 1.0
C      1  0.5236250000000  0.5920680000000  0.4714300000000 1.0
C      1  0.5396800000000  0.4789670000000  0.6074260000000 1.0
C      1  0.4976300000000  0.5449320000000  0.6062690000000 1.0
C      1  0.4616290000000  0.4752530000000  0.6042950000000 1.0
C      1  0.4579950000000  0.4786540000000  0.3932830000000 1.0
C      1  0.4992920000000  0.5459860000000  0.3940800000000 1.0
C      1  0.5360370000000  0.4772720000000  0.3931380000000 1.0
C      1  0.5505880000000  0.4172430000000  0.5123590000000 1.0
C      1  0.5502270000000  0.5848850000000  0.5113160000000 1.0
C      1  0.3990790000000  0.4822480000000  0.5027470000000 1.0
C      1  0.4502150000000  0.4108760000000  0.4890550000000 1.0
C      1  0.4541160000000  0.5828430000000  0.4863290000000 1.0
C      1  0.5986810000000  0.5000330000000  0.4875620000000 1.0
C      1  0.4673210000000  0.4706960000000  0.5543870000000 1.0
C      1  0.5442940000000  0.4855140000000  0.5577170000000 1.0
C      1  0.4895570000000  0.5430110000000  0.5567420000000 1.0
C      1  0.5319950000000  0.4725820000000  0.4440650000000 1.0
C      1  0.4565940000000  0.4850900000000  0.4442310000000 1.0
C      1  0.5072650000000  0.5436330000000  0.4429780000000 1.0
C      1  0.4790040000000  0.5205460000000  0.5316910000000 1.0
C      1  0.4909820000000  0.4742890000000  0.5300200000000 1.0
C      1  0.5283710000000  0.5034890000000  0.5344170000000 1.0
C      1  0.5178180000000  0.5233820000000  0.4687500000000 1.0
C      1  0.5069340000000  0.4761020000000  0.4670030000000 1.0
C      1  0.4698730000000  0.5074840000000  0.4662480000000 1.0
C      1  0.5584220000000  0.4580460000000  0.6027050000000 1.0
C      1  0.5069300000000  0.5711840000000  0.6004760000000 1.0
C      1  0.4341970000000  0.4710860000000  0.5976950000000 1.0
C      1  0.4402670000000  0.4573160000000  0.3995860000000 1.0
C      1  0.4905700000000  0.5724300000000  0.3996230000000 1.0
C      1  0.5635390000000  0.4716720000000  0.3976180000000 1.0
C      1  0.4730620000000  0.5333220000000  0.5991770000000 1.0
C      1  0.4840150000000  0.4599700000000  0.5968650000000 1.0
C      1  0.5429690000000  0.5061800000000  0.6008190000000 1.0
C      1  0.5239000000000  0.5349520000000  0.4020820000000 1.0
C      1  0.5142290000000  0.4610540000000  0.4002400000000 1.0
C      1  0.4549390000000  0.5062380000000  0.3985640000000 1.0
C      1  0.4984660000000  0.3930220000000  0.5431760000000 1.0
C      1  0.5942790000000  0.5493420000000  0.5444760000000 1.0
C      1  0.4136480000000  0.5674970000000  0.5477090000000 1.0
C      1  0.5054420000000  0.3934270000000  0.4580870000000 1.0
C      1  0.4069840000000  0.5508940000000  0.4552140000000 1.0
C      1  0.5913610000000  0.5567980000000  0.4559920000000 1.0
C      1  0.4252520000000  0.5755320000000  0.4702600000000 1.0
C      1  0.4742630000000  0.3954990000000  0.4716700000000 1.0
C      1  0.6030680000000  0.5277840000000  0.4695720000000 1.0
C      1  0.5759940000000  0.5742310000000  0.5300250000000 1.0
C      1  0.5294920000000  0.3981670000000  0.5299340000000 1.0
C      1  0.3957280000000  0.5486560000000  0.5318640000000 1.0
C      1  0.5304330000000  0.5063870000000  0.3981810000000 1.0
C      1  0.4766810000000  0.5262240000000  0.3968490000000 1.0
C      1  0.4861850000000  0.4694010000000  0.3973270000000 1.0
C      1  0.4670940000000  0.5044950000000  0.6012130000000 1.0
C      1  0.5207190000000  0.5256760000000  0.6029050000000 1.0
C      1  0.5117570000000  0.4689760000000  0.6015300000000 1.0
C      1  0.4596000000000  0.5355890000000  0.4926400000000 1.0
C      1  0.4847940000000  0.4514990000000  0.4892660000000 1.0
C      1  0.5493630000000  0.5158510000000  0.4960270000000 1.0
C      1  0.5349620000000  0.5361810000000  0.5125940000000 1.0
C      1  0.5116040000000  0.4491470000000  0.5019370000000 1.0
C      1  0.4409400000000  0.5139340000000  0.5055290000000 1.0
C      1  0.5509690000000  0.4142000000000  0.4807840000000 1.0
C      1  0.5523150000000  0.5887300000000  0.4795860000000 1.0
C      1  0.3977340000000  0.4982310000000  0.4741890000000 1.0
C      1  0.4503420000000  0.4081790000000  0.5215230000000 1.0
C      1  0.4540720000000  0.5882640000000  0.5173560000000 1.0
C      1  0.6030350000000  0.4995690000000  0.5193300000000 1.0
C      1  0.4767070000000  0.4117630000000  0.5323180000000 1.0
C      1  0.5895580000000  0.5209200000000  0.5329740000000 1.0
C      1  0.4407560000000  0.5692910000000  0.5336500000000 1.0
C      1  0.5248660000000  0.4145690000000  0.4691990000000 1.0
C      1  0.4100090000000  0.5214560000000  0.4662810000000 1.0
C      1  0.5643700000000  0.5657270000000  0.4673600000000 1.0
C      1  0.4772850000000  0.4825910000000  0.4828110000000 1.0
C      1  0.5273260000000  0.4944150000000  0.4839590000000 1.0
C      1  0.4873420000000  0.5309060000000  0.4751750000000 1.0
C      1  0.5208720000000  0.4792200000000  0.5145260000000 1.0
C      1  0.4676850000000  0.4934060000000  0.5144020000000 1.0
C      1  0.5092040000000  0.5264660000000  0.5266770000000 1.0
C      1  0.5759690000000  0.5329090000000  0.4878000000000 1.0
C      1  0.4297900000000  0.5479740000000  0.4883490000000 1.0
C      1  0.4893710000000  0.4179830000000  0.4910330000000 1.0
C      1  0.4121260000000  0.5319530000000  0.5079920000000 1.0
C      1  0.5661430000000  0.5482720000000  0.5118620000000 1.0
C      1  0.5106690000000  0.4190110000000  0.5125810000000 1.0
C      1  0.5026120000000  0.5584440000000  0.5188420000000 1.0
C      1  0.4472270000000  0.4662740000000  0.5194320000000 1.0
C      1  0.5533070000000  0.4701810000000  0.5202920000000 1.0
C      1  0.5024950000000  0.5595650000000  0.4790730000000 1.0
C      1  0.5529350000000  0.4720350000000  0.4805020000000 1.0
C      1  0.4482750000000  0.4646220000000  0.4796020000000 1.0
C      1  0.5162450000000  0.5387540000000  0.5715250000000 1.0
C      1  0.4552380000000  0.4945200000000  0.5699380000000 1.0
C      1  0.5290810000000  0.4637530000000  0.5720680000000 1.0
C      1  0.4813920000000  0.5384660000000  0.4289490000000 1.0
C      1  0.5441110000000  0.4950690000000  0.4279650000000 1.0
C      1  0.4709480000000  0.4636940000000  0.4279990000000 1.0
C      1  0.5230900000000  0.5904700000000  0.5556260000000 1.0
C      1  0.4077120000000  0.4754500000000  0.5532510000000 1.0
C      1  0.5704330000000  0.4352210000000  0.5557640000000 1.0
C      1  0.4806440000000  0.5926960000000  0.4422310000000 1.0
C      1  0.5904460000000  0.4735660000000  0.4437630000000 1.0
C      1  0.4313990000000  0.4299910000000  0.4442800000000 1.0
C      1  0.4227890000000  0.4908620000000  0.5747960000000 1.0
C      1  0.5498910000000  0.4385720000000  0.5788790000000 1.0
C      1  0.5287590000000  0.5726530000000  0.5790850000000 1.0
C      1  0.5762970000000  0.4890270000000  0.4210400000000 1.0
C      1  0.4513370000000  0.4372630000000  0.4220340000000 1.0
C      1  0.4727500000000  0.5776670000000  0.4209860000000 1.0
C      1  0.5684840000000  0.4405820000000  0.5279290000000 1.0
C      1  0.5208060000000  0.5861310000000  0.5276030000000 1.0
C      1  0.4140720000000  0.4671510000000  0.5274950000000 1.0
C      1  0.4336420000000  0.4346960000000  0.4719500000000 1.0
C      1  0.4839780000000  0.5873430000000  0.4719460000000 1.0
C      1  0.5858690000000  0.4730490000000  0.4716800000000 1.0
C      1  0.5743550000000  0.5208380000000  0.4251110000000 1.0
C      1  0.4513730000000  0.5547310000000  0.4273430000000 1.0
C      1  0.4806110000000  0.4249510000000  0.4267880000000 1.0
C      1  0.4242970000000  0.5225370000000  0.5706650000000 1.0
C      1  0.5531680000000  0.5544680000000  0.5749770000000 1.0
C      1  0.5209120000000  0.4248780000000  0.5748210000000 1.0
C      1  0.5288070000000  0.5621540000000  0.4971740000000 1.0
C      1  0.4320010000000  0.4862870000000  0.4976590000000 1.0
C      1  0.5416320000000  0.4478260000000  0.4996720000000 1.0
C      1  0.4763650000000  0.5602970000000  0.4999100000000 1.0
C      1  0.5683870000000  0.4925010000000  0.5014720000000 1.0
C      1  0.4587790000000  0.4413680000000  0.5017810000000 1.0
C      1  0.5580250000000  0.5185560000000  0.5400580000000 1.0
C      1  0.4539390000000  0.5401950000000  0.5388470000000 1.0
C      1  0.4887860000000  0.4414840000000  0.5375620000000 1.0
C      1  0.4409800000000  0.5193390000000  0.4597780000000 1.0
C      1  0.5450350000000  0.5407160000000  0.4614450000000 1.0
C      1  0.5112240000000  0.4429190000000  0.4607160000000 1.0
C      1  0.5724350000000  0.5523330000000  0.4305750000000 1.0
C      1  0.4216840000000  0.5381500000000  0.4304840000000 1.0
C      1  0.5093220000000  0.4121490000000  0.4324950000000 1.0
C      1  0.4322750000000  0.5538650000000  0.5695080000000 1.0
C      1  0.5800150000000  0.5350650000000  0.5694720000000 1.0
C      1  0.4924660000000  0.4108580000000  0.5690620000000 1.0
C      1  0.4566800000000  0.5152850000000  0.4295790000000 1.0
C      1  0.5035940000000  0.4585290000000  0.4314290000000 1.0
C      1  0.5345110000000  0.5259260000000  0.4326120000000 1.0
C      1  0.5409590000000  0.5169340000000  0.5696880000000 1.0
C      1  0.4969540000000  0.4582810000000  0.5661150000000 1.0
C      1  0.4638790000000  0.5261270000000  0.5680590000000 1.0
C      1  0.4505030000000  0.4427210000000  0.5515020000000 1.0
C      1  0.5759980000000  0.4810370000000  0.5512720000000 1.0
C      1  0.4827070000000  0.5741900000000  0.5497350000000 1.0
C      1  0.5503530000000  0.4464430000000  0.4488430000000 1.0
C      1  0.4240610000000  0.4852090000000  0.4468030000000 1.0
C      1  0.5224270000000  0.5725980000000  0.4470250000000 1.0
C      1  0.4182780000000  0.4475380000000  0.4995800000000 1.0
C      1  0.5827480000000  0.4533960000000  0.4994790000000 1.0
C      1  0.5033240000000  0.5938770000000  0.4992520000000 1.0
END
