TITL C-2782227-3064-274 -0.000819260847926924 125000 -553.382666484415 0 0 98 (C1) n - 1
REM
REM in /home/nfs/bkarasulu/CARBON/AIRSS/Generating-Clusters/REBO/Higher-Symm/SD-CG/HFTN-CG
REM
REM
REM
REM
REM
REM ./C.cell (12c818d87b63d06a65506943cc24bca4)
REM
REM compiler GCC version 9.2.1 20190827 (Red Hat 9.2.1-1)
REM options -cpp -mtune=generic -march=x86-64 -g -O0 -fpre-include=/usr/include/finclude/math-vector-fortran.h
REM seed 1451378132 -816004595 74298031 -1890402056 -76445950 -1318181844 -311960010 -1572514646 -1259362442 1793236550 836508547 1519760156 994756046 1878333063 -1990541872 -1675970428 -1836705747 -766406871 -53005984 117934610 1243057649 -436749923 80674130 -1797093618 -763920146 -28891748 -201023967 4358277 1128993028 1287943099 -1269497385 -944350731 -557970318
REM
CELL 1.54180   50.00000   50.00000   50.00000   90.00000   90.00000   90.00000
LATT -1
SFAC C  
C      1  0.5260210000000  0.5064270000000  0.5445690000000 1.0
C      1  0.4722790000000  0.4760700000000  0.4680770000000 1.0
C      1  0.5138730000000  0.4576150000000  0.4252150000000 1.0
C      1  0.4848710000000  0.5395180000000  0.5715930000000 1.0
C      1  0.5373930000000  0.5750470000000  0.4424800000000 1.0
C      1  0.4777860000000  0.4366160000000  0.5406010000000 1.0
C      1  0.4882160000000  0.4945700000000  0.4918750000000 1.0
C      1  0.5130220000000  0.5011500000000  0.5149830000000 1.0
C      1  0.4751180000000  0.4896650000000  0.5203740000000 1.0
C      1  0.5233500000000  0.5129440000000  0.4866110000000 1.0
C      1  0.4101160000000  0.5187390000000  0.5090130000000 1.0
C      1  0.5803880000000  0.4763810000000  0.4953080000000 1.0
C      1  0.5325160000000  0.4553550000000  0.4836840000000 1.0
C      1  0.4716260000000  0.5438090000000  0.5158220000000 1.0
C      1  0.4705510000000  0.4723910000000  0.4126520000000 1.0
C      1  0.5320280000000  0.5305860000000  0.5932090000000 1.0
C      1  0.4104940000000  0.4803820000000  0.4995560000000 1.0
C      1  0.5868250000000  0.5227160000000  0.5074640000000 1.0
C      1  0.4369690000000  0.4983980000000  0.5115610000000 1.0
C      1  0.5623540000000  0.5070820000000  0.4923020000000 1.0
C      1  0.4399690000000  0.4846900000000  0.4335800000000 1.0
C      1  0.5572070000000  0.5140810000000  0.5683010000000 1.0
C      1  0.5026480000000  0.4026730000000  0.5069530000000 1.0
C      1  0.4954820000000  0.5924250000000  0.4850630000000 1.0
C      1  0.4665110000000  0.4324870000000  0.4443550000000 1.0
C      1  0.5336630000000  0.5657930000000  0.5472620000000 1.0
C      1  0.5374960000000  0.5376540000000  0.4856990000000 1.0
C      1  0.4591250000000  0.4659930000000  0.5175890000000 1.0
C      1  0.5197270000000  0.4809240000000  0.4754120000000 1.0
C      1  0.4839660000000  0.5203520000000  0.5304400000000 1.0
C      1  0.5072470000000  0.5077220000000  0.4593100000000 1.0
C      1  0.4889890000000  0.4919370000000  0.5485090000000 1.0
C      1  0.5841830000000  0.4944180000000  0.5224720000000 1.0
C      1  0.4158780000000  0.5043050000000  0.4786130000000 1.0
C      1  0.4910660000000  0.5684180000000  0.4377530000000 1.0
C      1  0.5172970000000  0.4375470000000  0.5465390000000 1.0
C      1  0.5444620000000  0.4423620000000  0.4562590000000 1.0
C      1  0.4559220000000  0.5580930000000  0.5411740000000 1.0
C      1  0.5475830000000  0.4459590000000  0.5362340000000 1.0
C      1  0.4531190000000  0.5504960000000  0.4616920000000 1.0
C      1  0.4791670000000  0.5743540000000  0.5257860000000 1.0
C      1  0.5199910000000  0.4268650000000  0.4700950000000 1.0
C      1  0.5453410000000  0.4910190000000  0.5135590000000 1.0
C      1  0.4561080000000  0.5056660000000  0.4892430000000 1.0
C      1  0.5469880000000  0.5447600000000  0.5660240000000 1.0
C      1  0.4505210000000  0.4532730000000  0.4313360000000 1.0
C      1  0.4091160000000  0.4546150000000  0.5074730000000 1.0
C      1  0.5880960000000  0.5487250000000  0.5001010000000 1.0
C      1  0.5017930000000  0.5468070000000  0.4243600000000 1.0
C      1  0.5039420000000  0.4495130000000  0.5755330000000 1.0
C      1  0.4475330000000  0.4192740000000  0.4990670000000 1.0
C      1  0.5531000000000  0.5889860000000  0.4977280000000 1.0
C      1  0.5086060000000  0.4710440000000  0.5504910000000 1.0
C      1  0.4812120000000  0.5224760000000  0.4631410000000 1.0
C      1  0.4675980000000  0.4524590000000  0.4896840000000 1.0
C      1  0.5244070000000  0.5652320000000  0.4916430000000 1.0
C      1  0.4911310000000  0.4848730000000  0.5888600000000 1.0
C      1  0.5081050000000  0.5099810000000  0.4101550000000 1.0
C      1  0.4382520000000  0.4891800000000  0.5425200000000 1.0
C      1  0.5606690000000  0.5126520000000  0.4617310000000 1.0
C      1  0.5588700000000  0.4976370000000  0.5425660000000 1.0
C      1  0.4436580000000  0.4938930000000  0.4620740000000 1.0
C      1  0.4658140000000  0.4903610000000  0.5713730000000 1.0
C      1  0.5249750000000  0.5119960000000  0.4337330000000 1.0
C      1  0.5455200000000  0.4606840000000  0.5097640000000 1.0
C      1  0.4637980000000  0.5363010000000  0.4889200000000 1.0
C      1  0.5335360000000  0.5434740000000  0.4328600000000 1.0
C      1  0.4717820000000  0.4568980000000  0.5672250000000 1.0
C      1  0.4984720000000  0.4134680000000  0.4811530000000 1.0
C      1  0.4993590000000  0.5878520000000  0.5127170000000 1.0
C      1  0.4939410000000  0.4341270000000  0.4319750000000 1.0
C      1  0.5090980000000  0.5544580000000  0.5578610000000 1.0
C      1  0.5719650000000  0.4805680000000  0.4649280000000 1.0
C      1  0.4180350000000  0.5166840000000  0.5409060000000 1.0
C      1  0.5419710000000  0.5000500000000  0.5922580000000 1.0
C      1  0.4581940000000  0.5005710000000  0.4110940000000 1.0
C      1  0.4353740000000  0.5713480000000  0.4603960000000 1.0
C      1  0.5684160000000  0.4277720000000  0.5390840000000 1.0
C      1  0.4911600000000  0.5842460000000  0.4596860000000 1.0
C      1  0.5082790000000  0.4125340000000  0.5314690000000 1.0
C      1  0.4698900000000  0.4240500000000  0.4741370000000 1.0
C      1  0.5301020000000  0.5807320000000  0.5214550000000 1.0
C      1  0.4740340000000  0.4293240000000  0.5149600000000 1.0
C      1  0.5361150000000  0.5845910000000  0.4686990000000 1.0
C      1  0.5634610000000  0.5602460000000  0.4847580000000 1.0
C      1  0.4352200000000  0.4421360000000  0.5188170000000 1.0
C      1  0.5397220000000  0.4603540000000  0.4347400000000 1.0
C      1  0.4585010000000  0.5412950000000  0.5639030000000 1.0
C      1  0.4669490000000  0.5355820000000  0.4398280000000 1.0
C      1  0.5406810000000  0.4661470000000  0.5607180000000 1.0
C      1  0.5491860000000  0.4891120000000  0.4406740000000 1.0
C      1  0.4439880000000  0.5147210000000  0.5631950000000 1.0
C      1  0.5542960000000  0.5420980000000  0.4573340000000 1.0
C      1  0.4454540000000  0.4590710000000  0.5466290000000 1.0
C      1  0.5134440000000  0.5230020000000  0.5665600000000 1.0
C      1  0.4862260000000  0.4672250000000  0.4423780000000 1.0
C      1  0.4789780000000  0.5239710000000  0.4129040000000 1.0
C      1  0.5225230000000  0.4758760000000  0.5875760000000 1.0
END
