TITL C-2782234-8014-468 0.000388014203276177 125000 -714.074588971919 0 0 131 (C1) n - 1
REM
REM in /home/nfs/bkarasulu/CARBON/AIRSS/Generating-Clusters/REBO/Higher-Symm/SD-CG/HFTN-CG
REM
REM
REM
REM
REM
REM ./C.cell (12c818d87b63d06a65506943cc24bca4)
REM
REM compiler GCC version 9.2.1 20190827 (Red Hat 9.2.1-1)
REM options -cpp -mtune=generic -march=x86-64 -g -O0 -fpre-include=/usr/include/finclude/math-vector-fortran.h
REM seed -797370875 -227612623 -1775319412 360142335 -1585444958 1508820051 -1071235631 -1287375627 -1785178867 784579340 -691208475 805116857 -762083607 -167430006 -365546406 -41616877 2015958141 -1718714208 702337209 537204363 461708777 -443760994 -601149635 -1377748286 2005892434 589422025 -1753020503 1711251860 1151308998 1732644677 559635021 -96776935 1783948103
REM
CELL 1.54180   50.00000   50.00000   50.00000   90.00000   90.00000   90.00000
LATT -1
SFAC C  
C      1  0.4588050000000  0.5107630000000  0.5571280000000 1.0
C      1  0.5615510000000  0.5211840000000  0.4483360000000 1.0
C      1  0.4424040000000  0.4851840000000  0.5538010000000 1.0
C      1  0.5600600000000  0.4902410000000  0.4450940000000 1.0
C      1  0.5641440000000  0.5130720000000  0.5550030000000 1.0
C      1  0.4420020000000  0.5142320000000  0.4496120000000 1.0
C      1  0.5595650000000  0.4830390000000  0.5483670000000 1.0
C      1  0.4447900000000  0.4838570000000  0.4472560000000 1.0
C      1  0.5352070000000  0.3915010000000  0.5095530000000 1.0
C      1  0.4737120000000  0.3857930000000  0.4840320000000 1.0
C      1  0.5238320000000  0.6112940000000  0.5087800000000 1.0
C      1  0.4618580000000  0.6067620000000  0.4827130000000 1.0
C      1  0.4720190000000  0.3860130000000  0.5116270000000 1.0
C      1  0.5353750000000  0.3995670000000  0.4830840000000 1.0
C      1  0.4623950000000  0.6080310000000  0.5102920000000 1.0
C      1  0.5232870000000  0.6103550000000  0.4811400000000 1.0
C      1  0.4862440000000  0.4049360000000  0.5272010000000 1.0
C      1  0.5151700000000  0.4167940000000  0.4732530000000 1.0
C      1  0.4802490000000  0.5926230000000  0.5254370000000 1.0
C      1  0.5090790000000  0.5892670000000  0.4685940000000 1.0
C      1  0.5165810000000  0.4035470000000  0.5267360000000 1.0
C      1  0.4871320000000  0.4065220000000  0.4707100000000 1.0
C      1  0.5100320000000  0.5913090000000  0.5234030000000 1.0
C      1  0.4791520000000  0.5902170000000  0.4681780000000 1.0
C      1  0.5102990000000  0.4360330000000  0.5214690000000 1.0
C      1  0.4814550000000  0.4370140000000  0.4797060000000 1.0
C      1  0.5194340000000  0.5610580000000  0.5187930000000 1.0
C      1  0.4852040000000  0.5582980000000  0.4761790000000 1.0
C      1  0.4778280000000  0.4362460000000  0.5253990000000 1.0
C      1  0.5132420000000  0.4486060000000  0.4836590000000 1.0
C      1  0.4853800000000  0.5602740000000  0.5194680000000 1.0
C      1  0.5188390000000  0.5596970000000  0.4753840000000 1.0
C      1  0.4858210000000  0.5532110000000  0.4365420000000 1.0
C      1  0.5208300000000  0.5453280000000  0.5641680000000 1.0
C      1  0.4963970000000  0.4472240000000  0.4440500000000 1.0
C      1  0.5170500000000  0.4541070000000  0.5682470000000 1.0
C      1  0.5105540000000  0.5579060000000  0.4363580000000 1.0
C      1  0.4954010000000  0.5442440000000  0.5623180000000 1.0
C      1  0.5208620000000  0.4533470000000  0.4447830000000 1.0
C      1  0.4931850000000  0.4505090000000  0.5749820000000 1.0
C      1  0.5600720000000  0.4403090000000  0.4557240000000 1.0
C      1  0.4295340000000  0.4453160000000  0.5446760000000 1.0
C      1  0.5674490000000  0.5602020000000  0.4540120000000 1.0
C      1  0.4359840000000  0.5538950000000  0.5378180000000 1.0
C      1  0.4335840000000  0.4386280000000  0.4587860000000 1.0
C      1  0.5583280000000  0.4354090000000  0.5438040000000 1.0
C      1  0.4358210000000  0.5533230000000  0.4560150000000 1.0
C      1  0.5662560000000  0.5601280000000  0.5430600000000 1.0
C      1  0.5485210000000  0.5163560000000  0.4110670000000 1.0
C      1  0.4445340000000  0.5200680000000  0.5912460000000 1.0
C      1  0.5494250000000  0.4824620000000  0.4080480000000 1.0
C      1  0.4493660000000  0.4863300000000  0.5927030000000 1.0
C      1  0.4540920000000  0.5112820000000  0.4118070000000 1.0
C      1  0.5409730000000  0.5176280000000  0.5867250000000 1.0
C      1  0.4506590000000  0.4775790000000  0.4087990000000 1.0
C      1  0.5448330000000  0.4834060000000  0.5851550000000 1.0
C      1  0.4521610000000  0.5564710000000  0.5123110000000 1.0
C      1  0.5515260000000  0.5596030000000  0.4805770000000 1.0
C      1  0.4457570000000  0.4402290000000  0.5179240000000 1.0
C      1  0.5461700000000  0.4401100000000  0.4828560000000 1.0
C      1  0.5531740000000  0.5617350000000  0.5144860000000 1.0
C      1  0.4518480000000  0.5547180000000  0.4813570000000 1.0
C      1  0.5440780000000  0.4347040000000  0.5163590000000 1.0
C      1  0.4482050000000  0.4387460000000  0.4868160000000 1.0
C      1  0.4521590000000  0.4787930000000  0.4859730000000 1.0
C      1  0.5486150000000  0.4740910000000  0.5112090000000 1.0
C      1  0.4500990000000  0.5115910000000  0.4884120000000 1.0
C      1  0.5562060000000  0.5068480000000  0.5165000000000 1.0
C      1  0.5477860000000  0.4876300000000  0.4826930000000 1.0
C      1  0.4531340000000  0.4828370000000  0.5157710000000 1.0
C      1  0.5537430000000  0.5202120000000  0.4872720000000 1.0
C      1  0.4484520000000  0.5166250000000  0.5193760000000 1.0
C      1  0.3978390000000  0.5364760000000  0.5308140000000 1.0
C      1  0.6033360000000  0.5467600000000  0.4783720000000 1.0
C      1  0.3998510000000  0.4695700000000  0.5247390000000 1.0
C      1  0.6028830000000  0.4771570000000  0.4782780000000 1.0
C      1  0.6119030000000  0.5208960000000  0.5277080000000 1.0
C      1  0.4003740000000  0.5395290000000  0.4806860000000 1.0
C      1  0.6004160000000  0.4555760000000  0.5164760000000 1.0
C      1  0.3980060000000  0.4714560000000  0.4756890000000 1.0
C      1  0.4173610000000  0.5198980000000  0.5280560000000 1.0
C      1  0.5816300000000  0.5276450000000  0.4732700000000 1.0
C      1  0.4228300000000  0.4881370000000  0.5300310000000 1.0
C      1  0.5789600000000  0.4937630000000  0.4714140000000 1.0
C      1  0.5856120000000  0.5076320000000  0.5308260000000 1.0
C      1  0.4218820000000  0.5205860000000  0.4742690000000 1.0
C      1  0.5791840000000  0.4750330000000  0.5236160000000 1.0
C      1  0.4232550000000  0.4871040000000  0.4720700000000 1.0
C      1  0.5887990000000  0.5778010000000  0.4540430000000 1.0
C      1  0.4148710000000  0.5713660000000  0.5402270000000 1.0
C      1  0.5777060000000  0.4193260000000  0.4521140000000 1.0
C      1  0.4040570000000  0.4342890000000  0.5439410000000 1.0
C      1  0.4127440000000  0.5686040000000  0.4562270000000 1.0
C      1  0.5883610000000  0.5764210000000  0.5462970000000 1.0
C      1  0.4121440000000  0.4214310000000  0.4569110000000 1.0
C      1  0.5759890000000  0.4149200000000  0.5487280000000 1.0
C      1  0.5158380000000  0.4801170000000  0.4893310000000 1.0
C      1  0.4710650000000  0.4665790000000  0.5330220000000 1.0
C      1  0.5242240000000  0.5311040000000  0.4867700000000 1.0
C      1  0.4801020000000  0.5286580000000  0.5161960000000 1.0
C      1  0.4721190000000  0.4654650000000  0.4699060000000 1.0
C      1  0.5192670000000  0.4655160000000  0.5193640000000 1.0
C      1  0.4787100000000  0.5251840000000  0.4818540000000 1.0
C      1  0.5307890000000  0.5295670000000  0.5182980000000 1.0
C      1  0.5156720000000  0.4872510000000  0.5905740000000 1.0
C      1  0.4838980000000  0.4849940000000  0.4125600000000 1.0
C      1  0.5072830000000  0.5180790000000  0.5901070000000 1.0
C      1  0.4865640000000  0.5172140000000  0.4192160000000 1.0
C      1  0.4834410000000  0.4861210000000  0.5901100000000 1.0
C      1  0.5167730000000  0.4920620000000  0.4121280000000 1.0
C      1  0.4764430000000  0.5187930000000  0.5916080000000 1.0
C      1  0.5162330000000  0.5249580000000  0.4144740000000 1.0
C      1  0.5313290000000  0.5343940000000  0.4433270000000 1.0
C      1  0.4847910000000  0.5183520000000  0.5460240000000 1.0
C      1  0.5285670000000  0.4827030000000  0.4417140000000 1.0
C      1  0.4718700000000  0.4710810000000  0.5635670000000 1.0
C      1  0.4715830000000  0.5265640000000  0.4484040000000 1.0
C      1  0.5340460000000  0.5222500000000  0.5476170000000 1.0
C      1  0.4752740000000  0.4708940000000  0.4391800000000 1.0
C      1  0.5263490000000  0.4757270000000  0.5474560000000 1.0
C      1  0.5594660000000  0.5415080000000  0.5707120000000 1.0
C      1  0.4398220000000  0.5368490000000  0.4266580000000 1.0
C      1  0.5559540000000  0.4571020000000  0.5665290000000 1.0
C      1  0.4392530000000  0.4558790000000  0.4325470000000 1.0
C      1  0.4412520000000  0.5364760000000  0.5612110000000 1.0
C      1  0.5649750000000  0.5428770000000  0.4247140000000 1.0
C      1  0.4351500000000  0.4614200000000  0.5742150000000 1.0
C      1  0.5596690000000  0.4602500000000  0.4319040000000 1.0
C      1  0.5147050000000  0.5084350000000  0.4508160000000 1.0
C      1  0.5112080000000  0.5018060000000  0.5506070000000 1.0
C      1  0.5046950000000  0.5072280000000  0.4793610000000 1.0
END
