TITL C-2782237-5345-435 -0.000733317318635797 125000 -847.462101971841 0 0 142 (C1) n - 1
REM
REM in /home/nfs/bkarasulu/CARBON/AIRSS/Generating-Clusters/REBO/Higher-Symm/SD-CG/HFTN-CG
REM
REM
REM
REM
REM
REM ./C.cell (12c818d87b63d06a65506943cc24bca4)
REM
REM compiler GCC version 9.2.1 20190827 (Red Hat 9.2.1-1)
REM options -cpp -mtune=generic -march=x86-64 -g -O0 -fpre-include=/usr/include/finclude/math-vector-fortran.h
REM seed -2065675079 974222294 -408034455 -1621881405 157652532 -2084007477 -1421820368 934585246 855863889 -1369135682 2089530892 1385900042 -926234478 -2013336224 -122834314 1898056729 102296856 1233637528 -1849344147 398961287 -1447902556 -1089291845 275902367 -1366251750 1960840632 790944748 -2131301900 1791817447 -252321494 971066569 1560786843 -1516446915 -1549129905
REM
CELL 1.54180   50.00000   50.00000   50.00000   90.00000   90.00000   90.00000
LATT -1
SFAC C  
C      1  0.4548400000000  0.4205260000000  0.4842490000000 1.0
C      1  0.4567240000000  0.5811820000000  0.5144140000000 1.0
C      1  0.5624110000000  0.4277920000000  0.4577720000000 1.0
C      1  0.5647750000000  0.5735640000000  0.5393420000000 1.0
C      1  0.5036890000000  0.5945070000000  0.4760210000000 1.0
C      1  0.5034400000000  0.4060890000000  0.5240390000000 1.0
C      1  0.4891940000000  0.4902460000000  0.6029640000000 1.0
C      1  0.4903880000000  0.5115990000000  0.3969550000000 1.0
C      1  0.5296140000000  0.5205610000000  0.5663210000000 1.0
C      1  0.5292370000000  0.4804670000000  0.4342240000000 1.0
C      1  0.5965580000000  0.4749390000000  0.4812440000000 1.0
C      1  0.6025910000000  0.5187560000000  0.5197350000000 1.0
C      1  0.5448480000000  0.5267850000000  0.5239420000000 1.0
C      1  0.5439790000000  0.4738900000000  0.4760530000000 1.0
C      1  0.4931340000000  0.4832010000000  0.5638570000000 1.0
C      1  0.4924960000000  0.5164820000000  0.4365270000000 1.0
C      1  0.4934180000000  0.4542230000000  0.4804210000000 1.0
C      1  0.4938210000000  0.5464760000000  0.5232270000000 1.0
C      1  0.5170250000000  0.4890010000000  0.6086480000000 1.0
C      1  0.5182120000000  0.5138290000000  0.3914200000000 1.0
C      1  0.5146350000000  0.4796640000000  0.4725770000000 1.0
C      1  0.5154390000000  0.5208050000000  0.5290130000000 1.0
C      1  0.4879690000000  0.4568120000000  0.4235360000000 1.0
C      1  0.4878830000000  0.5436580000000  0.5757900000000 1.0
C      1  0.5473050000000  0.4425520000000  0.5373840000000 1.0
C      1  0.5470100000000  0.5568570000000  0.4646710000000 1.0
C      1  0.4701560000000  0.5596330000000  0.5444210000000 1.0
C      1  0.4716590000000  0.4429930000000  0.4564550000000 1.0
C      1  0.4976170000000  0.4828270000000  0.4365870000000 1.0
C      1  0.4981480000000  0.5169400000000  0.5648140000000 1.0
C      1  0.4291070000000  0.4995850000000  0.4374750000000 1.0
C      1  0.4284970000000  0.5010760000000  0.5613540000000 1.0
C      1  0.5204580000000  0.5133950000000  0.4781050000000 1.0
C      1  0.5219910000000  0.4875130000000  0.5226500000000 1.0
C      1  0.5249740000000  0.4466410000000  0.4343820000000 1.0
C      1  0.5272340000000  0.5543660000000  0.5630040000000 1.0
C      1  0.5685040000000  0.4561930000000  0.4924070000000 1.0
C      1  0.5639110000000  0.5467520000000  0.5040450000000 1.0
C      1  0.5557570000000  0.5724030000000  0.5004640000000 1.0
C      1  0.5524980000000  0.4299170000000  0.4963580000000 1.0
C      1  0.5925870000000  0.5068050000000  0.4686960000000 1.0
C      1  0.5891690000000  0.4906360000000  0.5333880000000 1.0
C      1  0.5624120000000  0.4917700000000  0.5879720000000 1.0
C      1  0.5627550000000  0.5091690000000  0.4127230000000 1.0
C      1  0.4842330000000  0.5282220000000  0.4649130000000 1.0
C      1  0.4840270000000  0.4716540000000  0.5349290000000 1.0
C      1  0.5661180000000  0.5047490000000  0.5129380000000 1.0
C      1  0.5645890000000  0.4975030000000  0.4844690000000 1.0
C      1  0.4382060000000  0.5588460000000  0.5326750000000 1.0
C      1  0.4401340000000  0.4417530000000  0.4610690000000 1.0
C      1  0.4892080000000  0.4363980000000  0.5776640000000 1.0
C      1  0.4896740000000  0.5642430000000  0.4225780000000 1.0
C      1  0.4877900000000  0.5854470000000  0.5281330000000 1.0
C      1  0.4866920000000  0.4158330000000  0.4720770000000 1.0
C      1  0.4475410000000  0.4078810000000  0.5336570000000 1.0
C      1  0.4477840000000  0.5910650000000  0.4675890000000 1.0
C      1  0.5092240000000  0.4540200000000  0.5400870000000 1.0
C      1  0.5084070000000  0.5472710000000  0.4609980000000 1.0
C      1  0.4351110000000  0.4256560000000  0.5116560000000 1.0
C      1  0.4357510000000  0.5884150000000  0.4923500000000 1.0
C      1  0.4330420000000  0.4732770000000  0.4506830000000 1.0
C      1  0.4339800000000  0.5295890000000  0.5477070000000 1.0
C      1  0.3924090000000  0.4675670000000  0.4772990000000 1.0
C      1  0.3937940000000  0.5191770000000  0.5224080000000 1.0
C      1  0.4499430000000  0.5615470000000  0.4547680000000 1.0
C      1  0.4494400000000  0.4394780000000  0.5461260000000 1.0
C      1  0.4193100000000  0.4551650000000  0.5200810000000 1.0
C      1  0.4181260000000  0.5352830000000  0.4809160000000 1.0
C      1  0.5300150000000  0.4574240000000  0.5144470000000 1.0
C      1  0.5278880000000  0.5442810000000  0.4870490000000 1.0
C      1  0.4215140000000  0.5252420000000  0.4524280000000 1.0
C      1  0.4211800000000  0.4747900000000  0.5479230000000 1.0
C      1  0.5379950000000  0.4494100000000  0.5866910000000 1.0
C      1  0.5392040000000  0.5516140000000  0.4160660000000 1.0
C      1  0.4797080000000  0.4640480000000  0.5862960000000 1.0
C      1  0.4801510000000  0.5367510000000  0.4144620000000 1.0
C      1  0.4663050000000  0.5093300000000  0.6002600000000 1.0
C      1  0.4674870000000  0.4923250000000  0.3991890000000 1.0
C      1  0.4023630000000  0.5263720000000  0.5448760000000 1.0
C      1  0.4043980000000  0.4603800000000  0.4563240000000 1.0
C      1  0.5463420000000  0.4671830000000  0.5608280000000 1.0
C      1  0.5467790000000  0.5323570000000  0.4410720000000 1.0
C      1  0.5761390000000  0.5425670000000  0.4653560000000 1.0
C      1  0.5774480000000  0.4535120000000  0.5403030000000 1.0
C      1  0.5254250000000  0.5828400000000  0.4603610000000 1.0
C      1  0.5247520000000  0.4175600000000  0.5400520000000 1.0
C      1  0.4785700000000  0.5978990000000  0.4626960000000 1.0
C      1  0.4785870000000  0.4022440000000  0.5375840000000 1.0
C      1  0.5573530000000  0.5470770000000  0.5766680000000 1.0
C      1  0.5547060000000  0.4536960000000  0.4196510000000 1.0
C      1  0.5773930000000  0.4794190000000  0.5622140000000 1.0
C      1  0.5782420000000  0.5194570000000  0.4404760000000 1.0
C      1  0.5762080000000  0.5281570000000  0.5372110000000 1.0
C      1  0.5722960000000  0.4748590000000  0.4578350000000 1.0
C      1  0.4428730000000  0.4826860000000  0.5033280000000 1.0
C      1  0.4474390000000  0.5161260000000  0.4993600000000 1.0
C      1  0.5177670000000  0.5641140000000  0.4340160000000 1.0
C      1  0.5176860000000  0.4368120000000  0.5668700000000 1.0
C      1  0.4907230000000  0.5070510000000  0.4883390000000 1.0
C      1  0.4917620000000  0.4932630000000  0.5130560000000 1.0
C      1  0.4990470000000  0.5695030000000  0.5565570000000 1.0
C      1  0.4977120000000  0.4299280000000  0.4424120000000 1.0
C      1  0.4725590000000  0.5785010000000  0.4394480000000 1.0
C      1  0.4723800000000  0.4223080000000  0.5602780000000 1.0
C      1  0.4664260000000  0.5504660000000  0.5059210000000 1.0
C      1  0.4638750000000  0.4502020000000  0.4947350000000 1.0
C      1  0.4587900000000  0.5397770000000  0.4772100000000 1.0
C      1  0.4585930000000  0.4602010000000  0.5240990000000 1.0
C      1  0.5212490000000  0.4432490000000  0.4877170000000 1.0
C      1  0.5211670000000  0.5570440000000  0.5133460000000 1.0
C      1  0.4725440000000  0.4641210000000  0.4020410000000 1.0
C      1  0.4713210000000  0.5374110000000  0.5967250000000 1.0
C      1  0.4345090000000  0.5453400000000  0.4357590000000 1.0
C      1  0.4339920000000  0.4550490000000  0.5657470000000 1.0
C      1  0.5377910000000  0.5925920000000  0.5056700000000 1.0
C      1  0.5360600000000  0.4062820000000  0.4907900000000 1.0
C      1  0.4490120000000  0.4674430000000  0.5860180000000 1.0
C      1  0.4494770000000  0.5338740000000  0.4147010000000 1.0
C      1  0.5732560000000  0.4490550000000  0.4415840000000 1.0
C      1  0.5763650000000  0.5522040000000  0.5552670000000 1.0
C      1  0.4818400000000  0.4884470000000  0.4641410000000 1.0
C      1  0.4827590000000  0.5112990000000  0.5374660000000 1.0
C      1  0.5918280000000  0.4650100000000  0.5131730000000 1.0
C      1  0.5900240000000  0.5303430000000  0.4931200000000 1.0
C      1  0.5252660000000  0.4895320000000  0.5546880000000 1.0
C      1  0.5245990000000  0.5106410000000  0.4461890000000 1.0
C      1  0.4588100000000  0.5253160000000  0.5276980000000 1.0
C      1  0.4564500000000  0.4757440000000  0.4734490000000 1.0
C      1  0.4439710000000  0.4961160000000  0.5861260000000 1.0
C      1  0.4447550000000  0.5051580000000  0.4132790000000 1.0
C      1  0.4265450000000  0.5590850000000  0.5004140000000 1.0
C      1  0.4226050000000  0.4435990000000  0.4877870000000 1.0
C      1  0.5075880000000  0.4064540000000  0.4953270000000 1.0
C      1  0.5089250000000  0.5940760000000  0.5046470000000 1.0
C      1  0.4137520000000  0.5099360000000  0.5003540000000 1.0
C      1  0.4092590000000  0.4788850000000  0.4998510000000 1.0
C      1  0.5412690000000  0.4761660000000  0.5996350000000 1.0
C      1  0.5424990000000  0.5261020000000  0.4013130000000 1.0
C      1  0.5556340000000  0.5184730000000  0.5851410000000 1.0
C      1  0.5540770000000  0.4828600000000  0.4135330000000 1.0
C      1  0.5370970000000  0.5658950000000  0.5352330000000 1.0
C      1  0.5350220000000  0.4323510000000  0.4607060000000 1.0
END
