TITL C-2782225-7408-966 4.71062814675374e-05 125000 -340.456063858358 0 0 63 (C1) n - 1
REM
REM in /home/nfs/bkarasulu/CARBON/AIRSS/Generating-Clusters/REBO/Higher-Symm/SD-CG/HFTN-CG
REM
REM
REM
REM
REM
REM ./C.cell (12c818d87b63d06a65506943cc24bca4)
REM
REM compiler GCC version 9.2.1 20190827 (Red Hat 9.2.1-1)
REM options -cpp -mtune=generic -march=x86-64 -g -O0 -fpre-include=/usr/include/finclude/math-vector-fortran.h
REM seed 2085990652 -1706689960 1455663952 -1195154850 148112678 -2086643494 -1764578274 -499696273 599090296 -516976087 557630725 -1913527629 1168804642 -127228024 150569334 -1075335767 -1383611695 -51920383 1068571058 -856446587 2102253584 -1887142354 -453158608 -141339599 2031385573 -1624764855 1114062644 535994152 773986095 -1786570771 -1124855423 85948403 1284007026
REM
CELL 1.54180   50.00000   50.00000   50.00000   90.00000   90.00000   90.00000
LATT -1
SFAC C  
C      1  0.5276000000000  0.5628220000000  0.4941200000000 1.0
C      1  0.5142330000000  0.5609080000000  0.5236850000000 1.0
C      1  0.4816650000000  0.5618930000000  0.5199900000000 1.0
C      1  0.4746800000000  0.5630590000000  0.4880720000000 1.0
C      1  0.5028870000000  0.5642140000000  0.4721030000000 1.0
C      1  0.5413230000000  0.5170620000000  0.5362410000000 1.0
C      1  0.4780290000000  0.5183690000000  0.5481730000000 1.0
C      1  0.4472360000000  0.5190380000000  0.4930740000000 1.0
C      1  0.4899280000000  0.5196200000000  0.4465710000000 1.0
C      1  0.5401760000000  0.5189850000000  0.4699690000000 1.0
C      1  0.4551540000000  0.5453260000000  0.5078850000000 1.0
C      1  0.4783320000000  0.5459690000000  0.4592440000000 1.0
C      1  0.5304410000000  0.5481830000000  0.4651420000000 1.0
C      1  0.5415290000000  0.5427100000000  0.5174900000000 1.0
C      1  0.4944680000000  0.5445790000000  0.5450430000000 1.0
C      1  0.4491950000000  0.5403130000000  0.4554010000000 1.0
C      1  0.5270190000000  0.5397530000000  0.4342330000000 1.0
C      1  0.5658320000000  0.5323930000000  0.4974280000000 1.0
C      1  0.5157760000000  0.5388580000000  0.5652870000000 1.0
C      1  0.4424320000000  0.5397950000000  0.5343620000000 1.0
C      1  0.5686210000000  0.5022240000000  0.5303800000000 1.0
C      1  0.4946460000000  0.5058170000000  0.5720270000000 1.0
C      1  0.4296520000000  0.5066240000000  0.5164400000000 1.0
C      1  0.4621010000000  0.5072020000000  0.4373840000000 1.0
C      1  0.5450130000000  0.5059120000000  0.4450290000000 1.0
C      1  0.5170050000000  0.4684340000000  0.4575540000000 1.0
C      1  0.5432660000000  0.4700470000000  0.5032670000000 1.0
C      1  0.5108840000000  0.4679510000000  0.5417550000000 1.0
C      1  0.4631070000000  0.4681000000000  0.5224460000000 1.0
C      1  0.4665470000000  0.4683740000000  0.4708130000000 1.0
C      1  0.4394300000000  0.5089110000000  0.4612340000000 1.0
C      1  0.5169420000000  0.5081440000000  0.4286620000000 1.0
C      1  0.5743880000000  0.5061720000000  0.5025060000000 1.0
C      1  0.5270560000000  0.5073480000000  0.5659470000000 1.0
C      1  0.4453330000000  0.5083680000000  0.5454050000000 1.0
C      1  0.4768560000000  0.4974440000000  0.5236050000000 1.0
C      1  0.4699050000000  0.4976450000000  0.4842760000000 1.0
C      1  0.5049930000000  0.4977470000000  0.4652810000000 1.0
C      1  0.5343470000000  0.5009060000000  0.4920930000000 1.0
C      1  0.5165530000000  0.4970000000000  0.5289490000000 1.0
C      1  0.4858970000000  0.4428580000000  0.5239020000000 1.0
C      1  0.4721310000000  0.4431470000000  0.4929440000000 1.0
C      1  0.4975000000000  0.4435300000000  0.4702690000000 1.0
C      1  0.5266760000000  0.4445720000000  0.4876960000000 1.0
C      1  0.5195390000000  0.4430280000000  0.5202310000000 1.0
C      1  0.5035100000000  0.4795140000000  0.4287350000000 1.0
C      1  0.5680310000000  0.4813170000000  0.4833770000000 1.0
C      1  0.5376160000000  0.4777440000000  0.5588820000000 1.0
C      1  0.4566590000000  0.4795400000000  0.5531090000000 1.0
C      1  0.4354210000000  0.4800530000000  0.4743130000000 1.0
C      1  0.4704830000000  0.4815340000000  0.4235740000000 1.0
C      1  0.5627750000000  0.4842400000000  0.4501140000000 1.0
C      1  0.5684340000000  0.4782910000000  0.5463210000000 1.0
C      1  0.4791950000000  0.4803100000000  0.5778550000000 1.0
C      1  0.4192090000000  0.4811750000000  0.5035670000000 1.0
C      1  0.4836410000000  0.4578360000000  0.5546420000000 1.0
C      1  0.4423600000000  0.4583920000000  0.5004620000000 1.0
C      1  0.4810070000000  0.4585540000000  0.4443270000000 1.0
C      1  0.5474850000000  0.4598340000000  0.4653090000000 1.0
C      1  0.5478910000000  0.4572550000000  0.5328110000000 1.0
C      1  0.5004100000000  0.5035020000000  0.4991860000000 1.0
C      1  0.4999720000000  0.5343000000000  0.4982310000000 1.0
C      1  0.5002170000000  0.4702790000000  0.4990980000000 1.0
END
