TITL C-2782239-8622-1487 0.00279630494887224 125000 -609.667844962412 0 0 104 (C1) n - 1
REM
REM in /home/nfs/bkarasulu/CARBON/AIRSS/Generating-Clusters/REBO/Higher-Symm/SD-CG/HFTN-CG
REM
REM
REM
REM
REM
REM ./C.cell (12c818d87b63d06a65506943cc24bca4)
REM
REM compiler GCC version 9.2.1 20190827 (Red Hat 9.2.1-1)
REM options -cpp -mtune=generic -march=x86-64 -g -O0 -fpre-include=/usr/include/finclude/math-vector-fortran.h
REM seed 690765585 1526836667 -463047793 1860437696 1325193357 264001714 430320996 -1208182609 427516524 445839438 -1529731604 884873116 -184163123 -72053397 410753181 -1222645828 306217407 -30677598 -1751117907 -1707910650 -1984986336 803767849 -1274995574 2095130753 -869156006 -1999537861 1069648013 694314563 258446927 834383122 -762939234 1752034041 -1919743382
REM
CELL 1.54180   50.00000   50.00000   50.00000   90.00000   90.00000   90.00000
LATT -1
SFAC C  
C      1  0.4442200000000  0.5607150000000  0.4748040000000 1.0
C      1  0.4180850000000  0.4842510000000  0.4740700000000 1.0
C      1  0.4649190000000  0.3981340000000  0.4844730000000 1.0
C      1  0.5507730000000  0.4373640000000  0.4744900000000 1.0
C      1  0.5792200000000  0.5168390000000  0.4724140000000 1.0
C      1  0.5163630000000  0.5820020000000  0.4730630000000 1.0
C      1  0.4481390000000  0.5602760000000  0.5244470000000 1.0
C      1  0.4168970000000  0.4843980000000  0.5273310000000 1.0
C      1  0.4620110000000  0.3970080000000  0.5176180000000 1.0
C      1  0.5550260000000  0.4386760000000  0.5248570000000 1.0
C      1  0.5767850000000  0.5173210000000  0.5253760000000 1.0
C      1  0.5124650000000  0.5795450000000  0.5243260000000 1.0
C      1  0.5537370000000  0.4504840000000  0.5539640000000 1.0
C      1  0.5586010000000  0.5155780000000  0.5520120000000 1.0
C      1  0.5145200000000  0.5620150000000  0.5506380000000 1.0
C      1  0.4573470000000  0.5470210000000  0.5531250000000 1.0
C      1  0.4390630000000  0.4844660000000  0.5528030000000 1.0
C      1  0.4755670000000  0.4443570000000  0.5517270000000 1.0
C      1  0.5369150000000  0.4536730000000  0.4489060000000 1.0
C      1  0.5623430000000  0.5143470000000  0.4431940000000 1.0
C      1  0.5216070000000  0.5643480000000  0.4476140000000 1.0
C      1  0.4572480000000  0.5489970000000  0.4491780000000 1.0
C      1  0.4399960000000  0.4832470000000  0.4486000000000 1.0
C      1  0.4788830000000  0.4332080000000  0.4471340000000 1.0
C      1  0.5427020000000  0.5454270000000  0.5559010000000 1.0
C      1  0.4821970000000  0.5681220000000  0.5478190000000 1.0
C      1  0.4424010000000  0.5175990000000  0.5630810000000 1.0
C      1  0.4475800000000  0.4515930000000  0.5473020000000 1.0
C      1  0.5035800000000  0.4352510000000  0.5416690000000 1.0
C      1  0.5588040000000  0.4831200000000  0.5622230000000 1.0
C      1  0.5490770000000  0.5457470000000  0.4416760000000 1.0
C      1  0.4879810000000  0.5640430000000  0.4511710000000 1.0
C      1  0.4482290000000  0.5164190000000  0.4424940000000 1.0
C      1  0.4498590000000  0.4502900000000  0.4529870000000 1.0
C      1  0.5125570000000  0.4299560000000  0.4519270000000 1.0
C      1  0.5546690000000  0.4811060000000  0.4378830000000 1.0
C      1  0.4874770000000  0.4589520000000  0.4619160000000 1.0
C      1  0.5204060000000  0.4810430000000  0.4576360000000 1.0
C      1  0.5339630000000  0.5095110000000  0.4567650000000 1.0
C      1  0.5146130000000  0.5346040000000  0.4579720000000 1.0
C      1  0.4830270000000  0.5310100000000  0.4557450000000 1.0
C      1  0.4697360000000  0.4849360000000  0.4541090000000 1.0
C      1  0.4884480000000  0.4720320000000  0.5493140000000 1.0
C      1  0.5248160000000  0.4567970000000  0.5437180000000 1.0
C      1  0.5260060000000  0.5064680000000  0.5484460000000 1.0
C      1  0.5064660000000  0.5303550000000  0.5490700000000 1.0
C      1  0.4772880000000  0.5241970000000  0.5451040000000 1.0
C      1  0.4679660000000  0.4937100000000  0.5448000000000 1.0
C      1  0.5021290000000  0.6104870000000  0.4842630000000 1.0
C      1  0.4274810000000  0.5412000000000  0.4866550000000 1.0
C      1  0.4157920000000  0.4572810000000  0.4861400000000 1.0
C      1  0.4962000000000  0.3959560000000  0.4823210000000 1.0
C      1  0.5697110000000  0.4582260000000  0.4848140000000 1.0
C      1  0.5733010000000  0.5437800000000  0.4854340000000 1.0
C      1  0.5007160000000  0.6098030000000  0.5140930000000 1.0
C      1  0.4286570000000  0.5414530000000  0.5144420000000 1.0
C      1  0.4150520000000  0.4573360000000  0.5143670000000 1.0
C      1  0.4925920000000  0.3970100000000  0.5129600000000 1.0
C      1  0.5705500000000  0.4591000000000  0.5124360000000 1.0
C      1  0.5730070000000  0.5442000000000  0.5135030000000 1.0
C      1  0.5728010000000  0.4846920000000  0.5310740000000 1.0
C      1  0.5502240000000  0.5585610000000  0.5253530000000 1.0
C      1  0.4787000000000  0.5862760000000  0.5223660000000 1.0
C      1  0.4257650000000  0.5164440000000  0.5332380000000 1.0
C      1  0.4344960000000  0.4397810000000  0.5248560000000 1.0
C      1  0.5109580000000  0.4158130000000  0.5231280000000 1.0
C      1  0.5714930000000  0.4840800000000  0.4673810000000 1.0
C      1  0.5510000000000  0.5576770000000  0.4735070000000 1.0
C      1  0.4823960000000  0.5850260000000  0.4750360000000 1.0
C      1  0.4282030000000  0.5151420000000  0.4694980000000 1.0
C      1  0.4355320000000  0.4395360000000  0.4761220000000 1.0
C      1  0.5176700000000  0.4132380000000  0.4746020000000 1.0
C      1  0.5295360000000  0.5278570000000  0.4215720000000 1.0
C      1  0.5011130000000  0.5348610000000  0.4203370000000 1.0
C      1  0.4719520000000  0.5225230000000  0.4188740000000 1.0
C      1  0.4867050000000  0.5038060000000  0.3997700000000 1.0
C      1  0.5074390000000  0.4884860000000  0.4122610000000 1.0
C      1  0.5339440000000  0.4996380000000  0.4180510000000 1.0
C      1  0.5292460000000  0.5280260000000  0.5818310000000 1.0
C      1  0.5001160000000  0.5310190000000  0.5882470000000 1.0
C      1  0.4696990000000  0.5178150000000  0.5836860000000 1.0
C      1  0.4858480000000  0.4951930000000  0.5981670000000 1.0
C      1  0.5122690000000  0.4860930000000  0.5915780000000 1.0
C      1  0.5401880000000  0.5002200000000  0.5851980000000 1.0
C      1  0.4878690000000  0.5304760000000  0.5138390000000 1.0
C      1  0.4706160000000  0.5010380000000  0.5136420000000 1.0
C      1  0.4924160000000  0.4765480000000  0.5184750000000 1.0
C      1  0.5253110000000  0.4758200000000  0.5170860000000 1.0
C      1  0.5391950000000  0.5053990000000  0.5187650000000 1.0
C      1  0.5211620000000  0.5342710000000  0.5202210000000 1.0
C      1  0.4878940000000  0.5192460000000  0.4830360000000 1.0
C      1  0.4774180000000  0.4902080000000  0.4841920000000 1.0
C      1  0.4988110000000  0.4639900000000  0.4896440000000 1.0
C      1  0.5301700000000  0.4672540000000  0.4864570000000 1.0
C      1  0.5400480000000  0.4983600000000  0.4875590000000 1.0
C      1  0.5195080000000  0.5249730000000  0.4902310000000 1.0
C      1  0.5782680000000  0.4958710000000  0.4989990000000 1.0
C      1  0.5319930000000  0.5700810000000  0.4989930000000 1.0
C      1  0.5356130000000  0.4234320000000  0.5017240000000 1.0
C      1  0.4618150000000  0.5761010000000  0.4975710000000 1.0
C      1  0.4206470000000  0.5046590000000  0.5012170000000 1.0
C      1  0.4455940000000  0.4212300000000  0.5004710000000 1.0
C      1  0.5149950000000  0.4814850000000  0.5608200000000 1.0
C      1  0.4971120000000  0.4791350000000  0.4378800000000 1.0
END
