TITL C-2782240-8521-1482 -0.00201173087889504 125000 -1128.11192192101 0 0 192 (C1) n - 1
REM
REM in /home/nfs/bkarasulu/CARBON/AIRSS/Generating-Clusters/REBO/Higher-Symm/SD-CG/HFTN-CG
REM
REM
REM
REM
REM
REM ./C.cell (12c818d87b63d06a65506943cc24bca4)
REM
REM compiler GCC version 9.2.1 20190827 (Red Hat 9.2.1-1)
REM options -cpp -mtune=generic -march=x86-64 -g -O0 -fpre-include=/usr/include/finclude/math-vector-fortran.h
REM seed 2026322070 -895980032 -1190985774 379896474 -1312276338 -484362775 -114112823 -2142905673 714463175 828576678 926116884 -1491869154 -894677827 -1840663420 1399309954 -568608028 -1167763300 2011828278 52754469 -253969716 -1615191279 1596830318 -1761337267 -1683557193 406396145 2111238876 1662374404 740883807 -814827612 -1856465478 -1821887308 931148398 1985344693
REM
CELL 1.54180   50.00000   50.00000   50.00000   90.00000   90.00000   90.00000
LATT -1
SFAC C  
C      1  0.4485140000000  0.4182160000000  0.5060350000000 1.0
C      1  0.4459510000000  0.4411100000000  0.4397180000000 1.0
C      1  0.4453400000000  0.5081590000000  0.4191210000000 1.0
C      1  0.4460790000000  0.5693780000000  0.4568000000000 1.0
C      1  0.4416100000000  0.5747250000000  0.5315170000000 1.0
C      1  0.4426030000000  0.5208950000000  0.5797370000000 1.0
C      1  0.4509800000000  0.4526220000000  0.5685280000000 1.0
C      1  0.4578040000000  0.4640590000000  0.5110070000000 1.0
C      1  0.4563220000000  0.4669490000000  0.4793970000000 1.0
C      1  0.4598260000000  0.4957450000000  0.4612930000000 1.0
C      1  0.4593260000000  0.5283130000000  0.4722220000000 1.0
C      1  0.4547820000000  0.5398680000000  0.5039040000000 1.0
C      1  0.4594410000000  0.5208190000000  0.5318220000000 1.0
C      1  0.4617100000000  0.4876260000000  0.5342800000000 1.0
C      1  0.5059660000000  0.5934350000000  0.5701240000000 1.0
C      1  0.5038400000000  0.5063550000000  0.6158880000000 1.0
C      1  0.5009880000000  0.4140450000000  0.5774120000000 1.0
C      1  0.4999570000000  0.3840320000000  0.4822300000000 1.0
C      1  0.5059280000000  0.4463910000000  0.4054040000000 1.0
C      1  0.5051100000000  0.5423400000000  0.3976300000000 1.0
C      1  0.5049790000000  0.6066830000000  0.4731390000000 1.0
C      1  0.5347080000000  0.5046680000000  0.5334950000000 1.0
C      1  0.5343000000000  0.4747000000000  0.5227500000000 1.0
C      1  0.5341230000000  0.4652410000000  0.4911460000000 1.0
C      1  0.5309960000000  0.4813190000000  0.4636300000000 1.0
C      1  0.5351000000000  0.5115100000000  0.4636450000000 1.0
C      1  0.5351610000000  0.5342610000000  0.4855970000000 1.0
C      1  0.5348510000000  0.5311080000000  0.5167260000000 1.0
C      1  0.6020820000000  0.4620040000000  0.5067380000000 1.0
C      1  0.6012960000000  0.4723230000000  0.4741870000000 1.0
C      1  0.6051270000000  0.5039810000000  0.4612030000000 1.0
C      1  0.6043220000000  0.5333910000000  0.4783550000000 1.0
C      1  0.6034690000000  0.5384470000000  0.5120890000000 1.0
C      1  0.6026670000000  0.5153280000000  0.5371670000000 1.0
C      1  0.6021880000000  0.4813010000000  0.5347980000000 1.0
C      1  0.5080270000000  0.3899550000000  0.5324090000000 1.0
C      1  0.5078610000000  0.4109940000000  0.4394500000000 1.0
C      1  0.5083540000000  0.4940380000000  0.3921520000000 1.0
C      1  0.5093560000000  0.5807860000000  0.4288980000000 1.0
C      1  0.5142260000000  0.6128960000000  0.5236760000000 1.0
C      1  0.5137020000000  0.5545600000000  0.6026860000000 1.0
C      1  0.5089100000000  0.4568300000000  0.6048410000000 1.0
C      1  0.5222800000000  0.5523630000000  0.4535130000000 1.0
C      1  0.5216230000000  0.5678390000000  0.5111610000000 1.0
C      1  0.5212330000000  0.5319550000000  0.5587580000000 1.0
C      1  0.5213620000000  0.4728380000000  0.5603740000000 1.0
C      1  0.5231870000000  0.4359020000000  0.5157480000000 1.0
C      1  0.5195740000000  0.4438720000000  0.4586830000000 1.0
C      1  0.5158240000000  0.5026380000000  0.4302090000000 1.0
C      1  0.4927120000000  0.4799220000000  0.6116660000000 1.0
C      1  0.4912070000000  0.3997620000000  0.5541930000000 1.0
C      1  0.4911510000000  0.3941980000000  0.4566160000000 1.0
C      1  0.4935770000000  0.4695090000000  0.3942360000000 1.0
C      1  0.4934820000000  0.5648610000000  0.4102590000000 1.0
C      1  0.4977100000000  0.6084060000000  0.5005970000000 1.0
C      1  0.4965500000000  0.5704450000000  0.5855330000000 1.0
C      1  0.5019370000000  0.4695000000000  0.5163810000000 1.0
C      1  0.5007000000000  0.4669450000000  0.4851090000000 1.0
C      1  0.4992300000000  0.4899660000000  0.4639610000000 1.0
C      1  0.5023470000000  0.5208850000000  0.4672130000000 1.0
C      1  0.5023780000000  0.5371810000000  0.4944570000000 1.0
C      1  0.5021450000000  0.5257780000000  0.5242490000000 1.0
C      1  0.5023530000000  0.4958520000000  0.5341010000000 1.0
C      1  0.4282510000000  0.4948750000000  0.5752390000000 1.0
C      1  0.4310390000000  0.4419830000000  0.5475230000000 1.0
C      1  0.4295400000000  0.4232510000000  0.4827330000000 1.0
C      1  0.4285130000000  0.4609960000000  0.4292570000000 1.0
C      1  0.4281580000000  0.5306970000000  0.4313930000000 1.0
C      1  0.4284380000000  0.5734980000000  0.4811860000000 1.0
C      1  0.4271810000000  0.5604550000000  0.5501070000000 1.0
C      1  0.5387220000000  0.3999870000000  0.5229800000000 1.0
C      1  0.5405670000000  0.4192540000000  0.4351710000000 1.0
C      1  0.5396570000000  0.5016240000000  0.3975280000000 1.0
C      1  0.5429740000000  0.5808920000000  0.4349210000000 1.0
C      1  0.5439080000000  0.6009270000000  0.5255430000000 1.0
C      1  0.5420770000000  0.5440100000000  0.5931330000000 1.0
C      1  0.5389940000000  0.4559260000000  0.5919020000000 1.0
C      1  0.4009350000000  0.5299660000000  0.4790980000000 1.0
C      1  0.3937480000000  0.5364660000000  0.5119230000000 1.0
C      1  0.3965330000000  0.5144130000000  0.5380290000000 1.0
C      1  0.3923950000000  0.4813170000000  0.5305190000000 1.0
C      1  0.4024020000000  0.4592060000000  0.5065550000000 1.0
C      1  0.3954140000000  0.4688020000000  0.4746500000000 1.0
C      1  0.3960260000000  0.5004740000000  0.4622380000000 1.0
C      1  0.4825850000000  0.4924400000000  0.5588610000000 1.0
C      1  0.4820130000000  0.4491400000000  0.5279380000000 1.0
C      1  0.4805820000000  0.4455860000000  0.4755470000000 1.0
C      1  0.4800360000000  0.4825040000000  0.4397630000000 1.0
C      1  0.4812600000000  0.5345220000000  0.4484150000000 1.0
C      1  0.4799540000000  0.5579310000000  0.4932800000000 1.0
C      1  0.4817930000000  0.5423370000000  0.5416410000000 1.0
C      1  0.5349490000000  0.5352710000000  0.4031530000000 1.0
C      1  0.5318110000000  0.5949950000000  0.4628330000000 1.0
C      1  0.5262840000000  0.5846640000000  0.5497450000000 1.0
C      1  0.5237690000000  0.5152760000000  0.5955060000000 1.0
C      1  0.5214450000000  0.4346710000000  0.5716020000000 1.0
C      1  0.5192670000000  0.4022020000000  0.4949650000000 1.0
C      1  0.5342580000000  0.4455960000000  0.4144840000000 1.0
C      1  0.5663310000000  0.4677630000000  0.5235860000000 1.0
C      1  0.5658620000000  0.4626140000000  0.4899730000000 1.0
C      1  0.5706500000000  0.4852720000000  0.4660370000000 1.0
C      1  0.5663470000000  0.5190200000000  0.4657680000000 1.0
C      1  0.5668580000000  0.5378740000000  0.4939080000000 1.0
C      1  0.5658180000000  0.5287040000000  0.5264440000000 1.0
C      1  0.5659870000000  0.4976600000000  0.5392410000000 1.0
C      1  0.4950540000000  0.3748090000000  0.5109440000000 1.0
C      1  0.4926430000000  0.4322400000000  0.4264040000000 1.0
C      1  0.4923380000000  0.5169190000000  0.3999370000000 1.0
C      1  0.4940910000000  0.5869000000000  0.4527300000000 1.0
C      1  0.5013880000000  0.6158070000000  0.5496190000000 1.0
C      1  0.5010450000000  0.5360490000000  0.6209770000000 1.0
C      1  0.4956480000000  0.4311340000000  0.6018960000000 1.0
C      1  0.5716830000000  0.5697300000000  0.4874380000000 1.0
C      1  0.5713080000000  0.5539610000000  0.5461610000000 1.0
C      1  0.5711050000000  0.4982800000000  0.5715750000000 1.0
C      1  0.5716770000000  0.4418970000000  0.5433070000000 1.0
C      1  0.5718180000000  0.4317180000000  0.4799980000000 1.0
C      1  0.5660470000000  0.4722420000000  0.4374630000000 1.0
C      1  0.5746350000000  0.5347620000000  0.4367740000000 1.0
C      1  0.4274880000000  0.5259640000000  0.5295510000000 1.0
C      1  0.4309540000000  0.4948850000000  0.5425790000000 1.0
C      1  0.4291000000000  0.4663530000000  0.5252970000000 1.0
C      1  0.4268050000000  0.4555660000000  0.4733040000000 1.0
C      1  0.4276340000000  0.4873940000000  0.4609840000000 1.0
C      1  0.4295240000000  0.5214740000000  0.4626920000000 1.0
C      1  0.4245000000000  0.5497940000000  0.5053970000000 1.0
C      1  0.5200940000000  0.4995540000000  0.5699360000000 1.0
C      1  0.5188350000000  0.4439240000000  0.5424190000000 1.0
C      1  0.5167200000000  0.4303590000000  0.4832800000000 1.0
C      1  0.5203270000000  0.4691480000000  0.4349330000000 1.0
C      1  0.5200290000000  0.5318890000000  0.4330830000000 1.0
C      1  0.5200450000000  0.5708910000000  0.4823650000000 1.0
C      1  0.5194210000000  0.5561300000000  0.5433480000000 1.0
C      1  0.4015580000000  0.4324790000000  0.4939990000000 1.0
C      1  0.4028970000000  0.4625560000000  0.4420410000000 1.0
C      1  0.3975730000000  0.5205040000000  0.4388170000000 1.0
C      1  0.3993610000000  0.5600450000000  0.4762440000000 1.0
C      1  0.4009720000000  0.5536840000000  0.5404920000000 1.0
C      1  0.3983190000000  0.5007890000000  0.5649090000000 1.0
C      1  0.3998650000000  0.4553950000000  0.5497770000000 1.0
C      1  0.4420150000000  0.4174020000000  0.4549520000000 1.0
C      1  0.4422970000000  0.4805130000000  0.4120620000000 1.0
C      1  0.4421650000000  0.5582180000000  0.4303730000000 1.0
C      1  0.4448230000000  0.5867120000000  0.5047300000000 1.0
C      1  0.4440960000000  0.5492470000000  0.5704980000000 1.0
C      1  0.4437070000000  0.4719940000000  0.5878490000000 1.0
C      1  0.4428400000000  0.4163860000000  0.5341540000000 1.0
C      1  0.4649920000000  0.4709990000000  0.3969470000000 1.0
C      1  0.4646990000000  0.5636250000000  0.4134350000000 1.0
C      1  0.4729990000000  0.5967620000000  0.5061980000000 1.0
C      1  0.4730750000000  0.5565030000000  0.5779740000000 1.0
C      1  0.4643310000000  0.4777730000000  0.6068290000000 1.0
C      1  0.4630600000000  0.4024880000000  0.5488370000000 1.0
C      1  0.4628810000000  0.3981900000000  0.4537700000000 1.0
C      1  0.5921560000000  0.5565920000000  0.4649340000000 1.0
C      1  0.5913860000000  0.5632520000000  0.5214830000000 1.0
C      1  0.5909240000000  0.5234570000000  0.5626360000000 1.0
C      1  0.5898140000000  0.4664050000000  0.5570240000000 1.0
C      1  0.5888910000000  0.4354650000000  0.5081870000000 1.0
C      1  0.5898030000000  0.4514800000000  0.4505420000000 1.0
C      1  0.5890740000000  0.5055050000000  0.4359400000000 1.0
C      1  0.5714030000000  0.4225430000000  0.4497800000000 1.0
C      1  0.5676020000000  0.4904410000000  0.4137330000000 1.0
C      1  0.5739470000000  0.5662840000000  0.4374420000000 1.0
C      1  0.5731030000000  0.5903400000000  0.5111740000000 1.0
C      1  0.5719430000000  0.5482430000000  0.5769310000000 1.0
C      1  0.5693660000000  0.4703050000000  0.5845680000000 1.0
C      1  0.5689410000000  0.4155710000000  0.5281230000000 1.0
C      1  0.5637230000000  0.5229840000000  0.4105710000000 1.0
C      1  0.5529590000000  0.5616710000000  0.4623360000000 1.0
C      1  0.5522110000000  0.5680760000000  0.5245280000000 1.0
C      1  0.5517800000000  0.5233010000000  0.5684230000000 1.0
C      1  0.5512330000000  0.4581580000000  0.5603670000000 1.0
C      1  0.5513820000000  0.4239500000000  0.5020150000000 1.0
C      1  0.5504680000000  0.4483110000000  0.4503420000000 1.0
C      1  0.4757290000000  0.5647490000000  0.4632940000000 1.0
C      1  0.4734380000000  0.5679600000000  0.5252830000000 1.0
C      1  0.4742270000000  0.5230480000000  0.5688360000000 1.0
C      1  0.4767150000000  0.4588910000000  0.5573030000000 1.0
C      1  0.4747200000000  0.4291710000000  0.5020770000000 1.0
C      1  0.4748750000000  0.4499810000000  0.4431180000000 1.0
C      1  0.4755460000000  0.5130190000000  0.4250650000000 1.0
C      1  0.4837900000000  0.5008020000000  0.4990540000000 1.0
C      1  0.3951850000000  0.4978410000000  0.5020720000000 1.0
C      1  0.3708890000000  0.5072740000000  0.4924100000000 1.0
C      1  0.5798650000000  0.5008330000000  0.5015450000000 1.0
C      1  0.6343630000000  0.5012810000000  0.5000150000000 1.0
C      1  0.5518070000000  0.5002650000000  0.4979210000000 1.0
C      1  0.4502020000000  0.5008600000000  0.4990640000000 1.0
C      1  0.5177730000000  0.5006460000000  0.4976570000000 1.0
C      1  0.6080410000000  0.5007680000000  0.5007150000000 1.0
C      1  0.4229560000000  0.5022770000000  0.4976850000000 1.0
END
