TITL C-2782227-3064-1249 0.000963473696966317 125000 -1218.61268986837 0 0 200 (C1) n - 1
REM
REM in /home/nfs/bkarasulu/CARBON/AIRSS/Generating-Clusters/REBO/Higher-Symm/SD-CG/HFTN-CG
REM
REM
REM
REM
REM
REM ./C.cell (12c818d87b63d06a65506943cc24bca4)
REM
REM compiler GCC version 9.2.1 20190827 (Red Hat 9.2.1-1)
REM options -cpp -mtune=generic -march=x86-64 -g -O0 -fpre-include=/usr/include/finclude/math-vector-fortran.h
REM seed -1906837556 1421941209 1188334213 1808112822 515532213 -1518282127 744923128 -210080576 1658437249 -1220584245 -1445613811 -601234866 -990686227 1460922260 -198133941 -28578036 -1479074620 -930826539 217131676 -1180284251 741010922 -713058524 -411936519 1304080172 1841738648 -1502394857 682018455 -1583912577 -777351361 -148547420 150650084 1653175422 -118802259
REM
CELL 1.54180   50.00000   50.00000   50.00000   90.00000   90.00000   90.00000
LATT -1
SFAC C  
C      1  0.5700690000000  0.4963970000000  0.4053900000000 1.0
C      1  0.5414970000000  0.5591410000000  0.4188670000000 1.0
C      1  0.4498490000000  0.5443650000000  0.4101940000000 1.0
C      1  0.4364040000000  0.4628650000000  0.4030880000000 1.0
C      1  0.5025290000000  0.4280410000000  0.4184430000000 1.0
C      1  0.4332550000000  0.4936510000000  0.5907060000000 1.0
C      1  0.4740320000000  0.5616080000000  0.5909480000000 1.0
C      1  0.5503280000000  0.5428870000000  0.5898080000000 1.0
C      1  0.5631610000000  0.4635110000000  0.5969090000000 1.0
C      1  0.4976610000000  0.4274740000000  0.5818870000000 1.0
C      1  0.4235820000000  0.5176760000000  0.4641420000000 1.0
C      1  0.4594430000000  0.4345630000000  0.4627100000000 1.0
C      1  0.5500260000000  0.4416630000000  0.4645430000000 1.0
C      1  0.5706610000000  0.5291460000000  0.4615340000000 1.0
C      1  0.4935630000000  0.5767220000000  0.4635690000000 1.0
C      1  0.5758310000000  0.5172030000000  0.5347470000000 1.0
C      1  0.5404680000000  0.4346250000000  0.5374270000000 1.0
C      1  0.4496600000000  0.4421080000000  0.5358680000000 1.0
C      1  0.4276860000000  0.5304480000000  0.5363180000000 1.0
C      1  0.5065480000000  0.5780800000000  0.5361730000000 1.0
C      1  0.5147690000000  0.5785020000000  0.4970790000000 1.0
C      1  0.4303620000000  0.5383650000000  0.4972090000000 1.0
C      1  0.4415060000000  0.4462040000000  0.4960730000000 1.0
C      1  0.5336770000000  0.4287930000000  0.4983440000000 1.0
C      1  0.5779140000000  0.5098420000000  0.4954550000000 1.0
C      1  0.4847420000000  0.5784150000000  0.5031110000000 1.0
C      1  0.5691990000000  0.5385950000000  0.5021020000000 1.0
C      1  0.5583450000000  0.4464010000000  0.5041180000000 1.0
C      1  0.4660580000000  0.4285690000000  0.5023210000000 1.0
C      1  0.4208810000000  0.5098660000000  0.5032160000000 1.0
C      1  0.4757010000000  0.5165960000000  0.5237010000000 1.0
C      1  0.4761060000000  0.4824900000000  0.5239630000000 1.0
C      1  0.5086320000000  0.4723060000000  0.5237730000000 1.0
C      1  0.5280310000000  0.5003390000000  0.5227920000000 1.0
C      1  0.5078670000000  0.5278550000000  0.5229270000000 1.0
C      1  0.5241930000000  0.5167770000000  0.4755530000000 1.0
C      1  0.5232530000000  0.4826890000000  0.4760120000000 1.0
C      1  0.4905650000000  0.4729470000000  0.4762500000000 1.0
C      1  0.4713790000000  0.5011500000000  0.4763450000000 1.0
C      1  0.4920970000000  0.5282360000000  0.4759550000000 1.0
C      1  0.5517320000000  0.5699240000000  0.4851490000000 1.0
C      1  0.4501720000000  0.5706260000000  0.4852950000000 1.0
C      1  0.4164150000000  0.4749350000000  0.4849770000000 1.0
C      1  0.4989880000000  0.4139380000000  0.4856010000000 1.0
C      1  0.5823070000000  0.4717470000000  0.4852790000000 1.0
C      1  0.4478810000000  0.5693840000000  0.5147620000000 1.0
C      1  0.5495490000000  0.5707880000000  0.5145510000000 1.0
C      1  0.5831620000000  0.4755360000000  0.5148610000000 1.0
C      1  0.5008060000000  0.4136990000000  0.5147850000000 1.0
C      1  0.4176560000000  0.4719970000000  0.5145750000000 1.0
C      1  0.4284860000000  0.5579470000000  0.4255020000000 1.0
C      1  0.4224060000000  0.4500230000000  0.4245380000000 1.0
C      1  0.5280110000000  0.4084250000000  0.4261360000000 1.0
C      1  0.5939040000000  0.4949750000000  0.4257280000000 1.0
C      1  0.5325110000000  0.5905050000000  0.4255170000000 1.0
C      1  0.5713800000000  0.5569130000000  0.5741930000000 1.0
C      1  0.5773740000000  0.4507420000000  0.5754930000000 1.0
C      1  0.4724830000000  0.4076020000000  0.5739720000000 1.0
C      1  0.4079700000000  0.4950400000000  0.5750130000000 1.0
C      1  0.4670730000000  0.5858520000000  0.5750480000000 1.0
C      1  0.5661440000000  0.5282190000000  0.4169600000000 1.0
C      1  0.4877700000000  0.5682250000000  0.4226340000000 1.0
C      1  0.4311250000000  0.5053450000000  0.4246440000000 1.0
C      1  0.4655380000000  0.4417520000000  0.4205150000000 1.0
C      1  0.5501750000000  0.4545220000000  0.4252210000000 1.0
C      1  0.4383450000000  0.5345300000000  0.5780620000000 1.0
C      1  0.5136840000000  0.5689360000000  0.5778820000000 1.0
C      1  0.5684920000000  0.5061100000000  0.5755830000000 1.0
C      1  0.5343280000000  0.4419080000000  0.5795640000000 1.0
C      1  0.4495990000000  0.4519700000000  0.5772830000000 1.0
C      1  0.5465910000000  0.5380980000000  0.4778100000000 1.0
C      1  0.4785990000000  0.5555010000000  0.4793650000000 1.0
C      1  0.4411330000000  0.4972230000000  0.4800070000000 1.0
C      1  0.4843960000000  0.4426640000000  0.4786950000000 1.0
C      1  0.5496060000000  0.4678930000000  0.4802320000000 1.0
C      1  0.4535090000000  0.5377290000000  0.5209780000000 1.0
C      1  0.5210980000000  0.5556010000000  0.5204130000000 1.0
C      1  0.5578690000000  0.4970430000000  0.5186700000000 1.0
C      1  0.5150910000000  0.4422000000000  0.5218970000000 1.0
C      1  0.4496920000000  0.4679830000000  0.5200880000000 1.0
C      1  0.4941860000000  0.4758770000000  0.3957410000000 1.0
C      1  0.5211960000000  0.4872020000000  0.3973280000000 1.0
C      1  0.5181400000000  0.5165910000000  0.3949910000000 1.0
C      1  0.4896730000000  0.5233750000000  0.3965010000000 1.0
C      1  0.4738130000000  0.4975530000000  0.3976260000000 1.0
C      1  0.5053740000000  0.4756150000000  0.6053680000000 1.0
C      1  0.4780540000000  0.4861810000000  0.6045910000000 1.0
C      1  0.4797210000000  0.5160630000000  0.6040210000000 1.0
C      1  0.5090300000000  0.5234220000000  0.6030790000000 1.0
C      1  0.5251860000000  0.4976230000000  0.6025180000000 1.0
C      1  0.5360050000000  0.3981590000000  0.4833480000000 1.0
C      1  0.6077640000000  0.5022320000000  0.4805530000000 1.0
C      1  0.5314280000000  0.6044470000000  0.4824160000000 1.0
C      1  0.4113800000000  0.5619270000000  0.4813100000000 1.0
C      1  0.4136040000000  0.4348090000000  0.4799060000000 1.0
C      1  0.4642610000000  0.3976020000000  0.5167760000000 1.0
C      1  0.3914590000000  0.5019060000000  0.5186870000000 1.0
C      1  0.4679660000000  0.6036850000000  0.5189430000000 1.0
C      1  0.5883340000000  0.5619600000000  0.5182080000000 1.0
C      1  0.5864000000000  0.4353680000000  0.5203220000000 1.0
C      1  0.4395020000000  0.4606470000000  0.4644570000000 1.0
C      1  0.5202870000000  0.4305180000000  0.4663880000000 1.0
C      1  0.5721440000000  0.4963790000000  0.4640120000000 1.0
C      1  0.5247620000000  0.5691130000000  0.4653540000000 1.0
C      1  0.4430540000000  0.5439560000000  0.4652990000000 1.0
C      1  0.5602620000000  0.4610740000000  0.5355760000000 1.0
C      1  0.4792250000000  0.4300240000000  0.5343140000000 1.0
C      1  0.4274420000000  0.4975520000000  0.5350080000000 1.0
C      1  0.4753270000000  0.5680720000000  0.5349450000000 1.0
C      1  0.5566810000000  0.5438170000000  0.5340560000000 1.0
C      1  0.5030540000000  0.6151710000000  0.4866710000000 1.0
C      1  0.3921400000000  0.5385400000000  0.4857590000000 1.0
C      1  0.4306590000000  0.4099110000000  0.4835060000000 1.0
C      1  0.5649960000000  0.4064040000000  0.4879460000000 1.0
C      1  0.6088010000000  0.5325860000000  0.4845260000000 1.0
C      1  0.4960420000000  0.6148380000000  0.5148730000000 1.0
C      1  0.6074840000000  0.5387130000000  0.5132340000000 1.0
C      1  0.5696310000000  0.4102720000000  0.5166910000000 1.0
C      1  0.4351130000000  0.4054570000000  0.5121530000000 1.0
C      1  0.3897430000000  0.5322000000000  0.5142600000000 1.0
C      1  0.4052650000000  0.5192400000000  0.5601650000000 1.0
C      1  0.4508070000000  0.4166430000000  0.5590700000000 1.0
C      1  0.5665370000000  0.4298940000000  0.5596870000000 1.0
C      1  0.5875390000000  0.5391460000000  0.5589530000000 1.0
C      1  0.4890550000000  0.5959110000000  0.5601080000000 1.0
C      1  0.5963060000000  0.5184660000000  0.4412000000000 1.0
C      1  0.5499220000000  0.4158920000000  0.4414590000000 1.0
C      1  0.4334860000000  0.4293700000000  0.4404170000000 1.0
C      1  0.4121130000000  0.5399830000000  0.4403250000000 1.0
C      1  0.5096420000000  0.5963500000000  0.4402690000000 1.0
C      1  0.5129750000000  0.4756720000000  0.4437180000000 1.0
C      1  0.5271210000000  0.5046410000000  0.4432520000000 1.0
C      1  0.5040900000000  0.5279720000000  0.4433840000000 1.0
C      1  0.4760050000000  0.5120390000000  0.4436850000000 1.0
C      1  0.4815530000000  0.4810720000000  0.4437340000000 1.0
C      1  0.4861690000000  0.4753280000000  0.5562860000000 1.0
C      1  0.4732400000000  0.5052090000000  0.5562630000000 1.0
C      1  0.4966380000000  0.5269830000000  0.5556950000000 1.0
C      1  0.5238910000000  0.5114610000000  0.5552390000000 1.0
C      1  0.5179740000000  0.4808170000000  0.5558640000000 1.0
C      1  0.5320020000000  0.5886080000000  0.5646480000000 1.0
C      1  0.4251470000000  0.5578740000000  0.5647900000000 1.0
C      1  0.4222640000000  0.4467840000000  0.5638730000000 1.0
C      1  0.5245570000000  0.4120540000000  0.5659540000000 1.0
C      1  0.5937700000000  0.4970240000000  0.5637560000000 1.0
C      1  0.4683540000000  0.5885260000000  0.4355940000000 1.0
C      1  0.5727260000000  0.5572560000000  0.4336030000000 1.0
C      1  0.5773920000000  0.4482190000000  0.4368050000000 1.0
C      1  0.4757120000000  0.4121300000000  0.4342550000000 1.0
C      1  0.4057120000000  0.4962370000000  0.4360260000000 1.0
C      1  0.4234220000000  0.4222850000000  0.5395700000000 1.0
C      1  0.5501290000000  0.4041610000000  0.5442880000000 1.0
C      1  0.6079170000000  0.5184980000000  0.5408680000000 1.0
C      1  0.5153370000000  0.6089910000000  0.5425150000000 1.0
C      1  0.4008810000000  0.5481950000000  0.5423950000000 1.0
C      1  0.5770340000000  0.4234240000000  0.4607360000000 1.0
C      1  0.4502410000000  0.4039380000000  0.4559340000000 1.0
C      1  0.3915670000000  0.5188350000000  0.4577620000000 1.0
C      1  0.4838900000000  0.6081640000000  0.4592580000000 1.0
C      1  0.5966740000000  0.5488100000000  0.4568220000000 1.0
C      1  0.4282220000000  0.5818620000000  0.4657130000000 1.0
C      1  0.3996850000000  0.4568880000000  0.4651500000000 1.0
C      1  0.5114380000000  0.3911920000000  0.4676390000000 1.0
C      1  0.6066620000000  0.4757770000000  0.4658060000000 1.0
C      1  0.5556330000000  0.5954100000000  0.4669590000000 1.0
C      1  0.5716320000000  0.5815440000000  0.5343080000000 1.0
C      1  0.6001010000000  0.4577080000000  0.5348200000000 1.0
C      1  0.4889330000000  0.3905900000000  0.5325390000000 1.0
C      1  0.3935840000000  0.4760850000000  0.5345470000000 1.0
C      1  0.4441710000000  0.5935160000000  0.5347730000000 1.0
C      1  0.5210880000000  0.4460150000000  0.4376800000000 1.0
C      1  0.5560300000000  0.5021550000000  0.4363930000000 1.0
C      1  0.5147280000000  0.5565250000000  0.4366970000000 1.0
C      1  0.4506990000000  0.5268010000000  0.4368990000000 1.0
C      1  0.4575980000000  0.4644310000000  0.4369390000000 1.0
C      1  0.4781580000000  0.4457030000000  0.5633410000000 1.0
C      1  0.4442390000000  0.5066590000000  0.5631310000000 1.0
C      1  0.4889350000000  0.5548070000000  0.5627860000000 1.0
C      1  0.5486040000000  0.5265570000000  0.5618750000000 1.0
C      1  0.5419880000000  0.4646010000000  0.5630390000000 1.0
C      1  0.4464330000000  0.4895950000000  0.4055650000000 1.0
C      1  0.4869350000000  0.4493480000000  0.4004530000000 1.0
C      1  0.5461690000000  0.4763410000000  0.4067890000000 1.0
C      1  0.5390620000000  0.5344190000000  0.3991690000000 1.0
C      1  0.4770540000000  0.5484740000000  0.4041020000000 1.0
C      1  0.5529100000000  0.4902470000000  0.5945390000000 1.0
C      1  0.5129660000000  0.4493000000000  0.5998400000000 1.0
C      1  0.4527870000000  0.4738370000000  0.5964160000000 1.0
C      1  0.4605340000000  0.5374030000000  0.5972400000000 1.0
C      1  0.5233610000000  0.5482810000000  0.5965120000000 1.0
C      1  0.4034210000000  0.4669880000000  0.4387140000000 1.0
C      1  0.5046220000000  0.3953060000000  0.4407100000000 1.0
C      1  0.5972200000000  0.4701700000000  0.4393130000000 1.0
C      1  0.5589820000000  0.5877520000000  0.4401020000000 1.0
C      1  0.4391060000000  0.5813930000000  0.4391780000000 1.0
C      1  0.5962070000000  0.4678050000000  0.5612350000000 1.0
C      1  0.4958870000000  0.3948080000000  0.5594380000000 1.0
C      1  0.4029470000000  0.4699190000000  0.5609510000000 1.0
C      1  0.4414330000000  0.5829440000000  0.5612780000000 1.0
C      1  0.5608790000000  0.5807360000000  0.5608810000000 1.0
END
