TITL C-2782232-2968-64 -0.0108952809241873 125000 -1145.12537321784 0 0 199 (C1) n - 1
REM
REM in /home/nfs/bkarasulu/CARBON/AIRSS/Generating-Clusters/REBO/Higher-Symm/SD-CG/HFTN-CG
REM
REM
REM
REM
REM
REM ./C.cell (12c818d87b63d06a65506943cc24bca4)
REM
REM compiler GCC version 9.2.1 20190827 (Red Hat 9.2.1-1)
REM options -cpp -mtune=generic -march=x86-64 -g -O0 -fpre-include=/usr/include/finclude/math-vector-fortran.h
REM seed 1808708013 -975116876 1304870993 1130354622 337346726 -1184469823 1359553793 -1058364905 -42614748 1786033647 -529923776 -2086067445 -1598747676 311082278 -1401394444 1113063492 -1160815355 -858957414 -1173195856 430743082 111318224 2111638605 177353519 -1846856435 -1634284237 1841424873 292354677 2135292768 1229236906 1061696507 -1716146393 714268397 -712191490
REM
CELL 1.54180   50.00000   50.00000   50.00000   90.00000   90.00000   90.00000
LATT -1
SFAC C  
C      1  0.4369370000000  0.4095790000000  0.5203030000000 1.0
C      1  0.5551010000000  0.5946070000000  0.5104810000000 1.0
C      1  0.4382500000000  0.4084250000000  0.4880750000000 1.0
C      1  0.5521080000000  0.5890730000000  0.4797300000000 1.0
C      1  0.6086670000000  0.4500090000000  0.4775360000000 1.0
C      1  0.3982970000000  0.5407400000000  0.4680590000000 1.0
C      1  0.6000730000000  0.4485780000000  0.5338950000000 1.0
C      1  0.4018340000000  0.5429960000000  0.5353340000000 1.0
C      1  0.4530640000000  0.4614280000000  0.4506170000000 1.0
C      1  0.5520480000000  0.5352240000000  0.4445670000000 1.0
C      1  0.4492070000000  0.4661290000000  0.5525080000000 1.0
C      1  0.5509570000000  0.5460750000000  0.5541890000000 1.0
C      1  0.5017920000000  0.4338450000000  0.5545960000000 1.0
C      1  0.5053320000000  0.5537640000000  0.5536700000000 1.0
C      1  0.5012200000000  0.4389400000000  0.4523620000000 1.0
C      1  0.4947930000000  0.5684720000000  0.4474880000000 1.0
C      1  0.4454050000000  0.6036030000000  0.4756390000000 1.0
C      1  0.5564730000000  0.3994520000000  0.4828730000000 1.0
C      1  0.4476830000000  0.5974740000000  0.5082760000000 1.0
C      1  0.5503890000000  0.3982150000000  0.5154280000000 1.0
C      1  0.4643920000000  0.5080670000000  0.4504510000000 1.0
C      1  0.5533480000000  0.4958270000000  0.4547360000000 1.0
C      1  0.4656920000000  0.4939620000000  0.5410800000000 1.0
C      1  0.5535300000000  0.4752390000000  0.5519950000000 1.0
C      1  0.4347390000000  0.5853090000000  0.5361150000000 1.0
C      1  0.5675840000000  0.4062510000000  0.5418990000000 1.0
C      1  0.4277050000000  0.5779850000000  0.4535780000000 1.0
C      1  0.5664080000000  0.4197210000000  0.4577880000000 1.0
C      1  0.5133420000000  0.5913390000000  0.4887290000000 1.0
C      1  0.4775050000000  0.4133960000000  0.4823220000000 1.0
C      1  0.5161870000000  0.5877270000000  0.5162790000000 1.0
C      1  0.4801600000000  0.4134490000000  0.5102670000000 1.0
C      1  0.4835580000000  0.5311630000000  0.5582550000000 1.0
C      1  0.5221560000000  0.4565330000000  0.5679380000000 1.0
C      1  0.4820430000000  0.5413550000000  0.4371960000000 1.0
C      1  0.5182760000000  0.4601360000000  0.4388950000000 1.0
C      1  0.4901920000000  0.4601580000000  0.5986000000000 1.0
C      1  0.5060460000000  0.5416150000000  0.6011500000000 1.0
C      1  0.4959170000000  0.4621830000000  0.4020610000000 1.0
C      1  0.5088250000000  0.5428230000000  0.4028080000000 1.0
C      1  0.5051960000000  0.5650610000000  0.4764580000000 1.0
C      1  0.4992410000000  0.4389360000000  0.4863250000000 1.0
C      1  0.5098290000000  0.5624460000000  0.5257100000000 1.0
C      1  0.4998320000000  0.4355480000000  0.5204940000000 1.0
C      1  0.4762530000000  0.4791000000000  0.5685490000000 1.0
C      1  0.5293810000000  0.5231240000000  0.5616740000000 1.0
C      1  0.4774870000000  0.4705490000000  0.4479090000000 1.0
C      1  0.5317630000000  0.5111090000000  0.4358930000000 1.0
C      1  0.5182190000000  0.5726180000000  0.5762090000000 1.0
C      1  0.4782850000000  0.4287410000000  0.5775900000000 1.0
C      1  0.5143460000000  0.5780490000000  0.4207810000000 1.0
C      1  0.4796090000000  0.4330850000000  0.4261460000000 1.0
C      1  0.4634150000000  0.4600110000000  0.4120320000000 1.0
C      1  0.5384930000000  0.5555880000000  0.4107360000000 1.0
C      1  0.4574700000000  0.4530060000000  0.5892150000000 1.0
C      1  0.5381920000000  0.5492090000000  0.5918790000000 1.0
C      1  0.4810050000000  0.5191430000000  0.6062970000000 1.0
C      1  0.5099750000000  0.4868770000000  0.5909580000000 1.0
C      1  0.4790300000000  0.5270130000000  0.4000520000000 1.0
C      1  0.5212210000000  0.4833090000000  0.3981410000000 1.0
C      1  0.5142340000000  0.4883090000000  0.4521200000000 1.0
C      1  0.4946380000000  0.5137380000000  0.4501260000000 1.0
C      1  0.5205830000000  0.4854220000000  0.5525110000000 1.0
C      1  0.4976700000000  0.5050730000000  0.5446140000000 1.0
C      1  0.4641910000000  0.5218440000000  0.5801360000000 1.0
C      1  0.5381370000000  0.4770140000000  0.5890880000000 1.0
C      1  0.4557540000000  0.5367110000000  0.4168200000000 1.0
C      1  0.5484440000000  0.4827710000000  0.3948040000000 1.0
C      1  0.4127950000000  0.5201140000000  0.4450280000000 1.0
C      1  0.5764290000000  0.4725400000000  0.4543390000000 1.0
C      1  0.4207800000000  0.5377690000000  0.5571360000000 1.0
C      1  0.5769020000000  0.4555620000000  0.5579840000000 1.0
C      1  0.4897280000000  0.5705050000000  0.5940040000000 1.0
C      1  0.5070350000000  0.4307530000000  0.5941210000000 1.0
C      1  0.4859880000000  0.5680610000000  0.4045260000000 1.0
C      1  0.5072010000000  0.4319330000000  0.4061480000000 1.0
C      1  0.4838860000000  0.4938610000000  0.4061190000000 1.0
C      1  0.5130190000000  0.5112750000000  0.4114480000000 1.0
C      1  0.4714840000000  0.4885740000000  0.6008710000000 1.0
C      1  0.5129880000000  0.5152360000000  0.5830330000000 1.0
C      1  0.4300490000000  0.5473240000000  0.4455320000000 1.0
C      1  0.5651860000000  0.4469090000000  0.4395720000000 1.0
C      1  0.4397270000000  0.5591830000000  0.5561760000000 1.0
C      1  0.5683930000000  0.4259840000000  0.5693010000000 1.0
C      1  0.4639450000000  0.4557390000000  0.5172350000000 1.0
C      1  0.5433200000000  0.5434140000000  0.5150530000000 1.0
C      1  0.4471320000000  0.4590410000000  0.4898110000000 1.0
C      1  0.5276910000000  0.5441230000000  0.4887530000000 1.0
C      1  0.5855990000000  0.4971640000000  0.5168930000000 1.0
C      1  0.4218920000000  0.5012660000000  0.5138830000000 1.0
C      1  0.5791880000000  0.4974800000000  0.4850710000000 1.0
C      1  0.4236010000000  0.5007710000000  0.4823840000000 1.0
C      1  0.5061850000000  0.6058160000000  0.4395200000000 1.0
C      1  0.4846690000000  0.4038970000000  0.4441210000000 1.0
C      1  0.5092270000000  0.5983240000000  0.5546950000000 1.0
C      1  0.4810860000000  0.4001880000000  0.5592310000000 1.0
C      1  0.5577840000000  0.4967830000000  0.5284690000000 1.0
C      1  0.4477260000000  0.5130970000000  0.5253020000000 1.0
C      1  0.5483050000000  0.5104870000000  0.4824870000000 1.0
C      1  0.4528420000000  0.5060970000000  0.4770170000000 1.0
C      1  0.5777560000000  0.5177760000000  0.4320650000000 1.0
C      1  0.4234640000000  0.4704110000000  0.4384470000000 1.0
C      1  0.5793100000000  0.5298170000000  0.5620860000000 1.0
C      1  0.4221750000000  0.4838510000000  0.5601990000000 1.0
C      1  0.4574910000000  0.3983900000000  0.4620490000000 1.0
C      1  0.5283860000000  0.6072310000000  0.4643060000000 1.0
C      1  0.4650280000000  0.3987450000000  0.5310550000000 1.0
C      1  0.5354660000000  0.6058730000000  0.5358810000000 1.0
C      1  0.5433030000000  0.5590150000000  0.4661910000000 1.0
C      1  0.4459840000000  0.4353770000000  0.4708910000000 1.0
C      1  0.5489700000000  0.5689280000000  0.5305800000000 1.0
C      1  0.4505300000000  0.4352070000000  0.5383390000000 1.0
C      1  0.5416680000000  0.4532120000000  0.4273060000000 1.0
C      1  0.4586470000000  0.5529220000000  0.4542270000000 1.0
C      1  0.5414400000000  0.4373040000000  0.5552320000000 1.0
C      1  0.4672680000000  0.5540460000000  0.5421360000000 1.0
C      1  0.5114220000000  0.4020820000000  0.5461900000000 1.0
C      1  0.4841880000000  0.6015600000000  0.5421820000000 1.0
C      1  0.5128350000000  0.4076240000000  0.4600420000000 1.0
C      1  0.4782300000000  0.5977220000000  0.4538040000000 1.0
C      1  0.5873660000000  0.4253640000000  0.4844340000000 1.0
C      1  0.4093680000000  0.5686610000000  0.4814380000000 1.0
C      1  0.5885560000000  0.4200750000000  0.5180390000000 1.0
C      1  0.4138880000000  0.5677670000000  0.5154020000000 1.0
C      1  0.5842170000000  0.5673130000000  0.5491980000000 1.0
C      1  0.4107260000000  0.4350780000000  0.5578850000000 1.0
C      1  0.5859810000000  0.5708480000000  0.4533590000000 1.0
C      1  0.4139550000000  0.4395810000000  0.4474380000000 1.0
C      1  0.4910810000000  0.5360750000000  0.4756790000000 1.0
C      1  0.5156900000000  0.4659490000000  0.4780490000000 1.0
C      1  0.5066500000000  0.5292030000000  0.5222300000000 1.0
C      1  0.5110620000000  0.4639980000000  0.5303500000000 1.0
C      1  0.6074600000000  0.5234570000000  0.4766790000000 1.0
C      1  0.3971580000000  0.4696530000000  0.4813190000000 1.0
C      1  0.6013530000000  0.5245790000000  0.5101120000000 1.0
C      1  0.3933120000000  0.4738030000000  0.5089040000000 1.0
C      1  0.6081410000000  0.4737420000000  0.5201170000000 1.0
C      1  0.3950090000000  0.5212050000000  0.5188650000000 1.0
C      1  0.6035400000000  0.4741110000000  0.4898650000000 1.0
C      1  0.3976800000000  0.5200720000000  0.4887150000000 1.0
C      1  0.4514860000000  0.4909700000000  0.4161490000000 1.0
C      1  0.5624700000000  0.5345470000000  0.4063330000000 1.0
C      1  0.4416800000000  0.4832180000000  0.5877930000000 1.0
C      1  0.5609900000000  0.5246110000000  0.5861410000000 1.0
C      1  0.4338450000000  0.5128440000000  0.5720030000000 1.0
C      1  0.5569720000000  0.4973350000000  0.5926270000000 1.0
C      1  0.4374130000000  0.5154480000000  0.4222620000000 1.0
C      1  0.5663730000000  0.5022960000000  0.4039410000000 1.0
C      1  0.5839320000000  0.5508980000000  0.5191700000000 1.0
C      1  0.4043350000000  0.4500300000000  0.5291350000000 1.0
C      1  0.5898570000000  0.5498390000000  0.4789150000000 1.0
C      1  0.4027170000000  0.4416190000000  0.4741440000000 1.0
C      1  0.4618840000000  0.5771390000000  0.4137290000000 1.0
C      1  0.5286740000000  0.4175940000000  0.4148470000000 1.0
C      1  0.4676160000000  0.5812710000000  0.5821510000000 1.0
C      1  0.5273010000000  0.4144080000000  0.5847450000000 1.0
C      1  0.4771420000000  0.6086960000000  0.4842200000000 1.0
C      1  0.5229070000000  0.3983640000000  0.4868250000000 1.0
C      1  0.4801050000000  0.6051010000000  0.5144550000000 1.0
C      1  0.5171600000000  0.3997920000000  0.5160200000000 1.0
C      1  0.5982840000000  0.5234020000000  0.5441230000000 1.0
C      1  0.4039850000000  0.4883820000000  0.5372780000000 1.0
C      1  0.5925510000000  0.5026820000000  0.4542320000000 1.0
C      1  0.4085140000000  0.4896360000000  0.4561710000000 1.0
C      1  0.5684550000000  0.4439380000000  0.5271030000000 1.0
C      1  0.4377250000000  0.5429410000000  0.5181330000000 1.0
C      1  0.5690580000000  0.4537400000000  0.4785480000000 1.0
C      1  0.4360470000000  0.5512080000000  0.4867030000000 1.0
C      1  0.4093460000000  0.4225090000000  0.4946700000000 1.0
C      1  0.5837380000000  0.5817150000000  0.4857760000000 1.0
C      1  0.4068470000000  0.4179320000000  0.5284170000000 1.0
C      1  0.5844570000000  0.5837870000000  0.5193920000000 1.0
C      1  0.5485660000000  0.4302060000000  0.4919500000000 1.0
C      1  0.4598940000000  0.5729950000000  0.4792070000000 1.0
C      1  0.5407920000000  0.4303690000000  0.5246330000000 1.0
C      1  0.4615460000000  0.5671060000000  0.5126950000000 1.0
C      1  0.4499130000000  0.4230710000000  0.4399690000000 1.0
C      1  0.5389790000000  0.5836560000000  0.4427420000000 1.0
C      1  0.4481470000000  0.4078730000000  0.5623960000000 1.0
C      1  0.5462700000000  0.5850660000000  0.5605490000000 1.0
C      1  0.5404370000000  0.3988860000000  0.5618250000000 1.0
C      1  0.4611880000000  0.5924140000000  0.5565010000000 1.0
C      1  0.5377210000000  0.4131070000000  0.4405810000000 1.0
C      1  0.4521470000000  0.5891170000000  0.4386280000000 1.0
C      1  0.4676660000000  0.4834270000000  0.4888150000000 1.0
C      1  0.5148540000000  0.5144990000000  0.4847640000000 1.0
C      1  0.4879960000000  0.4741080000000  0.5147380000000 1.0
C      1  0.5366540000000  0.5174860000000  0.5306970000000 1.0
C      1  0.5397880000000  0.4708650000000  0.5206790000000 1.0
C      1  0.4754780000000  0.5303630000000  0.5191380000000 1.0
C      1  0.5413850000000  0.4618630000000  0.4929080000000 1.0
C      1  0.4634790000000  0.5325320000000  0.4894220000000 1.0
C      1  0.4347590000000  0.4321010000000  0.5747040000000 1.0
C      1  0.5661610000000  0.5640150000000  0.5780060000000 1.0
C      1  0.4345990000000  0.4437640000000  0.4202580000000 1.0
C      1  0.5637250000000  0.5646810000000  0.4325850000000 1.0
C      1  0.4303710000000  0.4622470000000  0.5174730000000 1.0
C      1  0.5662080000000  0.5351020000000  0.4944250000000 1.0
C      1  0.4998950000000  0.4899560000000  0.4892950000000 1.0
END
