TITL C-2782225-7408-1173 -0.00360216609390892 125000 -331.913210504923 0 0 58 (C1) n - 1
REM
REM in /home/nfs/bkarasulu/CARBON/AIRSS/Generating-Clusters/REBO/Higher-Symm/SD-CG/HFTN-CG
REM
REM
REM
REM
REM
REM ./C.cell (12c818d87b63d06a65506943cc24bca4)
REM
REM compiler GCC version 9.2.1 20190827 (Red Hat 9.2.1-1)
REM options -cpp -mtune=generic -march=x86-64 -g -O0 -fpre-include=/usr/include/finclude/math-vector-fortran.h
REM seed -849892363 -1568002666 -1532975021 1883468566 -853897193 1033781952 435125376 -699368315 -1307471654 1437937491 782533742 -901597194 1995385401 -1486731352 -2054891145 -705660309 1669509464 1505111329 -969464374 70132384 348254509 -276376447 1492349771 1685729219 287101355 -1424311945 1248672723 -1206288972 -1577789160 740651989 -1992490987 -65435620 220336378
REM
CELL 1.54180   50.00000   50.00000   50.00000   90.00000   90.00000   90.00000
LATT -1
SFAC C  
C      1  0.4946620000000  0.4501540000000  0.4504450000000 1.0
C      1  0.4927920000000  0.4326770000000  0.5315590000000 1.0
C      1  0.4928440000000  0.5072960000000  0.5677800000000 1.0
C      1  0.4904900000000  0.5664970000000  0.5135910000000 1.0
C      1  0.4929500000000  0.5333090000000  0.4374030000000 1.0
C      1  0.5117280000000  0.4445400000000  0.5497320000000 1.0
C      1  0.5114310000000  0.4333630000000  0.4664620000000 1.0
C      1  0.5097760000000  0.5121940000000  0.4281210000000 1.0
C      1  0.5078250000000  0.5667060000000  0.4905590000000 1.0
C      1  0.5080310000000  0.5304070000000  0.5601680000000 1.0
C      1  0.5122600000000  0.5303150000000  0.5205640000000 1.0
C      1  0.5125990000000  0.5301210000000  0.4755430000000 1.0
C      1  0.5152930000000  0.5027450000000  0.4663630000000 1.0
C      1  0.5150220000000  0.4632720000000  0.4924010000000 1.0
C      1  0.5138200000000  0.4775090000000  0.5276590000000 1.0
C      1  0.4806530000000  0.5413070000000  0.4742180000000 1.0
C      1  0.4836870000000  0.5286750000000  0.5030110000000 1.0
C      1  0.4813530000000  0.4856770000000  0.5366620000000 1.0
C      1  0.4849460000000  0.4597830000000  0.5037890000000 1.0
C      1  0.4872250000000  0.4841990000000  0.4689070000000 1.0
C      1  0.4635160000000  0.5048060000000  0.5561810000000 1.0
C      1  0.4627690000000  0.5540250000000  0.5076470000000 1.0
C      1  0.4639050000000  0.5279470000000  0.4505710000000 1.0
C      1  0.4680180000000  0.4606110000000  0.4652600000000 1.0
C      1  0.4659720000000  0.4501160000000  0.5263230000000 1.0
C      1  0.5383720000000  0.5034230000000  0.4418660000000 1.0
C      1  0.5349670000000  0.5508120000000  0.4883640000000 1.0
C      1  0.5354010000000  0.5264300000000  0.5442210000000 1.0
C      1  0.5379220000000  0.4561890000000  0.5359370000000 1.0
C      1  0.5379080000000  0.4472530000000  0.4776500000000 1.0
C      1  0.5683370000000  0.4907470000000  0.5492670000000 1.0
C      1  0.5725440000000  0.5224940000000  0.5139260000000 1.0
C      1  0.5748080000000  0.5202770000000  0.4744410000000 1.0
C      1  0.5772160000000  0.4811890000000  0.4693360000000 1.0
C      1  0.5750370000000  0.4689490000000  0.5070120000000 1.0
C      1  0.4279190000000  0.4917570000000  0.4691010000000 1.0
C      1  0.4255420000000  0.5276690000000  0.4847200000000 1.0
C      1  0.4248130000000  0.5233850000000  0.5239060000000 1.0
C      1  0.4249260000000  0.4849260000000  0.5321430000000 1.0
C      1  0.4268510000000  0.4653570000000  0.4982830000000 1.0
C      1  0.4408490000000  0.4642540000000  0.4714040000000 1.0
C      1  0.4390860000000  0.4585630000000  0.5254730000000 1.0
C      1  0.4374070000000  0.5082170000000  0.5472020000000 1.0
C      1  0.4360680000000  0.5458830000000  0.5068780000000 1.0
C      1  0.4393340000000  0.5180780000000  0.4589790000000 1.0
C      1  0.5636130000000  0.4676220000000  0.5329970000000 1.0
C      1  0.5642900000000  0.4560190000000  0.4810010000000 1.0
C      1  0.5646630000000  0.5027410000000  0.4510010000000 1.0
C      1  0.5602380000000  0.5406310000000  0.4924430000000 1.0
C      1  0.5606830000000  0.5161400000000  0.5386950000000 1.0
C      1  0.5021570000000  0.4305190000000  0.4988810000000 1.0
C      1  0.5019720000000  0.5558110000000  0.5401960000000 1.0
C      1  0.5034070000000  0.4756370000000  0.5607800000000 1.0
C      1  0.5043810000000  0.5586720000000  0.4573940000000 1.0
C      1  0.5059050000000  0.4808060000000  0.4407730000000 1.0
C      1  0.4133700000000  0.4983400000000  0.5010900000000 1.0
C      1  0.5873150000000  0.4980960000000  0.4973390000000 1.0
C      1  0.4976820000000  0.5018610000000  0.5131320000000 1.0
END
