TITL C-2782233-7966-661 0.00268835855257822 125000 -575.130270977802 0 0 101 (C1) n - 1
REM
REM in /home/nfs/bkarasulu/CARBON/AIRSS/Generating-Clusters/REBO/Higher-Symm/SD-CG/HFTN-CG
REM
REM
REM
REM
REM
REM ./C.cell (12c818d87b63d06a65506943cc24bca4)
REM
REM compiler GCC version 9.2.1 20190827 (Red Hat 9.2.1-1)
REM options -cpp -mtune=generic -march=x86-64 -g -O0 -fpre-include=/usr/include/finclude/math-vector-fortran.h
REM seed 2002885212 2003046362 -1625537329 1729059203 -438648063 468280028 -448813732 2134516388 1357685286 -1780345838 164477604 240032318 -1668270926 -940437038 1934282062 541248771 500541938 916315285 95758075 1705801060 1380602769 -1842471593 77893921 1976373851 -730166466 2015889025 428688293 277023774 -289999718 -746297036 -1638396189 -1846536190 376491080
REM
CELL 1.54180   50.00000   50.00000   50.00000   90.00000   90.00000   90.00000
LATT -1
SFAC C  
C      1  0.4747920000000  0.4108960000000  0.4934360000000 1.0
C      1  0.4134130000000  0.5145900000000  0.4784590000000 1.0
C      1  0.5357940000000  0.4513930000000  0.4768150000000 1.0
C      1  0.5293360000000  0.5208200000000  0.4284140000000 1.0
C      1  0.5439720000000  0.5406310000000  0.4927380000000 1.0
C      1  0.4792770000000  0.4299270000000  0.5579000000000 1.0
C      1  0.5138980000000  0.4951820000000  0.4253720000000 1.0
C      1  0.5514100000000  0.4364680000000  0.4964040000000 1.0
C      1  0.4651070000000  0.5086600000000  0.5838540000000 1.0
C      1  0.5590700000000  0.5379590000000  0.5588700000000 1.0
C      1  0.5059330000000  0.5803550000000  0.5245070000000 1.0
C      1  0.5308720000000  0.4683510000000  0.5152220000000 1.0
C      1  0.4799350000000  0.5476160000000  0.4294680000000 1.0
C      1  0.5245770000000  0.4828860000000  0.4834660000000 1.0
C      1  0.4508800000000  0.4264540000000  0.5123610000000 1.0
C      1  0.5043280000000  0.5399100000000  0.5927200000000 1.0
C      1  0.5512540000000  0.5603900000000  0.4647100000000 1.0
C      1  0.5575560000000  0.4872090000000  0.4754850000000 1.0
C      1  0.5603310000000  0.5703450000000  0.4962960000000 1.0
C      1  0.5535960000000  0.4611020000000  0.5400910000000 1.0
C      1  0.4753770000000  0.5205900000000  0.5334140000000 1.0
C      1  0.5065670000000  0.5102670000000  0.4821910000000 1.0
C      1  0.4752640000000  0.4168710000000  0.5329530000000 1.0
C      1  0.4265230000000  0.5413330000000  0.4690630000000 1.0
C      1  0.5695260000000  0.4552110000000  0.5106350000000 1.0
C      1  0.5291790000000  0.5274040000000  0.4677700000000 1.0
C      1  0.5779910000000  0.5259700000000  0.4627050000000 1.0
C      1  0.4926830000000  0.4542280000000  0.5022590000000 1.0
C      1  0.4558740000000  0.4869030000000  0.5010910000000 1.0
C      1  0.4118930000000  0.4950600000000  0.5247080000000 1.0
C      1  0.4594040000000  0.5172140000000  0.6072100000000 1.0
C      1  0.4825550000000  0.4905130000000  0.4355370000000 1.0
C      1  0.4590060000000  0.4485690000000  0.4437950000000 1.0
C      1  0.5313740000000  0.4858760000000  0.5758280000000 1.0
C      1  0.4718430000000  0.4985570000000  0.5562690000000 1.0
C      1  0.5026360000000  0.4827900000000  0.5905720000000 1.0
C      1  0.4362060000000  0.5847210000000  0.4985670000000 1.0
C      1  0.5108610000000  0.5476220000000  0.4193060000000 1.0
C      1  0.5797450000000  0.5349770000000  0.5147130000000 1.0
C      1  0.4095800000000  0.5171910000000  0.5089050000000 1.0
C      1  0.4969140000000  0.5442740000000  0.4841080000000 1.0
C      1  0.4769800000000  0.4828030000000  0.4648930000000 1.0
C      1  0.5510200000000  0.4283980000000  0.5427230000000 1.0
C      1  0.4708850000000  0.5641740000000  0.4569620000000 1.0
C      1  0.5547550000000  0.5188530000000  0.4509280000000 1.0
C      1  0.5755690000000  0.5079230000000  0.5250750000000 1.0
C      1  0.5381370000000  0.5196640000000  0.5176690000000 1.0
C      1  0.5855710000000  0.5359820000000  0.4870030000000 1.0
C      1  0.4619530000000  0.5017710000000  0.4215230000000 1.0
C      1  0.5588790000000  0.4804720000000  0.4449600000000 1.0
C      1  0.4950470000000  0.4585580000000  0.4741870000000 1.0
C      1  0.5395340000000  0.5528170000000  0.4369780000000 1.0
C      1  0.5539410000000  0.4833550000000  0.5604650000000 1.0
C      1  0.5073540000000  0.5712950000000  0.4954500000000 1.0
C      1  0.5309320000000  0.5204440000000  0.5509810000000 1.0
C      1  0.5815480000000  0.4720240000000  0.4922990000000 1.0
C      1  0.5154180000000  0.4380590000000  0.5135620000000 1.0
C      1  0.4795420000000  0.4672840000000  0.5905680000000 1.0
C      1  0.4943080000000  0.4112940000000  0.4662390000000 1.0
C      1  0.4968100000000  0.4375730000000  0.4550020000000 1.0
C      1  0.4224620000000  0.4586010000000  0.4776340000000 1.0
C      1  0.4606130000000  0.4314430000000  0.4708290000000 1.0
C      1  0.5026440000000  0.5661300000000  0.5736360000000 1.0
C      1  0.4288240000000  0.4491080000000  0.5078350000000 1.0
C      1  0.5045210000000  0.5410940000000  0.4522720000000 1.0
C      1  0.4904970000000  0.5442760000000  0.5321620000000 1.0
C      1  0.5117340000000  0.5127230000000  0.5780240000000 1.0
C      1  0.4447490000000  0.5449380000000  0.4479020000000 1.0
C      1  0.5653360000000  0.5534430000000  0.5321830000000 1.0
C      1  0.5485780000000  0.4162740000000  0.5175220000000 1.0
C      1  0.4901550000000  0.5699800000000  0.5484120000000 1.0
C      1  0.4551370000000  0.5286870000000  0.4244390000000 1.0
C      1  0.4688560000000  0.4538030000000  0.5190680000000 1.0
C      1  0.4562170000000  0.4609160000000  0.4815480000000 1.0
C      1  0.5683760000000  0.5067620000000  0.5530900000000 1.0
C      1  0.5381850000000  0.4466470000000  0.4500640000000 1.0
C      1  0.5161440000000  0.5420840000000  0.5210510000000 1.0
C      1  0.5375360000000  0.5677550000000  0.5214200000000 1.0
C      1  0.4637000000000  0.5443390000000  0.4831120000000 1.0
C      1  0.4965090000000  0.5815010000000  0.4538710000000 1.0
C      1  0.5308600000000  0.5804480000000  0.4826460000000 1.0
C      1  0.5035560000000  0.4644080000000  0.4144320000000 1.0
C      1  0.5022020000000  0.4507140000000  0.5597560000000 1.0
C      1  0.5308070000000  0.5472670000000  0.5725630000000 1.0
C      1  0.4356710000000  0.4755880000000  0.5232960000000 1.0
C      1  0.4366360000000  0.5570080000000  0.4958980000000 1.0
C      1  0.4202920000000  0.5411650000000  0.5173860000000 1.0
C      1  0.4640000000000  0.4534510000000  0.5707720000000 1.0
C      1  0.4085490000000  0.4854200000000  0.4620350000000 1.0
C      1  0.4965580000000  0.4773850000000  0.5514980000000 1.0
C      1  0.5339530000000  0.4687510000000  0.4273710000000 1.0
C      1  0.5190340000000  0.5775430000000  0.4445520000000 1.0
C      1  0.4818240000000  0.4994440000000  0.5129170000000 1.0
C      1  0.4737430000000  0.5129080000000  0.4777610000000 1.0
C      1  0.4367060000000  0.4709260000000  0.4484760000000 1.0
C      1  0.5000220000000  0.4135140000000  0.5160760000000 1.0
C      1  0.4574870000000  0.4710810000000  0.5460620000000 1.0
C      1  0.5042750000000  0.4847440000000  0.5251330000000 1.0
C      1  0.4401680000000  0.4960660000000  0.4724890000000 1.0
C      1  0.4855090000000  0.4477170000000  0.4284100000000 1.0
C      1  0.5528600000000  0.4939190000000  0.5087440000000 1.0
END
