TITL C-2782225-7408-632 -3.29119915300613e-05 125000 -759.923091660976 0 0 132 (C1) n - 1
REM
REM in /home/nfs/bkarasulu/CARBON/AIRSS/Generating-Clusters/REBO/Higher-Symm/SD-CG/HFTN-CG
REM
REM
REM
REM
REM
REM ./C.cell (12c818d87b63d06a65506943cc24bca4)
REM
REM compiler GCC version 9.2.1 20190827 (Red Hat 9.2.1-1)
REM options -cpp -mtune=generic -march=x86-64 -g -O0 -fpre-include=/usr/include/finclude/math-vector-fortran.h
REM seed 1650643009 1079404717 -1967675772 -159208734 11774898 1623032755 469218259 -1416161594 -239702285 -922927455 1768934373 -801592523 336703638 1418590165 -810700231 878619774 1771737403 -430084547 -908050068 -1106816119 653840704 -148053772 522474165 -821190392 -1940247968 334292903 -1667731770 146053836 2086037485 774126006 -1168840203 -1472354850 441461367
REM
CELL 1.54180   50.00000   50.00000   50.00000   90.00000   90.00000   90.00000
LATT -1
SFAC C  
C      1  0.5089680000000  0.4490720000000  0.4214100000000 1.0
C      1  0.5084270000000  0.5551520000000  0.5752710000000 1.0
C      1  0.4815990000000  0.4390970000000  0.5875740000000 1.0
C      1  0.4911740000000  0.5590710000000  0.4269200000000 1.0
C      1  0.5024810000000  0.4240500000000  0.4417100000000 1.0
C      1  0.5193800000000  0.5813350000000  0.5604270000000 1.0
C      1  0.4815180000000  0.5850110000000  0.4432110000000 1.0
C      1  0.4950120000000  0.4293920000000  0.5582720000000 1.0
C      1  0.5145640000000  0.4963270000000  0.4729260000000 1.0
C      1  0.5138890000000  0.5051600000000  0.5272370000000 1.0
C      1  0.4864890000000  0.4921980000000  0.5281760000000 1.0
C      1  0.4862580000000  0.5065430000000  0.4730360000000 1.0
C      1  0.5127370000000  0.4715510000000  0.4912730000000 1.0
C      1  0.5127070000000  0.5303110000000  0.5089090000000 1.0
C      1  0.4877870000000  0.5313470000000  0.4922150000000 1.0
C      1  0.4860180000000  0.4723700000000  0.5038150000000 1.0
C      1  0.4981580000000  0.4009140000000  0.5408480000000 1.0
C      1  0.5013420000000  0.5947490000000  0.4612000000000 1.0
C      1  0.4988700000000  0.3997030000000  0.4646650000000 1.0
C      1  0.5003440000000  0.5920280000000  0.5414010000000 1.0
C      1  0.4976630000000  0.5374760000000  0.4028090000000 1.0
C      1  0.4953170000000  0.4639590000000  0.6018710000000 1.0
C      1  0.5028030000000  0.4694770000000  0.3962540000000 1.0
C      1  0.4890730000000  0.5391190000000  0.5963890000000 1.0
C      1  0.4477340000000  0.4658650000000  0.5115770000000 1.0
C      1  0.4421110000000  0.5296150000000  0.4917440000000 1.0
C      1  0.5518710000000  0.4664600000000  0.4865060000000 1.0
C      1  0.5595500000000  0.5300530000000  0.5076460000000 1.0
C      1  0.4467670000000  0.5076310000000  0.4675840000000 1.0
C      1  0.4471970000000  0.4902390000000  0.5348970000000 1.0
C      1  0.5528200000000  0.4912600000000  0.4632290000000 1.0
C      1  0.5568320000000  0.5063650000000  0.5295300000000 1.0
C      1  0.4561630000000  0.5867330000000  0.5676490000000 1.0
C      1  0.4563030000000  0.4221310000000  0.4344420000000 1.0
C      1  0.5453260000000  0.5911350000000  0.4305510000000 1.0
C      1  0.5459360000000  0.4247390000000  0.5658160000000 1.0
C      1  0.4456900000000  0.5610030000000  0.5773780000000 1.0
C      1  0.4624830000000  0.4270430000000  0.4060890000000 1.0
C      1  0.5395770000000  0.4365450000000  0.5921050000000 1.0
C      1  0.5472960000000  0.5625940000000  0.4239190000000 1.0
C      1  0.4666590000000  0.5294110000000  0.4160980000000 1.0
C      1  0.4651150000000  0.4753080000000  0.5888400000000 1.0
C      1  0.5374670000000  0.5192260000000  0.5797530000000 1.0
C      1  0.5337740000000  0.4777640000000  0.4087250000000 1.0
C      1  0.4671370000000  0.4117180000000  0.5301650000000 1.0
C      1  0.4612380000000  0.5796290000000  0.4884150000000 1.0
C      1  0.5429460000000  0.5814210000000  0.5155350000000 1.0
C      1  0.5305470000000  0.4121150000000  0.4702520000000 1.0
C      1  0.5064730000000  0.5155950000000  0.5804070000000 1.0
C      1  0.5071370000000  0.4888670000000  0.4237170000000 1.0
C      1  0.4935420000000  0.5133480000000  0.4248740000000 1.0
C      1  0.4937190000000  0.4898440000000  0.5811460000000 1.0
C      1  0.5117680000000  0.5833550000000  0.5131150000000 1.0
C      1  0.5059970000000  0.4194790000000  0.4906650000000 1.0
C      1  0.4940920000000  0.4224280000000  0.5157300000000 1.0
C      1  0.4932010000000  0.5851430000000  0.4900090000000 1.0
C      1  0.4675880000000  0.5163260000000  0.5362690000000 1.0
C      1  0.4680180000000  0.4836840000000  0.4622880000000 1.0
C      1  0.5332820000000  0.5191750000000  0.4628630000000 1.0
C      1  0.5349090000000  0.4848830000000  0.5346060000000 1.0
C      1  0.4644580000000  0.5343010000000  0.5100320000000 1.0
C      1  0.4654090000000  0.4602030000000  0.4832990000000 1.0
C      1  0.5332170000000  0.4625590000000  0.5133770000000 1.0
C      1  0.5360950000000  0.5349230000000  0.4913460000000 1.0
C      1  0.4070080000000  0.5402750000000  0.4770210000000 1.0
C      1  0.4132870000000  0.4521080000000  0.5246290000000 1.0
C      1  0.5956940000000  0.5396830000000  0.5203310000000 1.0
C      1  0.5851140000000  0.4515520000000  0.4714900000000 1.0
C      1  0.4126210000000  0.4741800000000  0.5457180000000 1.0
C      1  0.4116240000000  0.5196310000000  0.4546490000000 1.0
C      1  0.5922770000000  0.5180820000000  0.5420800000000 1.0
C      1  0.5863460000000  0.4740340000000  0.4510600000000 1.0
C      1  0.5624100000000  0.5233590000000  0.5578950000000 1.0
C      1  0.5580790000000  0.4769480000000  0.4327020000000 1.0
C      1  0.4414970000000  0.5252760000000  0.4389500000000 1.0
C      1  0.4404470000000  0.4761390000000  0.5652180000000 1.0
C      1  0.5680270000000  0.5594180000000  0.5221550000000 1.0
C      1  0.5546190000000  0.4363110000000  0.4707580000000 1.0
C      1  0.4431810000000  0.4359030000000  0.5271620000000 1.0
C      1  0.4343930000000  0.5602430000000  0.4802650000000 1.0
C      1  0.5432050000000  0.4494210000000  0.4219400000000 1.0
C      1  0.5414020000000  0.5490430000000  0.5665760000000 1.0
C      1  0.4497410000000  0.4473880000000  0.5789250000000 1.0
C      1  0.4581860000000  0.5541970000000  0.4353820000000 1.0
C      1  0.5360870000000  0.4300990000000  0.4435910000000 1.0
C      1  0.5493770000000  0.5728030000000  0.5472760000000 1.0
C      1  0.4518190000000  0.5758560000000  0.4565510000000 1.0
C      1  0.4608090000000  0.4317950000000  0.5549200000000 1.0
C      1  0.5250630000000  0.4608560000000  0.5902440000000 1.0
C      1  0.5272710000000  0.5512690000000  0.4068470000000 1.0
C      1  0.4773040000000  0.4494590000000  0.3971220000000 1.0
C      1  0.4628460000000  0.5466450000000  0.5954390000000 1.0
C      1  0.5267230000000  0.5984770000000  0.4504360000000 1.0
C      1  0.5272390000000  0.4059580000000  0.5551280000000 1.0
C      1  0.4704420000000  0.4011770000000  0.4481920000000 1.0
C      1  0.4730240000000  0.5840940000000  0.5450490000000 1.0
C      1  0.5177250000000  0.4474560000000  0.5399120000000 1.0
C      1  0.5263640000000  0.5575450000000  0.4704120000000 1.0
C      1  0.4801710000000  0.4358650000000  0.4651530000000 1.0
C      1  0.4725140000000  0.5557490000000  0.5322820000000 1.0
C      1  0.5153280000000  0.5411660000000  0.4435620000000 1.0
C      1  0.5238970000000  0.4715410000000  0.5623250000000 1.0
C      1  0.4865600000000  0.4611460000000  0.4445230000000 1.0
C      1  0.4836330000000  0.5382610000000  0.5571720000000 1.0
C      1  0.5615470000000  0.6092240000000  0.4182630000000 1.0
C      1  0.5648180000000  0.4386040000000  0.5496820000000 1.0
C      1  0.4523760000000  0.6098910000000  0.5813180000000 1.0
C      1  0.4384240000000  0.4394390000000  0.4480510000000 1.0
C      1  0.5442750000000  0.4232720000000  0.6153290000000 1.0
C      1  0.5666960000000  0.5482350000000  0.4388500000000 1.0
C      1  0.4265690000000  0.5483900000000  0.5606830000000 1.0
C      1  0.4549760000000  0.4080360000000  0.3878970000000 1.0
C      1  0.4133970000000  0.5268360000000  0.5076830000000 1.0
C      1  0.4186210000000  0.4663140000000  0.4940340000000 1.0
C      1  0.5871000000000  0.5275390000000  0.4896440000000 1.0
C      1  0.5818790000000  0.4652780000000  0.5024720000000 1.0
C      1  0.4160710000000  0.5034900000000  0.5315960000000 1.0
C      1  0.4184760000000  0.4893690000000  0.4688730000000 1.0
C      1  0.5845150000000  0.4882060000000  0.5275300000000 1.0
C      1  0.5840060000000  0.5038430000000  0.4657410000000 1.0
C      1  0.5116470000000  0.4472460000000  0.4723950000000 1.0
C      1  0.5065320000000  0.5544770000000  0.5291210000000 1.0
C      1  0.4869870000000  0.4523530000000  0.5270500000000 1.0
C      1  0.4923850000000  0.5566600000000  0.4721940000000 1.0
C      1  0.5163890000000  0.4738110000000  0.4516110000000 1.0
C      1  0.5136820000000  0.5267990000000  0.5485900000000 1.0
C      1  0.4846830000000  0.5296910000000  0.4526030000000 1.0
C      1  0.4910690000000  0.4737030000000  0.5532540000000 1.0
C      1  0.4158460000000  0.5351970000000  0.5405800000000 1.0
C      1  0.5778060000000  0.4556160000000  0.5343580000000 1.0
C      1  0.5809300000000  0.5356920000000  0.4571770000000 1.0
C      1  0.4249220000000  0.4568520000000  0.4623700000000 1.0
END
