TITL C-2782232-2968-1436 -0.00270724745214613 125000 -1063.13737326757 0 0 180 (C1) n - 1
REM
REM in /home/nfs/bkarasulu/CARBON/AIRSS/Generating-Clusters/REBO/Higher-Symm/SD-CG/HFTN-CG
REM
REM
REM
REM
REM
REM ./C.cell (12c818d87b63d06a65506943cc24bca4)
REM
REM compiler GCC version 9.2.1 20190827 (Red Hat 9.2.1-1)
REM options -cpp -mtune=generic -march=x86-64 -g -O0 -fpre-include=/usr/include/finclude/math-vector-fortran.h
REM seed -469431602 202675420 1615260831 2124757016 -1817209351 1307723766 1459761601 1629896574 1126203154 2127409682 237725488 -684617877 503400284 648368881 -1797662759 2006200931 -448337889 1377212714 -862740251 416633589 -1346540895 -2142763735 -971198678 498467341 -1723744605 -9391233 -2065736204 -1219057656 1993231704 -1677573008 -292166275 -2112570633 -417958329
REM
CELL 1.54180   50.00000   50.00000   50.00000   90.00000   90.00000   90.00000
LATT -1
SFAC C  
C      1  0.5873910000000  0.5594810000000  0.5192300000000 1.0
C      1  0.4744790000000  0.5603430000000  0.4131860000000 1.0
C      1  0.4399120000000  0.5591240000000  0.5702690000000 1.0
C      1  0.5551600000000  0.5243390000000  0.5915440000000 1.0
C      1  0.5489600000000  0.5197010000000  0.4110970000000 1.0
C      1  0.4018320000000  0.5187370000000  0.5038140000000 1.0
C      1  0.4201340000000  0.5450290000000  0.5153740000000 1.0
C      1  0.5616280000000  0.5523400000000  0.5749340000000 1.0
C      1  0.5321060000000  0.5471380000000  0.4194210000000 1.0
C      1  0.5712650000000  0.4397430000000  0.5455550000000 1.0
C      1  0.5005860000000  0.4367830000000  0.4137500000000 1.0
C      1  0.4237770000000  0.4383870000000  0.5430100000000 1.0
C      1  0.4665370000000  0.4903270000000  0.5060040000000 1.0
C      1  0.5183240000000  0.4932080000000  0.5257780000000 1.0
C      1  0.5089710000000  0.4881870000000  0.4726390000000 1.0
C      1  0.4658670000000  0.6010860000000  0.4721730000000 1.0
C      1  0.4975190000000  0.6012210000000  0.5466600000000 1.0
C      1  0.5412080000000  0.6050390000000  0.4792520000000 1.0
C      1  0.4816290000000  0.5487370000000  0.5208130000000 1.0
C      1  0.5191770000000  0.5482650000000  0.4965300000000 1.0
C      1  0.5131530000000  0.5579460000000  0.4702960000000 1.0
C      1  0.4307350000000  0.4984060000000  0.5296830000000 1.0
C      1  0.5648880000000  0.4913210000000  0.5487640000000 1.0
C      1  0.5064580000000  0.4881030000000  0.4154330000000 1.0
C      1  0.5611520000000  0.5265320000000  0.4810140000000 1.0
C      1  0.4687290000000  0.5177150000000  0.4646770000000 1.0
C      1  0.4878240000000  0.5233570000000  0.5569670000000 1.0
C      1  0.5524030000000  0.4153540000000  0.5384330000000 1.0
C      1  0.5040530000000  0.4153000000000  0.4379710000000 1.0
C      1  0.4391340000000  0.4161320000000  0.5272880000000 1.0
C      1  0.6037470000000  0.4978130000000  0.5421300000000 1.0
C      1  0.4835170000000  0.4993610000000  0.3847440000000 1.0
C      1  0.4261620000000  0.4925060000000  0.5701560000000 1.0
C      1  0.5219230000000  0.5039940000000  0.4485700000000 1.0
C      1  0.4380150000000  0.5021020000000  0.5002250000000 1.0
C      1  0.5347690000000  0.5170120000000  0.5389630000000 1.0
C      1  0.4694290000000  0.4356700000000  0.4891460000000 1.0
C      1  0.5064240000000  0.4308980000000  0.5295730000000 1.0
C      1  0.5238930000000  0.4375100000000  0.4842310000000 1.0
C      1  0.5199790000000  0.4488550000000  0.5491760000000 1.0
C      1  0.5305490000000  0.4537860000000  0.4548170000000 1.0
C      1  0.4415220000000  0.4531130000000  0.4960410000000 1.0
C      1  0.4224650000000  0.5667150000000  0.4536620000000 1.0
C      1  0.4953660000000  0.5633340000000  0.6042050000000 1.0
C      1  0.5809340000000  0.5662650000000  0.4519020000000 1.0
C      1  0.4670650000000  0.4516920000000  0.5657510000000 1.0
C      1  0.5776430000000  0.4582300000000  0.4962430000000 1.0
C      1  0.4543010000000  0.4553850000000  0.4301630000000 1.0
C      1  0.5022180000000  0.5442360000000  0.4049780000000 1.0
C      1  0.4169230000000  0.5453300000000  0.5492210000000 1.0
C      1  0.5813670000000  0.5451400000000  0.5495650000000 1.0
C      1  0.4014520000000  0.4796130000000  0.4555020000000 1.0
C      1  0.5125330000000  0.4895460000000  0.6177350000000 1.0
C      1  0.6003220000000  0.4952410000000  0.4403160000000 1.0
C      1  0.4993210000000  0.4944110000000  0.5659790000000 1.0
C      1  0.5532840000000  0.4964970000000  0.4721050000000 1.0
C      1  0.4426340000000  0.4963270000000  0.4589210000000 1.0
C      1  0.4960050000000  0.4037420000000  0.5568300000000 1.0
C      1  0.5489040000000  0.4082410000000  0.4737280000000 1.0
C      1  0.4498170000000  0.4078510000000  0.4685690000000 1.0
C      1  0.4774350000000  0.5214510000000  0.4051200000000 1.0
C      1  0.4338310000000  0.5204540000000  0.5636220000000 1.0
C      1  0.5895820000000  0.5207640000000  0.5278790000000 1.0
C      1  0.4516950000000  0.5411220000000  0.4116160000000 1.0
C      1  0.4521780000000  0.5351320000000  0.5857160000000 1.0
C      1  0.5982000000000  0.5376530000000  0.5007080000000 1.0
C      1  0.4750090000000  0.4693780000000  0.4819610000000 1.0
C      1  0.4969260000000  0.4687510000000  0.5203540000000 1.0
C      1  0.5193910000000  0.4690160000000  0.4944700000000 1.0
C      1  0.5196690000000  0.5885630000000  0.5576680000000 1.0
C      1  0.5416330000000  0.5921840000000  0.4541810000000 1.0
C      1  0.4411710000000  0.5929160000000  0.4856030000000 1.0
C      1  0.4000320000000  0.4860590000000  0.4945440000000 1.0
C      1  0.5469790000000  0.4932430000000  0.6016450000000 1.0
C      1  0.5571630000000  0.4877560000000  0.4193970000000 1.0
C      1  0.4633790000000  0.4146840000000  0.5513750000000 1.0
C      1  0.5606770000000  0.4159070000000  0.5051470000000 1.0
C      1  0.4696210000000  0.4142950000000  0.4404380000000 1.0
C      1  0.5188700000000  0.4594740000000  0.4043560000000 1.0
C      1  0.4042710000000  0.4559740000000  0.5334030000000 1.0
C      1  0.5667580000000  0.4624430000000  0.5650480000000 1.0
C      1  0.4782190000000  0.3976670000000  0.4754790000000 1.0
C      1  0.4882860000000  0.3940640000000  0.5281650000000 1.0
C      1  0.5257600000000  0.3993410000000  0.4956310000000 1.0
C      1  0.4671580000000  0.4782710000000  0.4498620000000 1.0
C      1  0.4827970000000  0.4742610000000  0.5509600000000 1.0
C      1  0.5519850000000  0.4794070000000  0.4977650000000 1.0
C      1  0.5761900000000  0.5164870000000  0.5672380000000 1.0
C      1  0.5189780000000  0.5150700000000  0.3995800000000 1.0
C      1  0.4038380000000  0.5162890000000  0.5375360000000 1.0
C      1  0.5707260000000  0.5363890000000  0.4438110000000 1.0
C      1  0.4215150000000  0.5353080000000  0.4625330000000 1.0
C      1  0.5013210000000  0.5368760000000  0.6028450000000 1.0
C      1  0.5421510000000  0.5783380000000  0.5351410000000 1.0
C      1  0.5164880000000  0.5961630000000  0.4337970000000 1.0
C      1  0.4467880000000  0.5915340000000  0.5191770000000 1.0
C      1  0.5125900000000  0.6172080000000  0.4878730000000 1.0
C      1  0.4818590000000  0.6052870000000  0.4974290000000 1.0
C      1  0.5061340000000  0.6074530000000  0.5193850000000 1.0
C      1  0.5716600000000  0.4329080000000  0.4772380000000 1.0
C      1  0.4411850000000  0.4329030000000  0.4483780000000 1.0
C      1  0.4818240000000  0.4265140000000  0.5778180000000 1.0
C      1  0.5242190000000  0.4102450000000  0.5216170000000 1.0
C      1  0.5068670000000  0.4107330000000  0.4717240000000 1.0
C      1  0.4679420000000  0.4091170000000  0.5104610000000 1.0
C      1  0.4792060000000  0.4369230000000  0.4600640000000 1.0
C      1  0.4771460000000  0.4345250000000  0.5283490000000 1.0
C      1  0.5438980000000  0.4432870000000  0.5113180000000 1.0
C      1  0.4439710000000  0.5281600000000  0.4830000000000 1.0
C      1  0.5082610000000  0.5377110000000  0.5384620000000 1.0
C      1  0.5398970000000  0.5298770000000  0.4546140000000 1.0
C      1  0.4795400000000  0.5209130000000  0.5884400000000 1.0
C      1  0.5921340000000  0.5327640000000  0.4704290000000 1.0
C      1  0.4322030000000  0.5360220000000  0.4302000000000 1.0
C      1  0.4294410000000  0.4926650000000  0.4105070000000 1.0
C      1  0.4421990000000  0.4813250000000  0.5894330000000 1.0
C      1  0.6178200000000  0.4931560000000  0.4836950000000 1.0
C      1  0.5159970000000  0.5192810000000  0.5038240000000 1.0
C      1  0.4913410000000  0.5104510000000  0.4823190000000 1.0
C      1  0.4852140000000  0.5152330000000  0.5143440000000 1.0
C      1  0.5454670000000  0.4629240000000  0.5861190000000 1.0
C      1  0.5478320000000  0.4584710000000  0.4131820000000 1.0
C      1  0.3982950000000  0.4570340000000  0.5059930000000 1.0
C      1  0.4569700000000  0.4904360000000  0.5447820000000 1.0
C      1  0.5573400000000  0.4982380000000  0.5209680000000 1.0
C      1  0.4897100000000  0.4953620000000  0.4386210000000 1.0
C      1  0.6115840000000  0.5111000000000  0.4619140000000 1.0
C      1  0.4281550000000  0.5076980000000  0.4344020000000 1.0
C      1  0.4734940000000  0.4927960000000  0.5964680000000 1.0
C      1  0.4297550000000  0.4770100000000  0.4828000000000 1.0
C      1  0.5190740000000  0.4845420000000  0.5847350000000 1.0
C      1  0.5432770000000  0.4795350000000  0.4468630000000 1.0
C      1  0.5579830000000  0.4382600000000  0.4304210000000 1.0
C      1  0.4063460000000  0.4368270000000  0.4871530000000 1.0
C      1  0.5277410000000  0.4375750000000  0.5864480000000 1.0
C      1  0.5194800000000  0.5808720000000  0.5023430000000 1.0
C      1  0.5059800000000  0.5879930000000  0.4712020000000 1.0
C      1  0.4782690000000  0.5789350000000  0.5189580000000 1.0
C      1  0.4591610000000  0.5230270000000  0.5432780000000 1.0
C      1  0.5606620000000  0.5296110000000  0.5116070000000 1.0
C      1  0.4843090000000  0.5273160000000  0.4380860000000 1.0
C      1  0.4662090000000  0.5938080000000  0.5470700000000 1.0
C      1  0.5514640000000  0.5912800000000  0.5077410000000 1.0
C      1  0.4864270000000  0.5959570000000  0.4464980000000 1.0
C      1  0.4514940000000  0.5364210000000  0.5152310000000 1.0
C      1  0.5396550000000  0.5484510000000  0.5305750000000 1.0
C      1  0.5098250000000  0.5417990000000  0.4440960000000 1.0
C      1  0.4331150000000  0.4199560000000  0.4943860000000 1.0
C      1  0.5268890000000  0.4170840000000  0.5609080000000 1.0
C      1  0.5362710000000  0.4211300000000  0.4469660000000 1.0
C      1  0.4668540000000  0.5817980000000  0.4289680000000 1.0
C      1  0.4573340000000  0.5809880000000  0.5720380000000 1.0
C      1  0.5786760000000  0.5805020000000  0.5027010000000 1.0
C      1  0.5254540000000  0.5194200000000  0.6076940000000 1.0
C      1  0.5789520000000  0.5111940000000  0.4250370000000 1.0
C      1  0.4033110000000  0.5100670000000  0.4706660000000 1.0
C      1  0.4907890000000  0.4660080000000  0.6095980000000 1.0
C      1  0.5946550000000  0.4681240000000  0.4514120000000 1.0
C      1  0.4055420000000  0.4594380000000  0.4303110000000 1.0
C      1  0.5120630000000  0.4855240000000  0.3830730000000 1.0
C      1  0.4055080000000  0.4833160000000  0.5464460000000 1.0
C      1  0.5914290000000  0.4857510000000  0.5685200000000 1.0
C      1  0.5409360000000  0.5762160000000  0.4254140000000 1.0
C      1  0.4228750000000  0.5733110000000  0.5042980000000 1.0
C      1  0.5451380000000  0.5741810000000  0.5688360000000 1.0
C      1  0.4739610000000  0.4432150000000  0.4103410000000 1.0
C      1  0.4402960000000  0.4491660000000  0.5631430000000 1.0
C      1  0.5862010000000  0.4479260000000  0.5237640000000 1.0
C      1  0.4124880000000  0.4471730000000  0.4595850000000 1.0
C      1  0.5016620000000  0.4415380000000  0.5955910000000 1.0
C      1  0.5782120000000  0.4449830000000  0.4488210000000 1.0
C      1  0.5002920000000  0.4592790000000  0.4607050000000 1.0
C      1  0.4636170000000  0.4606010000000  0.5191430000000 1.0
C      1  0.5351900000000  0.4645100000000  0.5307590000000 1.0
C      1  0.4570800000000  0.4637780000000  0.6112450000000 1.0
C      1  0.6012090000000  0.4702270000000  0.4802360000000 1.0
C      1  0.4287070000000  0.4652060000000  0.4152040000000 1.0
C      1  0.4403960000000  0.5809670000000  0.4391430000000 1.0
C      1  0.4766850000000  0.5798090000000  0.5928440000000 1.0
C      1  0.5855610000000  0.5791930000000  0.4752490000000 1.0
END
