TITL C-2782228-2999-602 -0.0143048420463735 125000 -566.670349966468 0 0 97 (C1) n - 1
REM
REM in /home/nfs/bkarasulu/CARBON/AIRSS/Generating-Clusters/REBO/Higher-Symm/SD-CG/HFTN-CG
REM
REM
REM
REM
REM
REM ./C.cell (12c818d87b63d06a65506943cc24bca4)
REM
REM compiler GCC version 9.2.1 20190827 (Red Hat 9.2.1-1)
REM options -cpp -mtune=generic -march=x86-64 -g -O0 -fpre-include=/usr/include/finclude/math-vector-fortran.h
REM seed -242613988 -1351885523 -1870040431 1836274296 2037638289 -921246697 -2078499718 638050607 -1397811658 -1523617066 -1250888953 910633779 2082505109 2113041509 -1561934340 -1764507891 -1556636522 -1223601019 1445120875 1495351863 -174833333 -1819154871 -893426969 -1942004522 -1409217443 372057642 853430346 -1947560091 668490083 -1650292791 424011690 -770341605 -918252782
REM
CELL 1.54180   50.00000   50.00000   50.00000   90.00000   90.00000   90.00000
LATT -1
SFAC C  
C      1  0.5303630000000  0.5109990000000  0.4398450000000 1.0
C      1  0.5050170000000  0.5311000000000  0.4357710000000 1.0
C      1  0.4756060000000  0.5179460000000  0.4328280000000 1.0
C      1  0.4720790000000  0.4881130000000  0.4242820000000 1.0
C      1  0.4936390000000  0.4687150000000  0.4344130000000 1.0
C      1  0.5210230000000  0.4838240000000  0.4411810000000 1.0
C      1  0.4593720000000  0.5861240000000  0.5119000000000 1.0
C      1  0.4050700000000  0.5067600000000  0.5115820000000 1.0
C      1  0.4454620000000  0.4206270000000  0.5137700000000 1.0
C      1  0.5410640000000  0.4136640000000  0.5116630000000 1.0
C      1  0.5962950000000  0.4936700000000  0.5136130000000 1.0
C      1  0.5544520000000  0.5787920000000  0.5145560000000 1.0
C      1  0.5872950000000  0.4547870000000  0.5065350000000 1.0
C      1  0.5789140000000  0.5446080000000  0.5033190000000 1.0
C      1  0.5015500000000  0.5893900000000  0.5009790000000 1.0
C      1  0.4232040000000  0.5449130000000  0.4992620000000 1.0
C      1  0.4210080000000  0.4549410000000  0.5024460000000 1.0
C      1  0.4990420000000  0.4100280000000  0.5002620000000 1.0
C      1  0.5546630000000  0.4952750000000  0.5002750000000 1.0
C      1  0.5311870000000  0.5450730000000  0.5030560000000 1.0
C      1  0.4764630000000  0.5487610000000  0.5021030000000 1.0
C      1  0.4459240000000  0.5033120000000  0.5018580000000 1.0
C      1  0.4689900000000  0.4541920000000  0.5030480000000 1.0
C      1  0.5240550000000  0.4505440000000  0.5040310000000 1.0
C      1  0.4873910000000  0.5234170000000  0.5033310000000 1.0
C      1  0.4732190000000  0.5001330000000  0.5036810000000 1.0
C      1  0.4858770000000  0.4760490000000  0.5048530000000 1.0
C      1  0.5131290000000  0.4758310000000  0.5056170000000 1.0
C      1  0.5275620000000  0.4988760000000  0.5027710000000 1.0
C      1  0.5146730000000  0.5229050000000  0.5031690000000 1.0
C      1  0.4576380000000  0.4303520000000  0.5380750000000 1.0
C      1  0.5392170000000  0.4286650000000  0.5363230000000 1.0
C      1  0.5811580000000  0.4980150000000  0.5379630000000 1.0
C      1  0.5420660000000  0.5690370000000  0.5387050000000 1.0
C      1  0.4610620000000  0.5710310000000  0.5364830000000 1.0
C      1  0.4189290000000  0.5017940000000  0.5365520000000 1.0
C      1  0.5446280000000  0.4483280000000  0.4767450000000 1.0
C      1  0.5709050000000  0.5127170000000  0.4756180000000 1.0
C      1  0.5245230000000  0.5664310000000  0.4771610000000 1.0
C      1  0.4549910000000  0.5528550000000  0.4757190000000 1.0
C      1  0.4318990000000  0.4860770000000  0.4757880000000 1.0
C      1  0.4758970000000  0.4332100000000  0.4768740000000 1.0
C      1  0.4944750000000  0.5672660000000  0.5150190000000 1.0
C      1  0.4386410000000  0.5282870000000  0.5141540000000 1.0
C      1  0.4439830000000  0.4605170000000  0.5157980000000 1.0
C      1  0.5055440000000  0.4316590000000  0.5151620000000 1.0
C      1  0.5629550000000  0.4716750000000  0.5141500000000 1.0
C      1  0.5558620000000  0.5388900000000  0.5165120000000 1.0
C      1  0.5286270000000  0.5498430000000  0.4492340000000 1.0
C      1  0.4709890000000  0.5479070000000  0.4476560000000 1.0
C      1  0.4466090000000  0.4940970000000  0.4461680000000 1.0
C      1  0.4714480000000  0.4488600000000  0.4482970000000 1.0
C      1  0.5269260000000  0.4582520000000  0.4537060000000 1.0
C      1  0.5624150000000  0.5067940000000  0.4439540000000 1.0
C      1  0.5067760000000  0.5304550000000  0.5544410000000 1.0
C      1  0.4763900000000  0.5214790000000  0.5541060000000 1.0
C      1  0.4698740000000  0.4906040000000  0.5540600000000 1.0
C      1  0.4928840000000  0.4687120000000  0.5539580000000 1.0
C      1  0.5232240000000  0.4779250000000  0.5533520000000 1.0
C      1  0.5297920000000  0.5086740000000  0.5543480000000 1.0
C      1  0.4872190000000  0.4381600000000  0.5397510000000 1.0
C      1  0.5464310000000  0.4583760000000  0.5376330000000 1.0
C      1  0.5591510000000  0.5191770000000  0.5404700000000 1.0
C      1  0.5126420000000  0.5607030000000  0.5397410000000 1.0
C      1  0.4534800000000  0.5414140000000  0.5384350000000 1.0
C      1  0.4406710000000  0.4803390000000  0.5396560000000 1.0
C      1  0.5571740000000  0.5508460000000  0.5545980000000 1.0
C      1  0.4840620000000  0.5753710000000  0.5527300000000 1.0
C      1  0.4263610000000  0.5245650000000  0.5519760000000 1.0
C      1  0.4424050000000  0.4485770000000  0.5538440000000 1.0
C      1  0.5163340000000  0.4241770000000  0.5528340000000 1.0
C      1  0.5732530000000  0.4748480000000  0.5525820000000 1.0
C      1  0.4271540000000  0.4521730000000  0.4715620000000 1.0
C      1  0.5045630000000  0.4155390000000  0.4694700000000 1.0
C      1  0.5741750000000  0.4597420000000  0.4778740000000 1.0
C      1  0.5728160000000  0.5473470000000  0.4724380000000 1.0
C      1  0.4963000000000  0.5847700000000  0.4700090000000 1.0
C      1  0.4254120000000  0.5365650000000  0.4687120000000 1.0
C      1  0.5509910000000  0.4776690000000  0.5720430000000 1.0
C      1  0.5420130000000  0.5334450000000  0.5733330000000 1.0
C      1  0.4909640000000  0.5540520000000  0.5723360000000 1.0
C      1  0.4480620000000  0.5210490000000  0.5720790000000 1.0
C      1  0.4572240000000  0.4659490000000  0.5727770000000 1.0
C      1  0.5090310000000  0.4455760000000  0.5720960000000 1.0
C      1  0.5029330000000  0.4381930000000  0.4479800000000 1.0
C      1  0.5771180000000  0.4899550000000  0.4282570000000 1.0
C      1  0.5554750000000  0.5374870000000  0.4485070000000 1.0
C      1  0.4980390000000  0.5629130000000  0.4475480000000 1.0
C      1  0.4456860000000  0.5263180000000  0.4473800000000 1.0
C      1  0.4448230000000  0.4615380000000  0.4473950000000 1.0
C      1  0.5904960000000  0.4881790000000  0.4851390000000 1.0
C      1  0.5552290000000  0.5725220000000  0.4874500000000 1.0
C      1  0.4656140000000  0.5828010000000  0.4848870000000 1.0
C      1  0.4109410000000  0.5099360000000  0.4844100000000 1.0
C      1  0.4449490000000  0.4271920000000  0.4866840000000 1.0
C      1  0.5350200000000  0.4176950000000  0.4846950000000 1.0
C      1  0.4635090000000  0.4833420000000  0.3955560000000 1.0
END
