TITL C-2782226-7400-571 -0.00103425417938707 125000 -220.022825821976 0 0 40 (C1) n - 1
REM
REM in /home/nfs/bkarasulu/CARBON/AIRSS/Generating-Clusters/REBO/Higher-Symm/SD-CG/HFTN-CG
REM
REM
REM
REM
REM
REM ./C.cell (12c818d87b63d06a65506943cc24bca4)
REM
REM compiler GCC version 9.2.1 20190827 (Red Hat 9.2.1-1)
REM options -cpp -mtune=generic -march=x86-64 -g -O0 -fpre-include=/usr/include/finclude/math-vector-fortran.h
REM seed -298069960 523373290 1086161253 -742405315 -103155798 1512219441 -316483057 2143170836 1574149355 -194077600 -1554827006 -1778168519 785922751 56030342 -2009408291 757312152 -950277797 -715298915 -393969069 -775528701 2033412521 -165174609 1920472959 -1780276200 -777926645 969536498 -92744985 -817366811 1630667454 1187287747 1275457428 743942635 -37108348
REM
CELL 1.54180   50.00000   50.00000   50.00000   90.00000   90.00000   90.00000
LATT -1
SFAC C  
C      1  0.4625090000000  0.4737850000000  0.5289190000000 1.0
C      1  0.4795360000000  0.5555770000000  0.5234510000000 1.0
C      1  0.5321180000000  0.5331640000000  0.5190610000000 1.0
C      1  0.5628780000000  0.4627460000000  0.5305420000000 1.0
C      1  0.4762760000000  0.4695130000000  0.4997490000000 1.0
C      1  0.4991940000000  0.4291670000000  0.5088980000000 1.0
C      1  0.4480060000000  0.5913560000000  0.4658680000000 1.0
C      1  0.5142320000000  0.4486330000000  0.5275050000000 1.0
C      1  0.5601240000000  0.5192320000000  0.5275370000000 1.0
C      1  0.4559740000000  0.4954550000000  0.4461620000000 1.0
C      1  0.5401990000000  0.5483770000000  0.4927520000000 1.0
C      1  0.5311750000000  0.4967640000000  0.4870120000000 1.0
C      1  0.4882920000000  0.5310750000000  0.5135820000000 1.0
C      1  0.4724390000000  0.4664590000000  0.4521790000000 1.0
C      1  0.4818330000000  0.4404500000000  0.4620730000000 1.0
C      1  0.5102280000000  0.5098040000000  0.5557240000000 1.0
C      1  0.5580480000000  0.5044840000000  0.4802940000000 1.0
C      1  0.5011220000000  0.4794260000000  0.5208040000000 1.0
C      1  0.5529480000000  0.4905540000000  0.5381330000000 1.0
C      1  0.4379300000000  0.4983930000000  0.4963160000000 1.0
C      1  0.4895640000000  0.5556720000000  0.4680560000000 1.0
C      1  0.4673520000000  0.5747450000000  0.4668870000000 1.0
C      1  0.4579290000000  0.4839620000000  0.4779710000000 1.0
C      1  0.4381900000000  0.5043460000000  0.5203270000000 1.0
C      1  0.5094130000000  0.5386320000000  0.4462480000000 1.0
C      1  0.4951250000000  0.5292140000000  0.4867860000000 1.0
C      1  0.4883440000000  0.5079240000000  0.5332120000000 1.0
C      1  0.5646890000000  0.5275430000000  0.4969890000000 1.0
C      1  0.5266730000000  0.4994900000000  0.5182310000000 1.0
C      1  0.4880510000000  0.4192520000000  0.4457080000000 1.0
C      1  0.5097610000000  0.5088640000000  0.4729360000000 1.0
C      1  0.4591730000000  0.5026560000000  0.5445210000000 1.0
C      1  0.5158600000000  0.4636220000000  0.5563190000000 1.0
C      1  0.5233300000000  0.5531130000000  0.4715520000000 1.0
C      1  0.5056890000000  0.5091190000000  0.4427950000000 1.0
C      1  0.5275080000000  0.4886380000000  0.5568500000000 1.0
C      1  0.5457390000000  0.4451760000000  0.5248160000000 1.0
C      1  0.4856150000000  0.4917800000000  0.4334450000000 1.0
C      1  0.4844810000000  0.4418640000000  0.4897040000000 1.0
C      1  0.4524520000000  0.5099720000000  0.5700850000000 1.0
END
