TITL C-2782227-3064-861 -0.00069240710008383 125000 -269.719309168685 0 0 49 (C1) n - 1
REM
REM in /home/nfs/bkarasulu/CARBON/AIRSS/Generating-Clusters/REBO/Higher-Symm/SD-CG/HFTN-CG
REM
REM
REM
REM
REM
REM ./C.cell (12c818d87b63d06a65506943cc24bca4)
REM
REM compiler GCC version 9.2.1 20190827 (Red Hat 9.2.1-1)
REM options -cpp -mtune=generic -march=x86-64 -g -O0 -fpre-include=/usr/include/finclude/math-vector-fortran.h
REM seed 636458237 863077382 795940259 -1154920594 1932564309 335629728 170806170 -2023281432 731098672 -420979617 -409112498 -1150533198 -511220815 1253318188 -1879833939 -74095644 1605131244 -1272179077 416573103 1494575411 1699406385 1031303844 -1698196199 1319055897 -1676441176 -785043290 176506956 630696252 1240807769 307305165 -205907565 2135942321 -1683206055
REM
CELL 1.54180   50.00000   50.00000   50.00000   90.00000   90.00000   90.00000
LATT -1
SFAC C  
C      1  0.5186040000000  0.4229760000000  0.4770370000000 1.0
C      1  0.5188390000000  0.5588150000000  0.4542310000000 1.0
C      1  0.5074690000000  0.5062760000000  0.5733380000000 1.0
C      1  0.4708230000000  0.5529390000000  0.5275800000000 1.0
C      1  0.4720330000000  0.4510540000000  0.5291630000000 1.0
C      1  0.4738710000000  0.5009120000000  0.4434580000000 1.0
C      1  0.5342510000000  0.4951500000000  0.4463150000000 1.0
C      1  0.5388360000000  0.5454300000000  0.5275750000000 1.0
C      1  0.5399500000000  0.4533560000000  0.5322600000000 1.0
C      1  0.5087850000000  0.4810420000000  0.4795580000000 1.0
C      1  0.4956610000000  0.5230680000000  0.4943960000000 1.0
C      1  0.5150880000000  0.4830890000000  0.5225160000000 1.0
C      1  0.5219910000000  0.5154800000000  0.4299440000000 1.0
C      1  0.5268340000000  0.5339920000000  0.5524680000000 1.0
C      1  0.5216380000000  0.4319780000000  0.5256320000000 1.0
C      1  0.4905140000000  0.4754020000000  0.5395570000000 1.0
C      1  0.4863860000000  0.4743460000000  0.4589520000000 1.0
C      1  0.4843660000000  0.5537340000000  0.4975380000000 1.0
C      1  0.5366110000000  0.4980700000000  0.5294350000000 1.0
C      1  0.5335330000000  0.4679320000000  0.4840780000000 1.0
C      1  0.5222430000000  0.5242030000000  0.4853760000000 1.0
C      1  0.5048750000000  0.4261250000000  0.5024000000000 1.0
C      1  0.5055600000000  0.5378370000000  0.4390110000000 1.0
C      1  0.4969870000000  0.5329360000000  0.5630700000000 1.0
C      1  0.4784420000000  0.5301070000000  0.4449040000000 1.0
C      1  0.4712110000000  0.5367660000000  0.5510870000000 1.0
C      1  0.4776610000000  0.4356660000000  0.5043620000000 1.0
C      1  0.5348410000000  0.5645170000000  0.5063560000000 1.0
C      1  0.5428500000000  0.4692760000000  0.5562700000000 1.0
C      1  0.5355220000000  0.4664740000000  0.4441780000000 1.0
C      1  0.4378400000000  0.4807250000000  0.5022710000000 1.0
C      1  0.4350770000000  0.5086940000000  0.4829470000000 1.0
C      1  0.4370730000000  0.5114600000000  0.5171000000000 1.0
C      1  0.4936610000000  0.5752260000000  0.4839120000000 1.0
C      1  0.4915850000000  0.4845150000000  0.5685150000000 1.0
C      1  0.4872520000000  0.4497100000000  0.4465680000000 1.0
C      1  0.4536580000000  0.4523000000000  0.4937870000000 1.0
C      1  0.4536970000000  0.5291350000000  0.4632710000000 1.0
C      1  0.4498270000000  0.5168460000000  0.5473130000000 1.0
C      1  0.4641680000000  0.4824910000000  0.5221840000000 1.0
C      1  0.4605640000000  0.4902360000000  0.4709530000000 1.0
C      1  0.4584130000000  0.5335110000000  0.5036560000000 1.0
C      1  0.5484320000000  0.4663910000000  0.5080880000000 1.0
C      1  0.5393230000000  0.5057490000000  0.4724840000000 1.0
C      1  0.5487310000000  0.5199980000000  0.5167000000000 1.0
C      1  0.5286170000000  0.5527890000000  0.4807060000000 1.0
C      1  0.5371500000000  0.5023940000000  0.5616680000000 1.0
C      1  0.5338640000000  0.4440750000000  0.4650810000000 1.0
C      1  0.4712070000000  0.5024470000000  0.4985520000000 1.0
END
