TITL C-2782231-7322-139 0.00363762217455349 125000 -470.249391581463 0 0 76 (C1) n - 1
REM
REM in /home/nfs/bkarasulu/CARBON/AIRSS/Generating-Clusters/REBO/Higher-Symm/SD-CG/HFTN-CG
REM
REM
REM
REM
REM
REM ./C.cell (12c818d87b63d06a65506943cc24bca4)
REM
REM compiler GCC version 9.2.1 20190827 (Red Hat 9.2.1-1)
REM options -cpp -mtune=generic -march=x86-64 -g -O0 -fpre-include=/usr/include/finclude/math-vector-fortran.h
REM seed 1579140323 -1101501716 -1936397193 1721710347 -828478942 88924457 -985255690 -1865097373 -964371410 1478714359 1253715782 -785758648 1442660659 1799474289 575931007 -1759738719 513148719 1796552067 -706329716 -1750427259 1191879417 745525025 496051271 264354344 -1132296767 -1665384357 629664516 946828001 -889140931 -741562757 1534544490 670547830 -1249122475
REM
CELL 1.54180   50.00000   50.00000   50.00000   90.00000   90.00000   90.00000
LATT -1
SFAC C  
C      1  0.5292290000000  0.5656360000000  0.4539680000000 1.0
C      1  0.4513910000000  0.5486110000000  0.4535850000000 1.0
C      1  0.4394180000000  0.4687470000000  0.4485170000000 1.0
C      1  0.5133510000000  0.4286710000000  0.4542590000000 1.0
C      1  0.5680380000000  0.4873410000000  0.4476750000000 1.0
C      1  0.5068550000000  0.4712950000000  0.5158330000000 1.0
C      1  0.5289960000000  0.4961420000000  0.5085520000000 1.0
C      1  0.5102380000000  0.5228080000000  0.5127200000000 1.0
C      1  0.4768270000000  0.5182490000000  0.5085350000000 1.0
C      1  0.4758240000000  0.4838690000000  0.5094150000000 1.0
C      1  0.5483100000000  0.5468950000000  0.5198740000000 1.0
C      1  0.4671650000000  0.5605980000000  0.5209910000000 1.0
C      1  0.4331770000000  0.4854400000000  0.5179930000000 1.0
C      1  0.4888220000000  0.4323830000000  0.5206090000000 1.0
C      1  0.5631170000000  0.4719410000000  0.5188980000000 1.0
C      1  0.4311100000000  0.5417720000000  0.4972080000000 1.0
C      1  0.4419130000000  0.4485450000000  0.4920780000000 1.0
C      1  0.5311140000000  0.4247550000000  0.4998560000000 1.0
C      1  0.5744480000000  0.5064290000000  0.4908780000000 1.0
C      1  0.5189100000000  0.5800550000000  0.5002790000000 1.0
C      1  0.4842840000000  0.4620340000000  0.5572310000000 1.0
C      1  0.5326080000000  0.4723350000000  0.5621400000000 1.0
C      1  0.5321320000000  0.5210010000000  0.5570850000000 1.0
C      1  0.4864980000000  0.5446520000000  0.5565770000000 1.0
C      1  0.4596140000000  0.5040140000000  0.5593900000000 1.0
C      1  0.4205570000000  0.4894380000000  0.4925420000000 1.0
C      1  0.4851440000000  0.4218810000000  0.4943040000000 1.0
C      1  0.5697740000000  0.4607480000000  0.4932550000000 1.0
C      1  0.5552090000000  0.5520790000000  0.4927950000000 1.0
C      1  0.4649160000000  0.5735730000000  0.4956450000000 1.0
C      1  0.4932610000000  0.5733140000000  0.4849980000000 1.0
C      1  0.4303960000000  0.5160230000000  0.4816000000000 1.0
C      1  0.4680630000000  0.4413580000000  0.4781970000000 1.0
C      1  0.5458640000000  0.4456760000000  0.4832990000000 1.0
C      1  0.5558470000000  0.5264740000000  0.4763450000000 1.0
C      1  0.5195210000000  0.4349120000000  0.5287670000000 1.0
C      1  0.5677450000000  0.4997320000000  0.5175520000000 1.0
C      1  0.5244190000000  0.5651150000000  0.5301100000000 1.0
C      1  0.4433830000000  0.5405090000000  0.5272400000000 1.0
C      1  0.4446050000000  0.4596760000000  0.5179460000000 1.0
C      1  0.5222520000000  0.5159610000000  0.4511040000000 1.0
C      1  0.4923880000000  0.5224150000000  0.4554300000000 1.0
C      1  0.4773790000000  0.4970370000000  0.4565310000000 1.0
C      1  0.4970990000000  0.4749870000000  0.4562960000000 1.0
C      1  0.5257890000000  0.4869280000000  0.4518700000000 1.0
C      1  0.4603300000000  0.5342910000000  0.5563850000000 1.0
C      1  0.4779630000000  0.4862380000000  0.5707980000000 1.0
C      1  0.5107370000000  0.4510140000000  0.5576910000000 1.0
C      1  0.5252710000000  0.4979350000000  0.5719920000000 1.0
C      1  0.5181830000000  0.5462070000000  0.5580440000000 1.0
C      1  0.4491390000000  0.4958490000000  0.4431100000000 1.0
C      1  0.4912780000000  0.4457080000000  0.4459790000000 1.0
C      1  0.5468160000000  0.4672120000000  0.4392140000000 1.0
C      1  0.5402510000000  0.5412420000000  0.4426570000000 1.0
C      1  0.4796130000000  0.5492910000000  0.4465110000000 1.0
C      1  0.5402780000000  0.4420650000000  0.4522180000000 1.0
C      1  0.5616910000000  0.5162680000000  0.4459030000000 1.0
C      1  0.4995870000000  0.5685700000000  0.4545610000000 1.0
C      1  0.4382910000000  0.5216480000000  0.4516840000000 1.0
C      1  0.4604690000000  0.4475660000000  0.4474250000000 1.0
C      1  0.4957570000000  0.5494120000000  0.5256760000000 1.0
C      1  0.4505500000000  0.5080640000000  0.5282730000000 1.0
C      1  0.4725280000000  0.4568060000000  0.5300930000000 1.0
C      1  0.5367670000000  0.4640690000000  0.5308980000000 1.0
C      1  0.5458170000000  0.5175220000000  0.5298010000000 1.0
C      1  0.5783450000000  0.4822270000000  0.4749620000000 1.0
C      1  0.5398070000000  0.5726760000000  0.4809290000000 1.0
C      1  0.4446070000000  0.5611060000000  0.4799650000000 1.0
C      1  0.4259060000000  0.4663800000000  0.4750270000000 1.0
C      1  0.5099610000000  0.4162820000000  0.4813770000000 1.0
C      1  0.5272910000000  0.4742250000000  0.4823040000000 1.0
C      1  0.5220940000000  0.5291950000000  0.4818120000000 1.0
C      1  0.4889770000000  0.5393190000000  0.4841410000000 1.0
C      1  0.4586000000000  0.4966690000000  0.4829680000000 1.0
C      1  0.4962830000000  0.4592330000000  0.4856920000000 1.0
C      1  0.4998760000000  0.4977990000000  0.5851970000000 1.0
END
