TITL C-2782226-7400-644 -0.00288405467294285 125000 -497.875317153648 0 0 88 (C1) n - 1
REM
REM in /home/nfs/bkarasulu/CARBON/AIRSS/Generating-Clusters/REBO/Higher-Symm/SD-CG/HFTN-CG
REM
REM
REM
REM
REM
REM ./C.cell (12c818d87b63d06a65506943cc24bca4)
REM
REM compiler GCC version 9.2.1 20190827 (Red Hat 9.2.1-1)
REM options -cpp -mtune=generic -march=x86-64 -g -O0 -fpre-include=/usr/include/finclude/math-vector-fortran.h
REM seed -337604771 -1115749670 -344278240 788090645 -1391748602 1550809356 -698915386 -1114544035 -1465572293 -822967176 -1500970733 1487933354 84397748 -1258455383 -631354251 -1678854760 1078022278 -1464751714 637062202 1267457915 -1874436554 -49862489 -780769224 -2098317502 -1911647364 679192478 -20370431 1789944951 1421752266 -518033305 2066766691 1299514041 1847082348
REM
CELL 1.54180   50.00000   50.00000   50.00000   90.00000   90.00000   90.00000
LATT -1
SFAC C  
C      1  0.5431470000000  0.4783190000000  0.4888730000000 1.0
C      1  0.5482410000000  0.5139970000000  0.4158480000000 1.0
C      1  0.4333790000000  0.5415000000000  0.4848070000000 1.0
C      1  0.5752990000000  0.5064300000000  0.5184660000000 1.0
C      1  0.4986090000000  0.5716300000000  0.5424640000000 1.0
C      1  0.4867700000000  0.4867110000000  0.5420190000000 1.0
C      1  0.5574690000000  0.5500950000000  0.4594710000000 1.0
C      1  0.4590940000000  0.5498500000000  0.4457320000000 1.0
C      1  0.5329380000000  0.5215110000000  0.5662520000000 1.0
C      1  0.5394560000000  0.5403630000000  0.4251390000000 1.0
C      1  0.4388860000000  0.5020750000000  0.5563700000000 1.0
C      1  0.4339040000000  0.4938950000000  0.4758870000000 1.0
C      1  0.4640850000000  0.4554340000000  0.4949950000000 1.0
C      1  0.4741520000000  0.5503450000000  0.5502120000000 1.0
C      1  0.5696730000000  0.4442280000000  0.4933150000000 1.0
C      1  0.5743060000000  0.4761800000000  0.5032280000000 1.0
C      1  0.5157780000000  0.4287960000000  0.4806640000000 1.0
C      1  0.4605760000000  0.4876260000000  0.4955100000000 1.0
C      1  0.4473060000000  0.4743680000000  0.5750310000000 1.0
C      1  0.4941500000000  0.4925580000000  0.4555190000000 1.0
C      1  0.4767360000000  0.4935180000000  0.4312320000000 1.0
C      1  0.5272660000000  0.5502430000000  0.5729730000000 1.0
C      1  0.5947090000000  0.4692320000000  0.5306170000000 1.0
C      1  0.5527290000000  0.5371630000000  0.5454430000000 1.0
C      1  0.4209010000000  0.5410870000000  0.4599050000000 1.0
C      1  0.5268370000000  0.4471970000000  0.5229590000000 1.0
C      1  0.5545080000000  0.4462770000000  0.5207850000000 1.0
C      1  0.4553020000000  0.5644730000000  0.4953380000000 1.0
C      1  0.5100830000000  0.4305960000000  0.5084600000000 1.0
C      1  0.4737800000000  0.5331460000000  0.4788620000000 1.0
C      1  0.5232320000000  0.5030110000000  0.5406660000000 1.0
C      1  0.5073390000000  0.5229290000000  0.5190370000000 1.0
C      1  0.4353310000000  0.5294590000000  0.4336780000000 1.0
C      1  0.4684030000000  0.5223130000000  0.4270790000000 1.0
C      1  0.4513090000000  0.5155030000000  0.4604220000000 1.0
C      1  0.5072560000000  0.5704590000000  0.4553840000000 1.0
C      1  0.5035500000000  0.4466390000000  0.5552670000000 1.0
C      1  0.4520960000000  0.5608360000000  0.5292340000000 1.0
C      1  0.5325280000000  0.5780720000000  0.5013650000000 1.0
C      1  0.5192530000000  0.5024470000000  0.4505590000000 1.0
C      1  0.5553400000000  0.5464940000000  0.4927820000000 1.0
C      1  0.5312960000000  0.5026520000000  0.4886870000000 1.0
C      1  0.4849880000000  0.4734060000000  0.4777110000000 1.0
C      1  0.4822730000000  0.4268200000000  0.5161370000000 1.0
C      1  0.4225370000000  0.4870780000000  0.5075860000000 1.0
C      1  0.4751710000000  0.4553170000000  0.5707010000000 1.0
C      1  0.5854610000000  0.4992490000000  0.4806840000000 1.0
C      1  0.5373180000000  0.5673260000000  0.4435300000000 1.0
C      1  0.4664950000000  0.4231810000000  0.4878260000000 1.0
C      1  0.4869160000000  0.5193810000000  0.5438480000000 1.0
C      1  0.5122150000000  0.5673860000000  0.4863380000000 1.0
C      1  0.5506830000000  0.4842180000000  0.5539530000000 1.0
C      1  0.4825490000000  0.5678080000000  0.5154080000000 1.0
C      1  0.5270420000000  0.4800320000000  0.5753710000000 1.0
C      1  0.4891410000000  0.4227680000000  0.4656830000000 1.0
C      1  0.4988410000000  0.4530410000000  0.4544410000000 1.0
C      1  0.4841040000000  0.4650890000000  0.4284070000000 1.0
C      1  0.5403630000000  0.4927680000000  0.4340670000000 1.0
C      1  0.4743240000000  0.4950730000000  0.5729910000000 1.0
C      1  0.4249460000000  0.5100140000000  0.5289690000000 1.0
C      1  0.5688550000000  0.5260070000000  0.4477990000000 1.0
C      1  0.5310380000000  0.5282770000000  0.4796110000000 1.0
C      1  0.5734070000000  0.4988620000000  0.4555530000000 1.0
C      1  0.4762670000000  0.5657530000000  0.4691030000000 1.0
C      1  0.4767310000000  0.4357400000000  0.5423590000000 1.0
C      1  0.5145310000000  0.4714570000000  0.5384250000000 1.0
C      1  0.4171030000000  0.4661190000000  0.4813460000000 1.0
C      1  0.5625050000000  0.5103130000000  0.5418290000000 1.0
C      1  0.5253020000000  0.5660390000000  0.5491020000000 1.0
C      1  0.4615640000000  0.5245670000000  0.5661040000000 1.0
C      1  0.4372510000000  0.4638880000000  0.5232200000000 1.0
C      1  0.4349680000000  0.5375900000000  0.5178100000000 1.0
C      1  0.4376320000000  0.4390550000000  0.4830790000000 1.0
C      1  0.5560240000000  0.4701600000000  0.4498670000000 1.0
C      1  0.5004780000000  0.4771120000000  0.5804200000000 1.0
C      1  0.5463760000000  0.5588810000000  0.5232900000000 1.0
C      1  0.4073600000000  0.4368950000000  0.4723360000000 1.0
C      1  0.4252100000000  0.4125250000000  0.5218410000000 1.0
C      1  0.5682620000000  0.4433180000000  0.4658640000000 1.0
C      1  0.5676190000000  0.4623780000000  0.5401520000000 1.0
C      1  0.4311900000000  0.4380320000000  0.5225250000000 1.0
C      1  0.5188190000000  0.5328180000000  0.4497230000000 1.0
C      1  0.4915100000000  0.5446490000000  0.4391760000000 1.0
C      1  0.4965670000000  0.5434230000000  0.4988370000000 1.0
C      1  0.5797900000000  0.5263250000000  0.4968420000000 1.0
C      1  0.5304190000000  0.4557240000000  0.4673250000000 1.0
C      1  0.4545980000000  0.5179890000000  0.4996720000000 1.0
C      1  0.4562520000000  0.4764940000000  0.5426010000000 1.0
END
