TITL C-2782238-9940-209 0.00372738201062717 125000 -198.512047360306 0 0 32 (D3d) n - 1
REM
REM in /home/nfs/bkarasulu/CARBON/AIRSS/Generating-Clusters/REBO/Higher-Symm/SD-CG/HFTN-CG
REM
REM
REM
REM
REM
REM ./C.cell (12c818d87b63d06a65506943cc24bca4)
REM
REM compiler GCC version 9.2.1 20190827 (Red Hat 9.2.1-1)
REM options -cpp -mtune=generic -march=x86-64 -g -O0 -fpre-include=/usr/include/finclude/math-vector-fortran.h
REM seed 1255166539 -2038581349 -976123238 -666224240 782530352 -634128705 -1100217260 -307640651 -578273797 -1304286330 -630376367 1565892590 1191456267 -981356525 438055430 -284118408 552378883 -335448390 -2142949076 358095993 -1404850616 406703566 -2021864960 -2032039618 161679019 -1471838703 1508943018 328453195 170722412 -1050176965 471548579 -1562003265 1470542133
REM
CELL 1.54180   50.00000   50.00000   50.00000   90.00000   90.00000   90.00000
LATT -1
SFAC C  
C      1  0.4505500000000  0.4864990000000  0.4876990000000 1.0
C      1  0.4851400000000  0.4862830000000  0.4526290000000 1.0
C      1  0.4850240000000  0.4513160000000  0.4873240000000 1.0
C      1  0.5491330000000  0.4800240000000  0.5163040000000 1.0
C      1  0.5492500000000  0.5148210000000  0.4817790000000 1.0
C      1  0.4472190000000  0.5144340000000  0.5158430000000 1.0
C      1  0.5150590000000  0.4802370000000  0.5508490000000 1.0
C      1  0.5134070000000  0.5140210000000  0.4487380000000 1.0
C      1  0.4807540000000  0.5152480000000  0.5512230000000 1.0
C      1  0.5131830000000  0.4471120000000  0.5151250000000 1.0
C      1  0.5152910000000  0.5494790000000  0.4821480000000 1.0
C      1  0.4808690000000  0.5496930000000  0.5170460000000 1.0
C      1  0.4479480000000  0.5177840000000  0.4844230000000 1.0
C      1  0.4820220000000  0.5175710000000  0.4498780000000 1.0
C      1  0.4838980000000  0.5506960000000  0.4856020000000 1.0
C      1  0.5465310000000  0.5113090000000  0.5130280000000 1.0
C      1  0.5498620000000  0.4833740000000  0.4848840000000 1.0
C      1  0.4478310000000  0.4829870000000  0.5189480000000 1.0
C      1  0.5119410000000  0.5115250000000  0.5480980000000 1.0
C      1  0.5163270000000  0.4825600000000  0.4495040000000 1.0
C      1  0.4836740000000  0.4837870000000  0.5519890000000 1.0
C      1  0.5120570000000  0.5464920000000  0.5134030000000 1.0
C      1  0.5162120000000  0.4481150000000  0.4836810000000 1.0
C      1  0.4817900000000  0.4483290000000  0.5185790000000 1.0
C      1  0.5312100000000  0.4678770000000  0.4692030000000 1.0
C      1  0.4658710000000  0.5299310000000  0.5315240000000 1.0
C      1  0.4678570000000  0.5325340000000  0.4698920000000 1.0
C      1  0.4676420000000  0.4682740000000  0.5336500000000 1.0
C      1  0.5262250000000  0.5257410000000  0.5275050000000 1.0
C      1  0.4708560000000  0.4720670000000  0.4732220000000 1.0
C      1  0.5294390000000  0.5295340000000  0.4670770000000 1.0
C      1  0.5292240000000  0.4652740000000  0.5308350000000 1.0
END
