TITL C-2782226-7400-78 -0.00528655087613837 125000 -805.814558969148 0 0 141 (C1) n - 1
REM
REM in /home/nfs/bkarasulu/CARBON/AIRSS/Generating-Clusters/REBO/Higher-Symm/SD-CG/HFTN-CG
REM
REM
REM
REM
REM
REM ./C.cell (12c818d87b63d06a65506943cc24bca4)
REM
REM compiler GCC version 9.2.1 20190827 (Red Hat 9.2.1-1)
REM options -cpp -mtune=generic -march=x86-64 -g -O0 -fpre-include=/usr/include/finclude/math-vector-fortran.h
REM seed -1030851790 -364331632 540323365 -1281987291 1313915710 -270950980 -940035293 -38291460 2033534606 -1585062301 -875473505 1425150661 -1947459166 -611159737 1766490552 -937422634 1135343866 1482739652 1569659094 -503369720 1147060884 -689226355 1610558073 -1464749250 1651823525 1800207640 -2094411234 413490633 1054872575 80999081 -1172350694 -2047604323 -938557357
REM
CELL 1.54180   50.00000   50.00000   50.00000   90.00000   90.00000   90.00000
LATT -1
SFAC C  
C      1  0.4340580000000  0.4965510000000  0.4136030000000 1.0
C      1  0.4414290000000  0.5726930000000  0.5422790000000 1.0
C      1  0.4388340000000  0.4387120000000  0.5364380000000 1.0
C      1  0.5238760000000  0.5204320000000  0.5752220000000 1.0
C      1  0.5180190000000  0.4230520000000  0.4745440000000 1.0
C      1  0.5305600000000  0.5554050000000  0.4398280000000 1.0
C      1  0.5374990000000  0.4494800000000  0.5358670000000 1.0
C      1  0.5485590000000  0.4852400000000  0.4493180000000 1.0
C      1  0.5453590000000  0.5535820000000  0.5236110000000 1.0
C      1  0.4779680000000  0.5455640000000  0.5190420000000 1.0
C      1  0.4730190000000  0.4595060000000  0.5277580000000 1.0
C      1  0.4784780000000  0.4971660000000  0.4463360000000 1.0
C      1  0.5787710000000  0.4864300000000  0.5653140000000 1.0
C      1  0.5720400000000  0.4604380000000  0.4546060000000 1.0
C      1  0.5817000000000  0.5627280000000  0.4829880000000 1.0
C      1  0.4929310000000  0.4775590000000  0.5473820000000 1.0
C      1  0.4982170000000  0.4742890000000  0.4562810000000 1.0
C      1  0.5010900000000  0.5535620000000  0.4983840000000 1.0
C      1  0.5405930000000  0.4985880000000  0.5550950000000 1.0
C      1  0.5384100000000  0.4501720000000  0.4732830000000 1.0
C      1  0.5432630000000  0.5489240000000  0.4707270000000 1.0
C      1  0.4608550000000  0.4518200000000  0.4651350000000 1.0
C      1  0.4631440000000  0.5502730000000  0.4695980000000 1.0
C      1  0.4565610000000  0.4964160000000  0.5618510000000 1.0
C      1  0.4704450000000  0.5933160000000  0.5062510000000 1.0
C      1  0.4726130000000  0.4497040000000  0.5766950000000 1.0
C      1  0.4761520000000  0.4669230000000  0.4202920000000 1.0
C      1  0.4443690000000  0.4761370000000  0.4293090000000 1.0
C      1  0.4399880000000  0.5784400000000  0.5112930000000 1.0
C      1  0.4428410000000  0.4590050000000  0.5619420000000 1.0
C      1  0.5369740000000  0.4195040000000  0.4480870000000 1.0
C      1  0.5448040000000  0.5799910000000  0.4559560000000 1.0
C      1  0.5427740000000  0.5026710000000  0.5943980000000 1.0
C      1  0.5528920000000  0.4626100000000  0.5014380000000 1.0
C      1  0.5581560000000  0.5205260000000  0.4649340000000 1.0
C      1  0.5566310000000  0.5184940000000  0.5339130000000 1.0
C      1  0.4998000000000  0.5556050000000  0.4417940000000 1.0
C      1  0.4913610000000  0.5224870000000  0.5699830000000 1.0
C      1  0.4853130000000  0.4248640000000  0.4812640000000 1.0
C      1  0.5312440000000  0.5928360000000  0.5012690000000 1.0
C      1  0.5335090000000  0.4572720000000  0.5755930000000 1.0
C      1  0.5364780000000  0.4569720000000  0.4151040000000 1.0
C      1  0.4345980000000  0.5610920000000  0.5665960000000 1.0
C      1  0.4402460000000  0.4071250000000  0.5323100000000 1.0
C      1  0.4522930000000  0.5168160000000  0.4064860000000 1.0
C      1  0.4589140000000  0.5466260000000  0.4141380000000 1.0
C      1  0.4488890000000  0.5421130000000  0.5821070000000 1.0
C      1  0.4616290000000  0.3964440000000  0.5167300000000 1.0
C      1  0.5047960000000  0.4418080000000  0.5681850000000 1.0
C      1  0.5083010000000  0.4759970000000  0.4132590000000 1.0
C      1  0.5028920000000  0.5944370000000  0.5171130000000 1.0
C      1  0.4432020000000  0.4238780000000  0.4738760000000 1.0
C      1  0.4440520000000  0.5527070000000  0.4414490000000 1.0
C      1  0.4384650000000  0.5135890000000  0.5823380000000 1.0
C      1  0.4918120000000  0.5248580000000  0.4542170000000 1.0
C      1  0.4890360000000  0.5243110000000  0.5360690000000 1.0
C      1  0.4853030000000  0.4532150000000  0.5003390000000 1.0
C      1  0.5252420000000  0.5962900000000  0.4724030000000 1.0
C      1  0.5281720000000  0.4775820000000  0.5968760000000 1.0
C      1  0.5249130000000  0.4313590000000  0.4249710000000 1.0
C      1  0.5686230000000  0.5070840000000  0.5821840000000 1.0
C      1  0.5638000000000  0.4304700000000  0.4629040000000 1.0
C      1  0.5746090000000  0.5681290000000  0.4556970000000 1.0
C      1  0.4199230000000  0.4756550000000  0.5429450000000 1.0
C      1  0.4264060000000  0.4699840000000  0.4569740000000 1.0
C      1  0.4283880000000  0.5556880000000  0.4914630000000 1.0
C      1  0.5242060000000  0.4808250000000  0.4716110000000 1.0
C      1  0.5285840000000  0.5369280000000  0.4990190000000 1.0
C      1  0.5220880000000  0.4792430000000  0.5348700000000 1.0
C      1  0.5783600000000  0.4933700000000  0.4346140000000 1.0
C      1  0.5761750000000  0.5576350000000  0.5243210000000 1.0
C      1  0.5683320000000  0.4488790000000  0.5356770000000 1.0
C      1  0.5789770000000  0.4806340000000  0.5139230000000 1.0
C      1  0.5827450000000  0.5006080000000  0.4773900000000 1.0
C      1  0.5826640000000  0.5201390000000  0.5120250000000 1.0
C      1  0.4713270000000  0.4351470000000  0.5475210000000 1.0
C      1  0.4758380000000  0.4990790000000  0.4152420000000 1.0
C      1  0.4729320000000  0.5725720000000  0.5320000000000 1.0
C      1  0.4863380000000  0.4918820000000  0.5748030000000 1.0
C      1  0.4894020000000  0.4449340000000  0.4550470000000 1.0
C      1  0.4910760000000  0.5607820000000  0.4717650000000 1.0
C      1  0.5656970000000  0.4645440000000  0.4210240000000 1.0
C      1  0.5632570000000  0.5811060000000  0.5032400000000 1.0
C      1  0.5631700000000  0.4622430000000  0.5630980000000 1.0
C      1  0.4993610000000  0.5804560000000  0.5481100000000 1.0
C      1  0.4994840000000  0.4170800000000  0.5453900000000 1.0
C      1  0.5046750000000  0.5088450000000  0.4041800000000 1.0
C      1  0.5276790000000  0.5124070000000  0.4754740000000 1.0
C      1  0.5269840000000  0.5098460000000  0.5196640000000 1.0
C      1  0.5210960000000  0.4707360000000  0.5031720000000 1.0
C      1  0.5659310000000  0.5405820000000  0.4147500000000 1.0
C      1  0.5580340000000  0.5575220000000  0.5746370000000 1.0
C      1  0.5487690000000  0.4111840000000  0.5116210000000 1.0
C      1  0.5287710000000  0.4997870000000  0.4265030000000 1.0
C      1  0.5142930000000  0.5586490000000  0.5293900000000 1.0
C      1  0.5233810000000  0.4229720000000  0.5280210000000 1.0
C      1  0.4566620000000  0.4876530000000  0.5338870000000 1.0
C      1  0.4618620000000  0.4818410000000  0.4709360000000 1.0
C      1  0.4613840000000  0.5336680000000  0.4955960000000 1.0
C      1  0.4686180000000  0.5935340000000  0.4757250000000 1.0
C      1  0.4739000000000  0.4669560000000  0.6034070000000 1.0
C      1  0.4638470000000  0.4377580000000  0.4252740000000 1.0
C      1  0.5891260000000  0.4485980000000  0.5086030000000 1.0
C      1  0.5952020000000  0.5176740000000  0.4515830000000 1.0
C      1  0.5928940000000  0.5330150000000  0.5409380000000 1.0
C      1  0.4327100000000  0.5221840000000  0.4983800000000 1.0
C      1  0.4312430000000  0.4928420000000  0.5157930000000 1.0
C      1  0.4337400000000  0.4924280000000  0.4817950000000 1.0
C      1  0.4770520000000  0.5458920000000  0.5815330000000 1.0
C      1  0.4630720000000  0.4055370000000  0.4898480000000 1.0
C      1  0.4831680000000  0.5664590000000  0.4218360000000 1.0
C      1  0.4183650000000  0.4301030000000  0.4896750000000 1.0
C      1  0.4172580000000  0.5388640000000  0.4439290000000 1.0
C      1  0.4093860000000  0.5104110000000  0.5793440000000 1.0
C      1  0.5002810000000  0.4811620000000  0.6012290000000 1.0
C      1  0.4961480000000  0.4317920000000  0.4275620000000 1.0
C      1  0.4977780000000  0.5920070000000  0.4656730000000 1.0
C      1  0.5201300000000  0.5309500000000  0.5441660000000 1.0
C      1  0.5147540000000  0.4392120000000  0.5032930000000 1.0
C      1  0.5233560000000  0.5238020000000  0.4456250000000 1.0
C      1  0.4874580000000  0.5338950000000  0.3997040000000 1.0
C      1  0.4898870000000  0.5699290000000  0.5764530000000 1.0
C      1  0.4852350000000  0.3919730000000  0.5322920000000 1.0
C      1  0.4216150000000  0.4497850000000  0.5143200000000 1.0
C      1  0.3887730000000  0.5255860000000  0.4517460000000 1.0
C      1  0.3777110000000  0.5047670000000  0.5751710000000 1.0
C      1  0.4847870000000  0.4849610000000  0.4939770000000 1.0
C      1  0.4817730000000  0.5147120000000  0.4819410000000 1.0
C      1  0.4844620000000  0.4974310000000  0.5223370000000 1.0
C      1  0.4487370000000  0.4792960000000  0.5887670000000 1.0
C      1  0.4381070000000  0.4400640000000  0.4445060000000 1.0
C      1  0.4427850000000  0.5753140000000  0.4671300000000 1.0
C      1  0.4108970000000  0.4603710000000  0.4845160000000 1.0
C      1  0.4068990000000  0.5404390000000  0.4741100000000 1.0
C      1  0.4001600000000  0.4888860000000  0.5576660000000 1.0
C      1  0.5639310000000  0.4303010000000  0.4964140000000 1.0
C      1  0.5732480000000  0.5405700000000  0.4415420000000 1.0
C      1  0.5682790000000  0.5315280000000  0.5634170000000 1.0
C      1  0.5903220000000  0.5332930000000  0.4846020000000 1.0
C      1  0.5905650000000  0.4984510000000  0.5381020000000 1.0
C      1  0.5867320000000  0.4702920000000  0.4819190000000 1.0
END
