TITL C-2782234-8014-1322 0.00210836681951679 125000 -401.902766330642 0 0 68 (C2) n - 1
REM
REM in /home/nfs/bkarasulu/CARBON/AIRSS/Generating-Clusters/REBO/Higher-Symm/SD-CG/HFTN-CG
REM
REM
REM
REM
REM
REM ./C.cell (12c818d87b63d06a65506943cc24bca4)
REM
REM compiler GCC version 9.2.1 20190827 (Red Hat 9.2.1-1)
REM options -cpp -mtune=generic -march=x86-64 -g -O0 -fpre-include=/usr/include/finclude/math-vector-fortran.h
REM seed 436790193 -775305825 -377455293 1021787545 411740357 1875891141 -759353484 -55042335 -5106476 1004546257 -881632913 1495066530 -1566442745 2060909519 288647681 -1546272966 -1838809306 1171910965 1230235191 1528498033 -2040484199 -1671385651 501581590 1568480113 -1235077299 895384434 -751613556 183734096 1246119314 1579538968 419691400 -977192749 1607551703
REM
CELL 1.54180   50.00000   50.00000   50.00000   90.00000   90.00000   90.00000
LATT -1
SFAC C  
C      1  0.5043090000000  0.4275250000000  0.4543200000000 1.0
C      1  0.5043080000000  0.5724750000000  0.5456810000000 1.0
C      1  0.5489110000000  0.4517560000000  0.5149920000000 1.0
C      1  0.5489160000000  0.5482410000000  0.4850130000000 1.0
C      1  0.4521020000000  0.5333160000000  0.4262930000000 1.0
C      1  0.4520920000000  0.4666860000000  0.5737020000000 1.0
C      1  0.4786430000000  0.5094490000000  0.5769330000000 1.0
C      1  0.4786500000000  0.4905520000000  0.4230650000000 1.0
C      1  0.4294160000000  0.5105430000000  0.5743390000000 1.0
C      1  0.4294240000000  0.4894600000000  0.4256530000000 1.0
C      1  0.4968470000000  0.4900440000000  0.6183790000000 1.0
C      1  0.4968600000000  0.5099560000000  0.3816210000000 1.0
C      1  0.5048510000000  0.4648270000000  0.5757410000000 1.0
C      1  0.5048620000000  0.5351730000000  0.4242600000000 1.0
C      1  0.5296870000000  0.4950560000000  0.4167710000000 1.0
C      1  0.5296780000000  0.5049420000000  0.5832320000000 1.0
C      1  0.5503760000000  0.5193450000000  0.4821650000000 1.0
C      1  0.5503730000000  0.4806520000000  0.5178400000000 1.0
C      1  0.4932330000000  0.4401710000000  0.4323960000000 1.0
C      1  0.4932300000000  0.5598300000000  0.5676030000000 1.0
C      1  0.5009420000000  0.5072180000000  0.4094560000000 1.0
C      1  0.5009320000000  0.4927820000000  0.5905440000000 1.0
C      1  0.4976250000000  0.5306550000000  0.5151520000000 1.0
C      1  0.4976250000000  0.4693450000000  0.4848480000000 1.0
C      1  0.4831720000000  0.5683310000000  0.4910780000000 1.0
C      1  0.4831670000000  0.4316700000000  0.5089200000000 1.0
C      1  0.4524520000000  0.4964630000000  0.5658470000000 1.0
C      1  0.4524590000000  0.5035400000000  0.4341480000000 1.0
C      1  0.4878470000000  0.4606740000000  0.5359150000000 1.0
C      1  0.4878530000000  0.5393270000000  0.4640830000000 1.0
C      1  0.5049350000000  0.4356640000000  0.5310990000000 1.0
C      1  0.5049420000000  0.5643360000000  0.4689020000000 1.0
C      1  0.4577020000000  0.4458830000000  0.5150610000000 1.0
C      1  0.4577070000000  0.5541200000000  0.4849350000000 1.0
C      1  0.4805440000000  0.4510110000000  0.5737670000000 1.0
C      1  0.4805550000000  0.5489900000000  0.4262310000000 1.0
C      1  0.4962520000000  0.4396830000000  0.4836490000000 1.0
C      1  0.4962540000000  0.5603170000000  0.5163500000000 1.0
C      1  0.4729190000000  0.5100500000000  0.5169940000000 1.0
C      1  0.4729210000000  0.4899520000000  0.4830030000000 1.0
C      1  0.5480880000000  0.4441820000000  0.4864500000000 1.0
C      1  0.5480900000000  0.5558160000000  0.5135550000000 1.0
C      1  0.5227710000000  0.4923690000000  0.5203880000000 1.0
C      1  0.5227730000000  0.5076300000000  0.4796150000000 1.0
C      1  0.5562940000000  0.5019210000000  0.5397830000000 1.0
C      1  0.5562990000000  0.4980760000000  0.4602230000000 1.0
C      1  0.5319780000000  0.4436650000000  0.5380510000000 1.0
C      1  0.5319850000000  0.5563330000000  0.4619530000000 1.0
C      1  0.5440110000000  0.4896960000000  0.5636020000000 1.0
C      1  0.5440180000000  0.5103010000000  0.4364020000000 1.0
C      1  0.4941030000000  0.4829050000000  0.5159330000000 1.0
C      1  0.4941060000000  0.5170950000000  0.4840670000000 1.0
C      1  0.5302250000000  0.5365340000000  0.4394230000000 1.0
C      1  0.5302170000000  0.4634650000000  0.5605800000000 1.0
C      1  0.4557710000000  0.4750050000000  0.5083070000000 1.0
C      1  0.4557740000000  0.5249970000000  0.4916890000000 1.0
C      1  0.5266250000000  0.5728440000000  0.5221720000000 1.0
C      1  0.5266240000000  0.4271550000000  0.4778310000000 1.0
C      1  0.4586980000000  0.5522320000000  0.4523970000000 1.0
C      1  0.4586900000000  0.4477700000000  0.5475990000000 1.0
C      1  0.5226330000000  0.4808590000000  0.4732420000000 1.0
C      1  0.5226310000000  0.5191400000000  0.5267610000000 1.0
C      1  0.5495920000000  0.5315810000000  0.5305520000000 1.0
C      1  0.5495930000000  0.4684160000000  0.4694540000000 1.0
C      1  0.4533970000000  0.4927160000000  0.5346800000000 1.0
C      1  0.4534010000000  0.5072860000000  0.4653150000000 1.0
C      1  0.4830160000000  0.5360110000000  0.5750930000000 1.0
C      1  0.4830220000000  0.4639900000000  0.4249060000000 1.0
END
