TITL C-2782234-8014-560 0.00192199716954235 125000 -1088.6976959598 0 0 181 (C1) n - 1
REM
REM in /home/nfs/bkarasulu/CARBON/AIRSS/Generating-Clusters/REBO/Higher-Symm/SD-CG/HFTN-CG
REM
REM
REM
REM
REM
REM ./C.cell (12c818d87b63d06a65506943cc24bca4)
REM
REM compiler GCC version 9.2.1 20190827 (Red Hat 9.2.1-1)
REM options -cpp -mtune=generic -march=x86-64 -g -O0 -fpre-include=/usr/include/finclude/math-vector-fortran.h
REM seed -1560202350 -1746711895 2139367747 195666598 1482564828 -1592841492 -580234037 -1819215125 1495612038 376259692 68413552 -1043624542 -1985596758 -1691098014 -834451009 349376454 -1189218227 -1970596533 113630065 31166492 -1748494375 7426532 -1196818053 548120173 560221396 1228824848 1489722757 1432363890 -1215724784 -306980469 -632966163 105392526 -1969600372
REM
CELL 1.54180   50.00000   50.00000   50.00000   90.00000   90.00000   90.00000
LATT -1
SFAC C  
C      1  0.5616850000000  0.5622370000000  0.4462850000000 1.0
C      1  0.5797460000000  0.4593910000000  0.4453850000000 1.0
C      1  0.4863890000000  0.4106400000000  0.4423720000000 1.0
C      1  0.4103540000000  0.4847150000000  0.4438140000000 1.0
C      1  0.4581660000000  0.5790340000000  0.4447300000000 1.0
C      1  0.4791900000000  0.6070530000000  0.4767760000000 1.0
C      1  0.5965980000000  0.5525540000000  0.4765860000000 1.0
C      1  0.5832120000000  0.4229000000000  0.4752000000000 1.0
C      1  0.4522600000000  0.3964570000000  0.4725580000000 1.0
C      1  0.3899780000000  0.5134980000000  0.4760160000000 1.0
C      1  0.5118190000000  0.4728680000000  0.4850250000000 1.0
C      1  0.4809080000000  0.4773490000000  0.4885880000000 1.0
C      1  0.4756450000000  0.5103990000000  0.4850950000000 1.0
C      1  0.5057720000000  0.5193370000000  0.4739060000000 1.0
C      1  0.5238710000000  0.4989780000000  0.4756220000000 1.0
C      1  0.4601330000000  0.5666900000000  0.5708960000000 1.0
C      1  0.5501380000000  0.5588690000000  0.5723040000000 1.0
C      1  0.5710650000000  0.4701450000000  0.5673700000000 1.0
C      1  0.4938120000000  0.4229510000000  0.5687870000000 1.0
C      1  0.4246040000000  0.4834600000000  0.5694700000000 1.0
C      1  0.5270540000000  0.4947310000000  0.5438520000000 1.0
C      1  0.5044590000000  0.4727350000000  0.5372310000000 1.0
C      1  0.4762200000000  0.4873080000000  0.5419320000000 1.0
C      1  0.4812180000000  0.5192360000000  0.5457250000000 1.0
C      1  0.5136730000000  0.5239650000000  0.5519940000000 1.0
C      1  0.4999810000000  0.5256360000000  0.6219160000000 1.0
C      1  0.5235920000000  0.5093390000000  0.6229310000000 1.0
C      1  0.5155330000000  0.4817010000000  0.6220320000000 1.0
C      1  0.4868880000000  0.4809350000000  0.6210390000000 1.0
C      1  0.4772990000000  0.5080470000000  0.6209560000000 1.0
C      1  0.4811310000000  0.5516040000000  0.4621440000000 1.0
C      1  0.5442220000000  0.5316780000000  0.4648760000000 1.0
C      1  0.5469690000000  0.4646620000000  0.4673110000000 1.0
C      1  0.4828990000000  0.4452150000000  0.4616230000000 1.0
C      1  0.4430730000000  0.4978160000000  0.4621720000000 1.0
C      1  0.4314530000000  0.4842240000000  0.4235300000000 1.0
C      1  0.4635520000000  0.5588990000000  0.4245540000000 1.0
C      1  0.5442700000000  0.5507140000000  0.4262310000000 1.0
C      1  0.5614120000000  0.4726620000000  0.4275250000000 1.0
C      1  0.4930970000000  0.4325820000000  0.4250980000000 1.0
C      1  0.5155150000000  0.5233920000000  0.5841580000000 1.0
C      1  0.5270190000000  0.4959270000000  0.5771050000000 1.0
C      1  0.5027530000000  0.4766670000000  0.5698940000000 1.0
C      1  0.4760140000000  0.4929600000000  0.5751530000000 1.0
C      1  0.4848410000000  0.5229200000000  0.5794510000000 1.0
C      1  0.4826140000000  0.4108380000000  0.5390110000000 1.0
C      1  0.4112000000000  0.4881480000000  0.5388390000000 1.0
C      1  0.4606290000000  0.5802890000000  0.5396420000000 1.0
C      1  0.5642950000000  0.5633620000000  0.5415830000000 1.0
C      1  0.5847730000000  0.4600810000000  0.5410730000000 1.0
C      1  0.5213840000000  0.5906830000000  0.5375340000000 1.0
C      1  0.5922200000000  0.5089990000000  0.5377200000000 1.0
C      1  0.5381950000000  0.4156250000000  0.5329400000000 1.0
C      1  0.4271430000000  0.4409330000000  0.5372410000000 1.0
C      1  0.4210930000000  0.5489690000000  0.5368200000000 1.0
C      1  0.4544270000000  0.5077920000000  0.5119600000000 1.0
C      1  0.4942270000000  0.5449070000000  0.5142730000000 1.0
C      1  0.5429190000000  0.5217190000000  0.5153690000000 1.0
C      1  0.5332020000000  0.4636610000000  0.5094090000000 1.0
C      1  0.4761650000000  0.4552210000000  0.5123100000000 1.0
C      1  0.4188920000000  0.4167370000000  0.4882300000000 1.0
C      1  0.3965750000000  0.5536120000000  0.4860290000000 1.0
C      1  0.5177880000000  0.6133990000000  0.4853520000000 1.0
C      1  0.6146420000000  0.5181220000000  0.4858770000000 1.0
C      1  0.5487320000000  0.3906010000000  0.4848270000000 1.0
C      1  0.5729090000000  0.5025870000000  0.5610890000000 1.0
C      1  0.5247810000000  0.4307030000000  0.5578170000000 1.0
C      1  0.4414740000000  0.4562440000000  0.5604570000000 1.0
C      1  0.4399900000000  0.5424490000000  0.5603650000000 1.0
C      1  0.5209890000000  0.5716010000000  0.5620320000000 1.0
C      1  0.4283360000000  0.5386830000000  0.4538010000000 1.0
C      1  0.5142680000000  0.5767600000000  0.4549950000000 1.0
C      1  0.5785120000000  0.5088190000000  0.4554700000000 1.0
C      1  0.5357620000000  0.4241750000000  0.4530300000000 1.0
C      1  0.4402000000000  0.4434680000000  0.4536820000000 1.0
C      1  0.4117220000000  0.4611740000000  0.5222420000000 1.0
C      1  0.4356010000000  0.5710610000000  0.5223500000000 1.0
C      1  0.5474000000000  0.5838700000000  0.5234870000000 1.0
C      1  0.5950910000000  0.4816150000000  0.5232990000000 1.0
C      1  0.5090180000000  0.4027550000000  0.5206520000000 1.0
C      1  0.4498190000000  0.4165330000000  0.5314060000000 1.0
C      1  0.4056800000000  0.5199240000000  0.5277670000000 1.0
C      1  0.4889220000000  0.5957010000000  0.5282680000000 1.0
C      1  0.5879290000000  0.5418370000000  0.5294230000000 1.0
C      1  0.5657980000000  0.4352050000000  0.5275370000000 1.0
C      1  0.4675370000000  0.5444960000000  0.5955730000000 1.0
C      1  0.5323330000000  0.5459790000000  0.5982720000000 1.0
C      1  0.5536920000000  0.4856580000000  0.5916490000000 1.0
C      1  0.5039700000000  0.4490510000000  0.5866290000000 1.0
C      1  0.4502490000000  0.4820610000000  0.5908120000000 1.0
C      1  0.4765140000000  0.4443800000000  0.5403050000000 1.0
C      1  0.4406920000000  0.5056140000000  0.5406280000000 1.0
C      1  0.4868440000000  0.5585740000000  0.5425880000000 1.0
C      1  0.5520700000000  0.5316460000000  0.5434290000000 1.0
C      1  0.5451210000000  0.4594880000000  0.5389790000000 1.0
C      1  0.4077840000000  0.4672990000000  0.4925180000000 1.0
C      1  0.4400950000000  0.5765270000000  0.4928240000000 1.0
C      1  0.5549620000000  0.5800460000000  0.4943650000000 1.0
C      1  0.5942330000000  0.4720380000000  0.4944000000000 1.0
C      1  0.5012790000000  0.4000450000000  0.4917220000000 1.0
C      1  0.5815390000000  0.5427240000000  0.4558010000000 1.0
C      1  0.5685020000000  0.4335630000000  0.4542600000000 1.0
C      1  0.4575380000000  0.4142470000000  0.4506500000000 1.0
C      1  0.4066190000000  0.5124880000000  0.4540230000000 1.0
C      1  0.4833060000000  0.5908600000000  0.4548950000000 1.0
C      1  0.5295310000000  0.4639690000000  0.6009990000000 1.0
C      1  0.4751100000000  0.4615650000000  0.5998250000000 1.0
C      1  0.4530140000000  0.5143370000000  0.6018240000000 1.0
C      1  0.4994440000000  0.5531090000000  0.6049970000000 1.0
C      1  0.5485430000000  0.5164210000000  0.6053070000000 1.0
C      1  0.4747980000000  0.5050490000000  0.4392720000000 1.0
C      1  0.4953440000000  0.5228070000000  0.4355530000000 1.0
C      1  0.5189660000000  0.5088170000000  0.4372090000000 1.0
C      1  0.5130010000000  0.4820390000000  0.4411110000000 1.0
C      1  0.4854310000000  0.4797180000000  0.4422240000000 1.0
C      1  0.5155490000000  0.4363260000000  0.5005750000000 1.0
C      1  0.4461080000000  0.4627310000000  0.5021890000000 1.0
C      1  0.4499290000000  0.5392820000000  0.5030570000000 1.0
C      1  0.5220420000000  0.5599790000000  0.5042810000000 1.0
C      1  0.5644440000000  0.4986240000000  0.5042810000000 1.0
C      1  0.5414630000000  0.4150450000000  0.5008690000000 1.0
C      1  0.4426040000000  0.4287580000000  0.5029650000000 1.0
C      1  0.4162110000000  0.5356080000000  0.5004010000000 1.0
C      1  0.5073320000000  0.5897180000000  0.5010280000000 1.0
C      1  0.5891860000000  0.5219040000000  0.5018770000000 1.0
C      1  0.4811900000000  0.4853400000000  0.3757850000000 1.0
C      1  0.4805450000000  0.5146930000000  0.3754190000000 1.0
C      1  0.5082750000000  0.5243600000000  0.3755640000000 1.0
C      1  0.5260120000000  0.5010220000000  0.3765050000000 1.0
C      1  0.5092790000000  0.4769670000000  0.3768330000000 1.0
C      1  0.4940260000000  0.5657790000000  0.5751390000000 1.0
C      1  0.5583060000000  0.5258020000000  0.5757760000000 1.0
C      1  0.5416740000000  0.4533420000000  0.5718140000000 1.0
C      1  0.4671460000000  0.4443370000000  0.5727100000000 1.0
C      1  0.4370370000000  0.5150320000000  0.5732010000000 1.0
C      1  0.4600380000000  0.5403880000000  0.5342570000000 1.0
C      1  0.5264260000000  0.5510710000000  0.5368550000000 1.0
C      1  0.5568370000000  0.4895170000000  0.5343120000000 1.0
C      1  0.5083530000000  0.4421380000000  0.5318200000000 1.0
C      1  0.4483640000000  0.4745180000000  0.5332430000000 1.0
C      1  0.5551460000000  0.4946660000000  0.4746580000000 1.0
C      1  0.5132270000000  0.4444360000000  0.4680560000000 1.0
C      1  0.4531610000000  0.4700170000000  0.4703140000000 1.0
C      1  0.4566190000000  0.5342600000000  0.4706720000000 1.0
C      1  0.5190500000000  0.5493090000000  0.4732340000000 1.0
C      1  0.5085690000000  0.4053290000000  0.4625290000000 1.0
C      1  0.4142980000000  0.4633470000000  0.4643910000000 1.0
C      1  0.4387350000000  0.5694270000000  0.4649290000000 1.0
C      1  0.5464720000000  0.5775670000000  0.4667830000000 1.0
C      1  0.5904740000000  0.4784240000000  0.4660400000000 1.0
C      1  0.5181450000000  0.4534610000000  0.3897320000000 1.0
C      1  0.4597060000000  0.4703260000000  0.3863940000000 1.0
C      1  0.4589420000000  0.5290940000000  0.3866800000000 1.0
C      1  0.5159630000000  0.5491340000000  0.3868830000000 1.0
C      1  0.5513980000000  0.5006870000000  0.3890330000000 1.0
C      1  0.4015330000000  0.4985680000000  0.5014790000000 1.0
C      1  0.4676220000000  0.5916160000000  0.5019460000000 1.0
C      1  0.5799140000000  0.5606570000000  0.5022330000000 1.0
C      1  0.5840710000000  0.4427490000000  0.5004340000000 1.0
C      1  0.4716660000000  0.4031120000000  0.4932390000000 1.0
C      1  0.5180050000000  0.4431100000000  0.4161200000000 1.0
C      1  0.4497080000000  0.4650680000000  0.4124400000000 1.0
C      1  0.4503050000000  0.5361640000000  0.4128570000000 1.0
C      1  0.5192870000000  0.5574100000000  0.4138740000000 1.0
C      1  0.5597280000000  0.4987850000000  0.4161220000000 1.0
C      1  0.5334420000000  0.4604340000000  0.4365730000000 1.0
C      1  0.4711210000000  0.4549670000000  0.4312860000000 1.0
C      1  0.4462560000000  0.5115630000000  0.4310940000000 1.0
C      1  0.4941740000000  0.5525870000000  0.4306810000000 1.0
C      1  0.5467590000000  0.5198910000000  0.4339070000000 1.0
C      1  0.5467990000000  0.3941600000000  0.4597640000000 1.0
C      1  0.4166290000000  0.4234510000000  0.4639830000000 1.0
C      1  0.4014670000000  0.5555580000000  0.4611840000000 1.0
C      1  0.5213350000000  0.6080530000000  0.4607810000000 1.0
C      1  0.6104630000000  0.5126910000000  0.4614540000000 1.0
C      1  0.4310330000000  0.5081510000000  0.4872470000000 1.0
C      1  0.4860300000000  0.5659030000000  0.4887650000000 1.0
C      1  0.5601770000000  0.5354730000000  0.4902880000000 1.0
C      1  0.5531670000000  0.4441040000000  0.4906570000000 1.0
C      1  0.4700250000000  0.4352040000000  0.4863240000000 1.0
C      1  0.5145590000000  0.5216650000000  0.5125190000000 1.0
END
