TITL C-2782236-320-734 0.015080346361361 125000 -448.500262877327 0 0 79 (C1) n - 1
REM
REM in /home/nfs/bkarasulu/CARBON/AIRSS/Generating-Clusters/REBO/Higher-Symm/SD-CG/HFTN-CG
REM
REM
REM
REM
REM
REM ./C.cell (12c818d87b63d06a65506943cc24bca4)
REM
REM compiler GCC version 9.2.1 20190827 (Red Hat 9.2.1-1)
REM options -cpp -mtune=generic -march=x86-64 -g -O0 -fpre-include=/usr/include/finclude/math-vector-fortran.h
REM seed -1647137525 4333775 -154924131 -340661299 715430825 -1193004333 -82023675 1841877519 -2033020480 102009909 -1184067084 -1977602874 -148419346 -789839600 -1395301689 15423807 1742843955 128129587 1316487598 -1185330620 863549282 -517838824 -1558467628 -1835864129 1880342505 1025334512 955532609 -186467243 469811252 477504535 757648151 1885365600 417228020
REM
CELL 1.54180   50.00000   50.00000   50.00000   90.00000   90.00000   90.00000
LATT -1
SFAC C  
C      1  0.4948670000000  0.4880860000000  0.5683070000000 1.0
C      1  0.4934430000000  0.5215590000000  0.5743420000000 1.0
C      1  0.4401980000000  0.4851040000000  0.5607340000000 1.0
C      1  0.4408730000000  0.5162350000000  0.5579210000000 1.0
C      1  0.4227280000000  0.4564670000000  0.4659370000000 1.0
C      1  0.4132330000000  0.5477440000000  0.4686710000000 1.0
C      1  0.5591450000000  0.5189480000000  0.5532910000000 1.0
C      1  0.5608830000000  0.4850680000000  0.5522880000000 1.0
C      1  0.5363220000000  0.5635080000000  0.4872540000000 1.0
C      1  0.5358760000000  0.4353000000000  0.4870600000000 1.0
C      1  0.5213310000000  0.4870090000000  0.5467880000000 1.0
C      1  0.5193130000000  0.5168670000000  0.5555870000000 1.0
C      1  0.5826440000000  0.4682170000000  0.5039580000000 1.0
C      1  0.5800030000000  0.5273840000000  0.5048390000000 1.0
C      1  0.5213850000000  0.4831160000000  0.4840720000000 1.0
C      1  0.5237220000000  0.5147780000000  0.4889630000000 1.0
C      1  0.4861230000000  0.4279120000000  0.5468210000000 1.0
C      1  0.4862800000000  0.5763290000000  0.5439780000000 1.0
C      1  0.5377050000000  0.5484780000000  0.4254930000000 1.0
C      1  0.5332100000000  0.4538710000000  0.4253340000000 1.0
C      1  0.4567090000000  0.5621400000000  0.5338630000000 1.0
C      1  0.4564920000000  0.4402460000000  0.5342040000000 1.0
C      1  0.4948390000000  0.4591880000000  0.5570570000000 1.0
C      1  0.4954670000000  0.5483070000000  0.5610800000000 1.0
C      1  0.5396110000000  0.5418230000000  0.5563780000000 1.0
C      1  0.5402450000000  0.4626080000000  0.5547390000000 1.0
C      1  0.5780160000000  0.5129730000000  0.5296250000000 1.0
C      1  0.5815740000000  0.4823850000000  0.5287390000000 1.0
C      1  0.5043420000000  0.5650570000000  0.4845290000000 1.0
C      1  0.5052910000000  0.4271990000000  0.4837790000000 1.0
C      1  0.4958240000000  0.5682270000000  0.4554980000000 1.0
C      1  0.4943890000000  0.4329990000000  0.4547540000000 1.0
C      1  0.5394930000000  0.4686340000000  0.4654450000000 1.0
C      1  0.5376620000000  0.5297700000000  0.4659780000000 1.0
C      1  0.5447990000000  0.5134780000000  0.4434670000000 1.0
C      1  0.5500150000000  0.4845050000000  0.4445810000000 1.0
C      1  0.5188600000000  0.5651030000000  0.5425930000000 1.0
C      1  0.5186510000000  0.4390420000000  0.5430130000000 1.0
C      1  0.4406870000000  0.5320730000000  0.5323650000000 1.0
C      1  0.4361570000000  0.4674190000000  0.5373220000000 1.0
C      1  0.4867440000000  0.5462650000000  0.5281120000000 1.0
C      1  0.4863020000000  0.4530530000000  0.5244760000000 1.0
C      1  0.4598620000000  0.5186490000000  0.5080050000000 1.0
C      1  0.4542270000000  0.4713040000000  0.5093420000000 1.0
C      1  0.4961590000000  0.5237790000000  0.4313690000000 1.0
C      1  0.4979890000000  0.4749130000000  0.4308260000000 1.0
C      1  0.4552050000000  0.5308930000000  0.4552900000000 1.0
C      1  0.4513140000000  0.4720330000000  0.4552910000000 1.0
C      1  0.4926920000000  0.4761890000000  0.4806320000000 1.0
C      1  0.4918890000000  0.5159940000000  0.4843160000000 1.0
C      1  0.5270210000000  0.5181410000000  0.5224430000000 1.0
C      1  0.5275310000000  0.4847810000000  0.5151230000000 1.0
C      1  0.4235710000000  0.4830720000000  0.5097420000000 1.0
C      1  0.4273230000000  0.5147300000000  0.5060100000000 1.0
C      1  0.4640180000000  0.4794620000000  0.5797330000000 1.0
C      1  0.4641300000000  0.5115530000000  0.5779190000000 1.0
C      1  0.4572950000000  0.5517780000000  0.5018330000000 1.0
C      1  0.4573250000000  0.4405730000000  0.4999790000000 1.0
C      1  0.4289220000000  0.5204170000000  0.4728780000000 1.0
C      1  0.4294130000000  0.4879160000000  0.4764650000000 1.0
C      1  0.4451300000000  0.5568860000000  0.4750560000000 1.0
C      1  0.4455310000000  0.4365940000000  0.4724070000000 1.0
C      1  0.4807220000000  0.5144870000000  0.4538640000000 1.0
C      1  0.4807820000000  0.4830820000000  0.4529370000000 1.0
C      1  0.5246410000000  0.5193390000000  0.4184400000000 1.0
C      1  0.5272860000000  0.4866920000000  0.4196170000000 1.0
C      1  0.5335230000000  0.4523090000000  0.5167000000000 1.0
C      1  0.5326610000000  0.5494840000000  0.5180230000000 1.0
C      1  0.4684080000000  0.5620440000000  0.4511680000000 1.0
C      1  0.4683060000000  0.4420910000000  0.4524200000000 1.0
C      1  0.5617540000000  0.5480440000000  0.5015290000000 1.0
C      1  0.5626860000000  0.4490440000000  0.5007250000000 1.0
C      1  0.5275050000000  0.4406760000000  0.4543060000000 1.0
C      1  0.5288810000000  0.5598050000000  0.4542400000000 1.0
C      1  0.4891340000000  0.5436900000000  0.4978670000000 1.0
C      1  0.4879710000000  0.4496230000000  0.4946610000000 1.0
C      1  0.5931020000000  0.4844100000000  0.4827740000000 1.0
C      1  0.5918720000000  0.5121200000000  0.4837660000000 1.0
C      1  0.4741220000000  0.4924360000000  0.5010950000000 1.0
END
