TITL C-2782232-2968-1361 -7.40378748814138e-05 125000 -68.9709963664641 0 0 14 (C1) n - 1
REM
REM in /home/nfs/bkarasulu/CARBON/AIRSS/Generating-Clusters/REBO/Higher-Symm/SD-CG/HFTN-CG
REM
REM
REM
REM
REM
REM ./C.cell (12c818d87b63d06a65506943cc24bca4)
REM
REM compiler GCC version 9.2.1 20190827 (Red Hat 9.2.1-1)
REM options -cpp -mtune=generic -march=x86-64 -g -O0 -fpre-include=/usr/include/finclude/math-vector-fortran.h
REM seed 199141218 -955019901 -324804643 1403238386 1437457446 2035395039 -1525765484 1849483032 314204386 615796403 464048277 1435626365 -1770501745 -531499691 1721038244 -115974880 -1740736231 -633428618 -1213712338 -959856573 265555201 -2069718168 -2050059925 -1940264828 -1652208567 434428403 690848003 446911878 1475315702 -208200445 693330448 -1762643796 1523673902
REM
CELL 1.54180   50.00000   50.00000   50.00000   90.00000   90.00000   90.00000
LATT -1
SFAC C  
C      1  0.4970130000000  0.4388740000000  0.4636660000000 1.0
C      1  0.4976530000000  0.4608430000000  0.4901350000000 1.0
C      1  0.5154930000000  0.4341510000000  0.5024990000000 1.0
C      1  0.5347300000000  0.4230420000000  0.4837370000000 1.0
C      1  0.5225810000000  0.4261480000000  0.4582060000000 1.0
C      1  0.4712350000000  0.5635550000000  0.5205510000000 1.0
C      1  0.4841200000000  0.5741400000000  0.5441400000000 1.0
C      1  0.5113470000000  0.5778620000000  0.5371650000000 1.0
C      1  0.5134330000000  0.5689570000000  0.5096250000000 1.0
C      1  0.4936480000000  0.5419710000000  0.5019100000000 1.0
C      1  0.4962290000000  0.4896850000000  0.4943210000000 1.0
C      1  0.4950520000000  0.5135430000000  0.4977840000000 1.0
C      1  0.4848620000000  0.5731940000000  0.4916960000000 1.0
C      1  0.4831240000000  0.4300500000000  0.4933030000000 1.0
END
