TITL C-2782229-3092-1075 -0.00318038961758235 125000 -997.675436910183 0 0 173 (C1) n - 1
REM
REM in /home/nfs/bkarasulu/CARBON/AIRSS/Generating-Clusters/REBO/Higher-Symm/SD-CG/HFTN-CG
REM
REM
REM
REM
REM
REM ./C.cell (12c818d87b63d06a65506943cc24bca4)
REM
REM compiler GCC version 9.2.1 20190827 (Red Hat 9.2.1-1)
REM options -cpp -mtune=generic -march=x86-64 -g -O0 -fpre-include=/usr/include/finclude/math-vector-fortran.h
REM seed -1401623271 1739453708 -2064249033 814773257 1724450333 -1301373309 991699913 -627020736 -2071783791 38438770 625183003 861728719 -1910449309 1588078508 -1174167013 -25323611 -1197760693 -1265157558 -877554572 1004479061 -890678842 10726707 571642426 -1607908818 1484147991 -1092742136 1330853477 -1394014241 -820686259 30811827 227553665 -2017378992 1338035106
REM
CELL 1.54180   50.00000   50.00000   50.00000   90.00000   90.00000   90.00000
LATT -1
SFAC C  
C      1  0.5895980000000  0.4128240000000  0.5306520000000 1.0
C      1  0.4112310000000  0.5810140000000  0.4712840000000 1.0
C      1  0.4906410000000  0.5390470000000  0.5751290000000 1.0
C      1  0.5097930000000  0.4540020000000  0.4208940000000 1.0
C      1  0.4749180000000  0.5548780000000  0.5145380000000 1.0
C      1  0.5369000000000  0.4464670000000  0.4926120000000 1.0
C      1  0.5182780000000  0.5937830000000  0.4756650000000 1.0
C      1  0.4881950000000  0.4107280000000  0.5305320000000 1.0
C      1  0.4937920000000  0.5956780000000  0.4539960000000 1.0
C      1  0.5068390000000  0.3965840000000  0.5529420000000 1.0
C      1  0.4691510000000  0.4424020000000  0.5837300000000 1.0
C      1  0.5283410000000  0.5590760000000  0.4170590000000 1.0
C      1  0.4374390000000  0.5168970000000  0.4760360000000 1.0
C      1  0.5616550000000  0.4841450000000  0.5250890000000 1.0
C      1  0.4112080000000  0.4987220000000  0.5305370000000 1.0
C      1  0.5869140000000  0.5044360000000  0.4660310000000 1.0
C      1  0.4822350000000  0.5304780000000  0.4718660000000 1.0
C      1  0.5126870000000  0.4796570000000  0.5149880000000 1.0
C      1  0.4400710000000  0.4838840000000  0.4761430000000 1.0
C      1  0.5570080000000  0.5164280000000  0.5201160000000 1.0
C      1  0.4450510000000  0.4359670000000  0.5338560000000 1.0
C      1  0.5505800000000  0.5612710000000  0.4665390000000 1.0
C      1  0.4366210000000  0.4082340000000  0.5173530000000 1.0
C      1  0.5643470000000  0.5821030000000  0.4873030000000 1.0
C      1  0.4541190000000  0.5690160000000  0.4936760000000 1.0
C      1  0.5481520000000  0.4236950000000  0.5113270000000 1.0
C      1  0.5392630000000  0.4248510000000  0.4550500000000 1.0
C      1  0.4605440000000  0.5775320000000  0.5441390000000 1.0
C      1  0.5726260000000  0.4775390000000  0.4255630000000 1.0
C      1  0.4268390000000  0.5240160000000  0.5726400000000 1.0
C      1  0.5684310000000  0.5461770000000  0.4473570000000 1.0
C      1  0.4303920000000  0.4556210000000  0.5514470000000 1.0
C      1  0.4255980000000  0.5635720000000  0.4483560000000 1.0
C      1  0.5770370000000  0.4363570000000  0.5485550000000 1.0
C      1  0.4047320000000  0.4778130000000  0.5042420000000 1.0
C      1  0.5930380000000  0.5177270000000  0.4967690000000 1.0
C      1  0.5430720000000  0.5170240000000  0.4895130000000 1.0
C      1  0.4514220000000  0.4912350000000  0.5059780000000 1.0
C      1  0.5802760000000  0.4627460000000  0.4972710000000 1.0
C      1  0.4173140000000  0.5410670000000  0.5007450000000 1.0
C      1  0.4711430000000  0.4758530000000  0.4158380000000 1.0
C      1  0.5317200000000  0.5122350000000  0.5709990000000 1.0
C      1  0.5043220000000  0.5780620000000  0.4280520000000 1.0
C      1  0.4895040000000  0.4190360000000  0.5696550000000 1.0
C      1  0.5621210000000  0.5344420000000  0.5842700000000 1.0
C      1  0.4339970000000  0.4633630000000  0.4124510000000 1.0
C      1  0.4146960000000  0.5282890000000  0.5477140000000 1.0
C      1  0.5831820000000  0.4748020000000  0.4512490000000 1.0
C      1  0.4246910000000  0.5845560000000  0.4926220000000 1.0
C      1  0.5748460000000  0.4085300000000  0.5074870000000 1.0
C      1  0.4543420000000  0.4919630000000  0.5955330000000 1.0
C      1  0.5422490000000  0.5063240000000  0.4003270000000 1.0
C      1  0.4550090000000  0.4622220000000  0.5662430000000 1.0
C      1  0.5315830000000  0.5331550000000  0.4389270000000 1.0
C      1  0.5488530000000  0.4602030000000  0.4167650000000 1.0
C      1  0.4519010000000  0.5389540000000  0.5843620000000 1.0
C      1  0.5917820000000  0.4948990000000  0.5179840000000 1.0
C      1  0.4079370000000  0.5045700000000  0.4876700000000 1.0
C      1  0.5825650000000  0.5627370000000  0.5432640000000 1.0
C      1  0.4345630000000  0.4452570000000  0.4675130000000 1.0
C      1  0.4122040000000  0.4683190000000  0.4720560000000 1.0
C      1  0.5842400000000  0.5330780000000  0.5264910000000 1.0
C      1  0.4967440000000  0.4021400000000  0.4421070000000 1.0
C      1  0.5071670000000  0.5917340000000  0.5479980000000 1.0
C      1  0.5681560000000  0.4274360000000  0.4639720000000 1.0
C      1  0.4330000000000  0.5759270000000  0.5347870000000 1.0
C      1  0.4217040000000  0.5328670000000  0.4429870000000 1.0
C      1  0.5882570000000  0.4630350000000  0.5594770000000 1.0
C      1  0.4986490000000  0.5135550000000  0.4281590000000 1.0
C      1  0.4846030000000  0.4835640000000  0.5824760000000 1.0
C      1  0.4184490000000  0.4812710000000  0.5560420000000 1.0
C      1  0.5763680000000  0.5212680000000  0.4413160000000 1.0
C      1  0.4081140000000  0.4261730000000  0.5221640000000 1.0
C      1  0.5939140000000  0.5712570000000  0.4923070000000 1.0
C      1  0.4496210000000  0.5568400000000  0.4143680000000 1.0
C      1  0.5373770000000  0.4428620000000  0.5815270000000 1.0
C      1  0.4758670000000  0.5335890000000  0.4328060000000 1.0
C      1  0.5002400000000  0.4659700000000  0.5674840000000 1.0
C      1  0.5050280000000  0.5440200000000  0.5017590000000 1.0
C      1  0.4916160000000  0.4624620000000  0.4982790000000 1.0
C      1  0.3885960000000  0.5323700000000  0.4879460000000 1.0
C      1  0.6098860000000  0.4674830000000  0.5100210000000 1.0
C      1  0.4849170000000  0.5024450000000  0.4572530000000 1.0
C      1  0.5126330000000  0.5005200000000  0.5352270000000 1.0
C      1  0.4622530000000  0.5286790000000  0.4974120000000 1.0
C      1  0.5397540000000  0.4749280000000  0.5021730000000 1.0
C      1  0.5530920000000  0.5054870000000  0.5987430000000 1.0
C      1  0.4442790000000  0.4923990000000  0.3987810000000 1.0
C      1  0.5226490000000  0.5685170000000  0.4546890000000 1.0
C      1  0.4743680000000  0.4353300000000  0.5439470000000 1.0
C      1  0.4521170000000  0.4268240000000  0.4480990000000 1.0
C      1  0.5593620000000  0.5851820000000  0.5536960000000 1.0
C      1  0.5770800000000  0.5267830000000  0.5577330000000 1.0
C      1  0.4217930000000  0.4711680000000  0.4403550000000 1.0
C      1  0.4504350000000  0.4889840000000  0.4381460000000 1.0
C      1  0.5595450000000  0.5032420000000  0.5595680000000 1.0
C      1  0.4015160000000  0.5215000000000  0.4590730000000 1.0
C      1  0.6063330000000  0.4753430000000  0.5415110000000 1.0
C      1  0.5788140000000  0.4533310000000  0.4680090000000 1.0
C      1  0.4199410000000  0.5502400000000  0.5307780000000 1.0
C      1  0.5433210000000  0.6041920000000  0.4874930000000 1.0
C      1  0.4648160000000  0.3953410000000  0.5152610000000 1.0
C      1  0.4728920000000  0.4814950000000  0.4812210000000 1.0
C      1  0.5250390000000  0.5265640000000  0.5232130000000 1.0
C      1  0.5357490000000  0.5924000000000  0.5326670000000 1.0
C      1  0.4744870000000  0.4091320000000  0.4643880000000 1.0
C      1  0.5101010000000  0.4821680000000  0.4667740000000 1.0
C      1  0.4878830000000  0.5238450000000  0.5371470000000 1.0
C      1  0.5296960000000  0.5792310000000  0.5696230000000 1.0
C      1  0.4759050000000  0.4196020000000  0.4259590000000 1.0
C      1  0.4355520000000  0.5496910000000  0.4764650000000 1.0
C      1  0.5636230000000  0.4501570000000  0.5221270000000 1.0
C      1  0.5052950000000  0.4366470000000  0.5160320000000 1.0
C      1  0.4957650000000  0.5690150000000  0.4836130000000 1.0
C      1  0.4756590000000  0.5185670000000  0.5981810000000 1.0
C      1  0.5242190000000  0.4773520000000  0.4004930000000 1.0
C      1  0.5302260000000  0.5014260000000  0.4317830000000 1.0
C      1  0.4653310000000  0.4908090000000  0.5570950000000 1.0
C      1  0.5215470000000  0.4946650000000  0.5983140000000 1.0
C      1  0.4772610000000  0.5016900000000  0.3957930000000 1.0
C      1  0.5465470000000  0.4716150000000  0.5923030000000 1.0
C      1  0.4529760000000  0.5254260000000  0.4012540000000 1.0
C      1  0.4882730000000  0.4616720000000  0.5421240000000 1.0
C      1  0.5151380000000  0.5367940000000  0.4653240000000 1.0
C      1  0.4825880000000  0.5945340000000  0.5018250000000 1.0
C      1  0.5135540000000  0.4074400000000  0.5000720000000 1.0
C      1  0.5256190000000  0.4473900000000  0.5342210000000 1.0
C      1  0.4802230000000  0.5582500000000  0.4561790000000 1.0
C      1  0.5439840000000  0.5491140000000  0.4962250000000 1.0
C      1  0.4646590000000  0.4340930000000  0.5055240000000 1.0
C      1  0.4993740000000  0.5064340000000  0.6114470000000 1.0
C      1  0.5042890000000  0.4969890000000  0.3881860000000 1.0
C      1  0.4839170000000  0.3959510000000  0.4920780000000 1.0
C      1  0.5407100000000  0.6148010000000  0.5129500000000 1.0
C      1  0.4296490000000  0.4964850000000  0.5777400000000 1.0
C      1  0.5681270000000  0.5048360000000  0.4195300000000 1.0
C      1  0.5127320000000  0.5086050000000  0.4851000000000 1.0
C      1  0.4749500000000  0.4851920000000  0.5269130000000 1.0
C      1  0.5456820000000  0.5582590000000  0.5857630000000 1.0
C      1  0.4620610000000  0.4441790000000  0.4135740000000 1.0
C      1  0.4661060000000  0.5207160000000  0.5594030000000 1.0
C      1  0.5287230000000  0.4731250000000  0.4417990000000 1.0
C      1  0.4671270000000  0.5605930000000  0.5647760000000 1.0
C      1  0.5352520000000  0.4320710000000  0.4260230000000 1.0
C      1  0.4348460000000  0.5163370000000  0.5157360000000 1.0
C      1  0.5650160000000  0.4912800000000  0.4860920000000 1.0
C      1  0.4617670000000  0.4606540000000  0.6055490000000 1.0
C      1  0.5194030000000  0.5293720000000  0.4060560000000 1.0
C      1  0.5176510000000  0.4035810000000  0.4664770000000 1.0
C      1  0.4830770000000  0.5911870000000  0.5314110000000 1.0
C      1  0.5286660000000  0.4080160000000  0.5310590000000 1.0
C      1  0.4659630000000  0.5920800000000  0.4714400000000 1.0
C      1  0.5490260000000  0.5531840000000  0.5463140000000 1.0
C      1  0.4610460000000  0.4591060000000  0.4505970000000 1.0
C      1  0.4196570000000  0.5991260000000  0.5287690000000 1.0
C      1  0.5797240000000  0.4067740000000  0.4797690000000 1.0
C      1  0.5235740000000  0.5659540000000  0.5186370000000 1.0
C      1  0.4854490000000  0.4342990000000  0.4815920000000 1.0
C      1  0.4813930000000  0.5627140000000  0.4165820000000 1.0
C      1  0.5089260000000  0.4420730000000  0.5804790000000 1.0
C      1  0.5212950000000  0.5394150000000  0.5604170000000 1.0
C      1  0.4928260000000  0.4579320000000  0.4501420000000 1.0
C      1  0.6026500000000  0.5482390000000  0.4944850000000 1.0
C      1  0.4006200000000  0.4490870000000  0.5166610000000 1.0
C      1  0.4550200000000  0.5749890000000  0.4434940000000 1.0
C      1  0.5452940000000  0.4325670000000  0.5530020000000 1.0
C      1  0.4356150000000  0.4331550000000  0.4942210000000 1.0
C      1  0.5630510000000  0.5654120000000  0.5170500000000 1.0
C      1  0.5687840000000  0.4794770000000  0.5714720000000 1.0
C      1  0.4470020000000  0.5186850000000  0.4335200000000 1.0
C      1  0.5151960000000  0.4428450000000  0.4710130000000 1.0
C      1  0.4988880000000  0.5539910000000  0.5391400000000 1.0
C      1  0.4870470000000  0.5089530000000  0.5063600000000 1.0
END
