TITL C-2782228-2999-260 -4.33070399889206e-06 125000 -76.9862729372921 0 0 15 (S4) n - 1
REM
REM in /home/nfs/bkarasulu/CARBON/AIRSS/Generating-Clusters/REBO/Higher-Symm/SD-CG/HFTN-CG
REM
REM
REM
REM
REM
REM ./C.cell (12c818d87b63d06a65506943cc24bca4)
REM
REM compiler GCC version 9.2.1 20190827 (Red Hat 9.2.1-1)
REM options -cpp -mtune=generic -march=x86-64 -g -O0 -fpre-include=/usr/include/finclude/math-vector-fortran.h
REM seed -1729450129 -1067306609 439102060 -80708003 -1915155522 2063272373 1132371081 -1279557769 -861435423 790955631 -1951541999 -696217542 1771261158 -313835057 -115743777 1560536936 484925373 -152747314 1863617321 -1217713775 453111305 876726271 1755263455 1302326200 1509365518 -1751895682 1631266129 -1777759638 882885915 -1785978382 611924315 -1535224806 478105678
REM
CELL 1.54180   50.00000   50.00000   50.00000   90.00000   90.00000   90.00000
LATT -1
SFAC C  
C      1  0.4635040000000  0.5377120000000  0.5230380000000 1.0
C      1  0.4638600000000  0.4648670000000  0.4754510000000 1.0
C      1  0.5369570000000  0.5389570000000  0.4764090000000 1.0
C      1  0.5376000000000  0.4646280000000  0.5216390000000 1.0
C      1  0.4454610000000  0.4462330000000  0.4744090000000 1.0
C      1  0.4448590000000  0.5560920000000  0.5241910000000 1.0
C      1  0.5562500000000  0.4462220000000  0.5220880000000 1.0
C      1  0.5553500000000  0.5576160000000  0.4758490000000 1.0
C      1  0.4828680000000  0.4841170000000  0.4765280000000 1.0
C      1  0.4827670000000  0.5187230000000  0.5218460000000 1.0
C      1  0.5183320000000  0.4836430000000  0.5211750000000 1.0
C      1  0.5179540000000  0.5196800000000  0.4769880000000 1.0
C      1  0.5003570000000  0.5021760000000  0.4593890000000 1.0
C      1  0.5006040000000  0.5009050000000  0.5388800000000 1.0
C      1  0.5004800000000  0.5015410000000  0.4991340000000 1.0
END
