TITL C-2782233-7966-1130 -3.41724035095681e-05 125000 -520.338041436624 0 0 90 (C1) n - 1
REM
REM in /home/nfs/bkarasulu/CARBON/AIRSS/Generating-Clusters/REBO/Higher-Symm/SD-CG/HFTN-CG
REM
REM
REM
REM
REM
REM ./C.cell (12c818d87b63d06a65506943cc24bca4)
REM
REM compiler GCC version 9.2.1 20190827 (Red Hat 9.2.1-1)
REM options -cpp -mtune=generic -march=x86-64 -g -O0 -fpre-include=/usr/include/finclude/math-vector-fortran.h
REM seed -65099205 -201597822 1616693638 1558114672 1830908049 384373092 -461439970 -1469596921 1046395346 -1416459725 1094364355 779552184 -621861698 -633150798 460352293 1647482471 474863902 -16102554 -1189138172 -2101190018 -323798326 -158442363 1036631564 -1295824251 -1280934548 586687722 -724422168 51016378 -1186708112 -1277362428 513788371 -1589473173 -1374711116
REM
CELL 1.54180   50.00000   50.00000   50.00000   90.00000   90.00000   90.00000
LATT -1
SFAC C  
C      1  0.4420520000000  0.5424230000000  0.5512880000000 1.0
C      1  0.5224090000000  0.5697560000000  0.5486380000000 1.0
C      1  0.5643600000000  0.4966440000000  0.5504380000000 1.0
C      1  0.5130190000000  0.4287100000000  0.5520730000000 1.0
C      1  0.4438250000000  0.4643160000000  0.5536960000000 1.0
C      1  0.4752190000000  0.4655590000000  0.5512970000000 1.0
C      1  0.4441600000000  0.5140560000000  0.5460740000000 1.0
C      1  0.4945440000000  0.5607490000000  0.5446090000000 1.0
C      1  0.5525220000000  0.5241410000000  0.5454910000000 1.0
C      1  0.5189110000000  0.4622160000000  0.5532260000000 1.0
C      1  0.4517750000000  0.4781590000000  0.4336330000000 1.0
C      1  0.4635630000000  0.5379300000000  0.4342700000000 1.0
C      1  0.5257570000000  0.5461240000000  0.4322670000000 1.0
C      1  0.5516310000000  0.4900500000000  0.4312470000000 1.0
C      1  0.5056100000000  0.4476420000000  0.4310700000000 1.0
C      1  0.4257270000000  0.4626640000000  0.5249030000000 1.0
C      1  0.4430660000000  0.5612530000000  0.5234310000000 1.0
C      1  0.5423370000000  0.5744260000000  0.5217220000000 1.0
C      1  0.5739270000000  0.4819370000000  0.5219100000000 1.0
C      1  0.5069690000000  0.4164600000000  0.5208180000000 1.0
C      1  0.5341880000000  0.4277780000000  0.5038670000000 1.0
C      1  0.4439150000000  0.4402580000000  0.5065930000000 1.0
C      1  0.4415420000000  0.5301510000000  0.5097570000000 1.0
C      1  0.5125430000000  0.5686640000000  0.5072290000000 1.0
C      1  0.5648630000000  0.5116360000000  0.5079100000000 1.0
C      1  0.4834070000000  0.5709650000000  0.4915660000000 1.0
C      1  0.5634030000000  0.5403490000000  0.4907150000000 1.0
C      1  0.5523450000000  0.4520480000000  0.4896880000000 1.0
C      1  0.4719230000000  0.4305960000000  0.4899100000000 1.0
C      1  0.4302280000000  0.5033300000000  0.4937410000000 1.0
C      1  0.5169300000000  0.4793630000000  0.4526350000000 1.0
C      1  0.4858200000000  0.4772650000000  0.4545890000000 1.0
C      1  0.4756660000000  0.5065650000000  0.4558990000000 1.0
C      1  0.4991490000000  0.5267240000000  0.4548930000000 1.0
C      1  0.5246050000000  0.5094170000000  0.4533240000000 1.0
C      1  0.5487500000000  0.5701990000000  0.4905240000000 1.0
C      1  0.5777730000000  0.4746940000000  0.4908320000000 1.0
C      1  0.5008820000000  0.4128140000000  0.4880800000000 1.0
C      1  0.4228330000000  0.4713190000000  0.4937170000000 1.0
C      1  0.4506320000000  0.5653240000000  0.4931220000000 1.0
C      1  0.5401030000000  0.4814460000000  0.5006910000000 1.0
C      1  0.4977710000000  0.4505680000000  0.4996280000000 1.0
C      1  0.4581610000000  0.4875620000000  0.5025060000000 1.0
C      1  0.4791800000000  0.5389350000000  0.5013770000000 1.0
C      1  0.5323280000000  0.5349860000000  0.4988720000000 1.0
C      1  0.5498360000000  0.4444610000000  0.4577820000000 1.0
C      1  0.4626210000000  0.4338090000000  0.4583550000000 1.0
C      1  0.4260570000000  0.5131290000000  0.4627520000000 1.0
C      1  0.4909080000000  0.5748170000000  0.4597040000000 1.0
C      1  0.5688470000000  0.5322220000000  0.4595050000000 1.0
C      1  0.5114090000000  0.5395580000000  0.5249300000000 1.0
C      1  0.5355240000000  0.5043580000000  0.5242110000000 1.0
C      1  0.5232010000000  0.4527540000000  0.5219490000000 1.0
C      1  0.4651980000000  0.4606930000000  0.5201900000000 1.0
C      1  0.4695520000000  0.5180450000000  0.5257350000000 1.0
C      1  0.5192200000000  0.5740680000000  0.4742890000000 1.0
C      1  0.5724960000000  0.5045840000000  0.4754840000000 1.0
C      1  0.5276270000000  0.4263520000000  0.4716070000000 1.0
C      1  0.4397990000000  0.4487520000000  0.4744690000000 1.0
C      1  0.4378920000000  0.5387400000000  0.4770580000000 1.0
C      1  0.5488810000000  0.5224970000000  0.4373700000000 1.0
C      1  0.5356240000000  0.4606730000000  0.4351490000000 1.0
C      1  0.4732970000000  0.4537120000000  0.4365960000000 1.0
C      1  0.4479510000000  0.5101370000000  0.4409430000000 1.0
C      1  0.4935290000000  0.5528280000000  0.4369670000000 1.0
C      1  0.4832400000000  0.5180160000000  0.4183430000000 1.0
C      1  0.5115820000000  0.5211400000000  0.4173130000000 1.0
C      1  0.5233300000000  0.4950070000000  0.4160570000000 1.0
C      1  0.5020000000000  0.4758280000000  0.4157560000000 1.0
C      1  0.4772840000000  0.4900460000000  0.4176630000000 1.0
C      1  0.4326300000000  0.4796050000000  0.4617050000000 1.0
C      1  0.4614010000000  0.5576670000000  0.4611570000000 1.0
C      1  0.5437830000000  0.5555350000000  0.4595260000000 1.0
C      1  0.5635730000000  0.4756840000000  0.4594950000000 1.0
C      1  0.4963970000000  0.4291880000000  0.4581230000000 1.0
C      1  0.5043300000000  0.5380770000000  0.4829050000000 1.0
C      1  0.5296860000000  0.5073790000000  0.4840810000000 1.0
C      1  0.5163610000000  0.4698580000000  0.4820230000000 1.0
C      1  0.4766050000000  0.4694920000000  0.4831100000000 1.0
C      1  0.4770710000000  0.5091750000000  0.4875210000000 1.0
C      1  0.4675210000000  0.5622090000000  0.5469040000000 1.0
C      1  0.5485550000000  0.5510510000000  0.5456530000000 1.0
C      1  0.5477660000000  0.4692890000000  0.5388410000000 1.0
C      1  0.4860040000000  0.4387580000000  0.5357510000000 1.0
C      1  0.4297910000000  0.4906540000000  0.5442220000000 1.0
C      1  0.5026570000000  0.4953180000000  0.4990570000000 1.0
C      1  0.4983470000000  0.4858400000000  0.5556100000000 1.0
C      1  0.4978870000000  0.5117730000000  0.6052210000000 1.0
C      1  0.4980970000000  0.4999510000000  0.5826060000000 1.0
C      1  0.5017460000000  0.5072390000000  0.5305100000000 1.0
END
