TITL C-2782239-8622-407 0.00550627845336466 125000 -1127.92636050436 0 0 190 (C1) n - 1
REM
REM in /home/nfs/bkarasulu/CARBON/AIRSS/Generating-Clusters/REBO/Higher-Symm/SD-CG/HFTN-CG
REM
REM
REM
REM
REM
REM ./C.cell (12c818d87b63d06a65506943cc24bca4)
REM
REM compiler GCC version 9.2.1 20190827 (Red Hat 9.2.1-1)
REM options -cpp -mtune=generic -march=x86-64 -g -O0 -fpre-include=/usr/include/finclude/math-vector-fortran.h
REM seed 1203784951 476197594 -772402690 -1094478664 -369613350 -1361259271 -177903703 -2099124691 2000425409 142080790 -1878785640 1995636766 -807840498 -95928090 -1575113501 -27719772 -1735193373 -1420129692 1306035138 -1993330849 260342300 1353342806 1671166966 -151155981 1885148158 -520111574 -682540179 -688902516 -1982785516 989593912 1258290346 -1277043982 1361752558
REM
CELL 1.54180   50.00000   50.00000   50.00000   90.00000   90.00000   90.00000
LATT -1
SFAC C  
C      1  0.4353970000000  0.4229710000000  0.5250060000000 1.0
C      1  0.4609380000000  0.4283120000000  0.4418980000000 1.0
C      1  0.5369900000000  0.4186520000000  0.4450100000000 1.0
C      1  0.5590440000000  0.4176560000000  0.5096010000000 1.0
C      1  0.5067900000000  0.4191410000000  0.5673330000000 1.0
C      1  0.5284660000000  0.4912380000000  0.4989120000000 1.0
C      1  0.5158510000000  0.4969860000000  0.5300220000000 1.0
C      1  0.4613350000000  0.4972570000000  0.5195030000000 1.0
C      1  0.4768790000000  0.4956530000000  0.4679520000000 1.0
C      1  0.5108520000000  0.4898840000000  0.4696560000000 1.0
C      1  0.4676730000000  0.4835380000000  0.4309690000000 1.0
C      1  0.5572130000000  0.4859010000000  0.4355960000000 1.0
C      1  0.5807280000000  0.4905370000000  0.5314230000000 1.0
C      1  0.4895690000000  0.4890620000000  0.5745570000000 1.0
C      1  0.4122740000000  0.4869850000000  0.5218230000000 1.0
C      1  0.4187750000000  0.4865020000000  0.5608370000000 1.0
C      1  0.4235030000000  0.4873690000000  0.4390660000000 1.0
C      1  0.5267360000000  0.4842850000000  0.4102620000000 1.0
C      1  0.5882020000000  0.4759040000000  0.5040140000000 1.0
C      1  0.5255990000000  0.4840880000000  0.5910360000000 1.0
C      1  0.4315800000000  0.5277460000000  0.5328470000000 1.0
C      1  0.4509100000000  0.5318630000000  0.4455390000000 1.0
C      1  0.5339640000000  0.5252400000000  0.4370950000000 1.0
C      1  0.5697470000000  0.5221530000000  0.5097230000000 1.0
C      1  0.5089260000000  0.5244240000000  0.5739380000000 1.0
C      1  0.5572910000000  0.5369160000000  0.4155090000000 1.0
C      1  0.5961740000000  0.5398290000000  0.5183360000000 1.0
C      1  0.5004410000000  0.5373320000000  0.6010840000000 1.0
C      1  0.4028860000000  0.5407130000000  0.5330850000000 1.0
C      1  0.4516950000000  0.5404230000000  0.4138600000000 1.0
C      1  0.6047990000000  0.5203650000000  0.4845600000000 1.0
C      1  0.5396160000000  0.5292730000000  0.6016570000000 1.0
C      1  0.4268900000000  0.5287740000000  0.5820480000000 1.0
C      1  0.4008390000000  0.5289120000000  0.4424560000000 1.0
C      1  0.5150410000000  0.5294230000000  0.3917210000000 1.0
C      1  0.4920540000000  0.5238740000000  0.4785880000000 1.0
C      1  0.5206460000000  0.5333270000000  0.4856910000000 1.0
C      1  0.5229850000000  0.5343930000000  0.5184060000000 1.0
C      1  0.4951490000000  0.5211120000000  0.5282750000000 1.0
C      1  0.4745180000000  0.5220650000000  0.5045180000000 1.0
C      1  0.4715920000000  0.5516730000000  0.6118380000000 1.0
C      1  0.3900490000000  0.5471150000000  0.5024350000000 1.0
C      1  0.4637820000000  0.5398290000000  0.3848490000000 1.0
C      1  0.5879450000000  0.5438400000000  0.4288860000000 1.0
C      1  0.6002260000000  0.5493020000000  0.5509490000000 1.0
C      1  0.5405370000000  0.5552780000000  0.5474910000000 1.0
C      1  0.4673290000000  0.5544570000000  0.5552760000000 1.0
C      1  0.4478010000000  0.5582280000000  0.4966460000000 1.0
C      1  0.4917890000000  0.5581760000000  0.4504510000000 1.0
C      1  0.5505460000000  0.5590900000000  0.4792690000000 1.0
C      1  0.5420090000000  0.4582410000000  0.4111420000000 1.0
C      1  0.5911380000000  0.4468910000000  0.5216410000000 1.0
C      1  0.5219580000000  0.4564070000000  0.5971030000000 1.0
C      1  0.4173220000000  0.4580910000000  0.5564100000000 1.0
C      1  0.4238960000000  0.4592400000000  0.4354110000000 1.0
C      1  0.3994060000000  0.4899390000000  0.4845400000000 1.0
C      1  0.4822570000000  0.4979660000000  0.3971800000000 1.0
C      1  0.5905450000000  0.4946930000000  0.4552210000000 1.0
C      1  0.5815820000000  0.4973030000000  0.5707450000000 1.0
C      1  0.4572600000000  0.4943520000000  0.5969770000000 1.0
C      1  0.5190520000000  0.6060490000000  0.5145940000000 1.0
C      1  0.4895720000000  0.6078500000000  0.5228320000000 1.0
C      1  0.4731690000000  0.6103740000000  0.4972480000000 1.0
C      1  0.4922300000000  0.6103770000000  0.4742720000000 1.0
C      1  0.5196620000000  0.6051570000000  0.4841180000000 1.0
C      1  0.3960690000000  0.4630660000000  0.5052240000000 1.0
C      1  0.4561180000000  0.4762410000000  0.4008470000000 1.0
C      1  0.5811750000000  0.4649860000000  0.4443350000000 1.0
C      1  0.5885700000000  0.4700700000000  0.5648760000000 1.0
C      1  0.4826570000000  0.4716650000000  0.6019310000000 1.0
C      1  0.4761670000000  0.3992240000000  0.4511280000000 1.0
C      1  0.5361790000000  0.3904280000000  0.4630660000000 1.0
C      1  0.5426610000000  0.3964880000000  0.5229380000000 1.0
C      1  0.4902290000000  0.3998600000000  0.5477370000000 1.0
C      1  0.4490710000000  0.4009530000000  0.5059990000000 1.0
C      1  0.5208950000000  0.3828370000000  0.5097620000000 1.0
C      1  0.4952220000000  0.3844230000000  0.5238500000000 1.0
C      1  0.4733950000000  0.3845380000000  0.5036900000000 1.0
C      1  0.4853020000000  0.3828980000000  0.4754180000000 1.0
C      1  0.5154270000000  0.3804970000000  0.4801980000000 1.0
C      1  0.4209220000000  0.6003460000000  0.5129380000000 1.0
C      1  0.4682750000000  0.5790490000000  0.4613740000000 1.0
C      1  0.5398380000000  0.5806170000000  0.4393530000000 1.0
C      1  0.5684640000000  0.5971890000000  0.5269700000000 1.0
C      1  0.4904510000000  0.5968880000000  0.5745530000000 1.0
C      1  0.4361360000000  0.5778170000000  0.4519420000000 1.0
C      1  0.5175890000000  0.5719410000000  0.4233990000000 1.0
C      1  0.5828200000000  0.5911860000000  0.5002840000000 1.0
C      1  0.5190750000000  0.5865440000000  0.5781720000000 1.0
C      1  0.4307320000000  0.5848330000000  0.5378520000000 1.0
C      1  0.5439700000000  0.5291030000000  0.4645950000000 1.0
C      1  0.5505770000000  0.5269470000000  0.5318580000000 1.0
C      1  0.4841940000000  0.5272310000000  0.5558530000000 1.0
C      1  0.4420210000000  0.5288840000000  0.5045990000000 1.0
C      1  0.4820000000000  0.5297620000000  0.4478360000000 1.0
C      1  0.5596670000000  0.4932780000000  0.4976830000000 1.0
C      1  0.5260270000000  0.4976310000000  0.5612070000000 1.0
C      1  0.4418560000000  0.5001560000000  0.5452330000000 1.0
C      1  0.4455520000000  0.5016370000000  0.4586620000000 1.0
C      1  0.5190650000000  0.4979820000000  0.4376700000000 1.0
C      1  0.5184270000000  0.5446060000000  0.4156770000000 1.0
C      1  0.5773080000000  0.5403340000000  0.4830800000000 1.0
C      1  0.5401360000000  0.5338990000000  0.5697090000000 1.0
C      1  0.4413550000000  0.5383930000000  0.5609660000000 1.0
C      1  0.4219760000000  0.5336930000000  0.4593050000000 1.0
C      1  0.4254710000000  0.5120080000000  0.4836950000000 1.0
C      1  0.4902250000000  0.5068700000000  0.4291430000000 1.0
C      1  0.5685880000000  0.5091310000000  0.4720170000000 1.0
C      1  0.5561750000000  0.5076500000000  0.5579160000000 1.0
C      1  0.4632850000000  0.5053400000000  0.5655970000000 1.0
C      1  0.5580130000000  0.4425990000000  0.4328050000000 1.0
C      1  0.5860920000000  0.4453960000000  0.5496620000000 1.0
C      1  0.4932180000000  0.4417050000000  0.5894850000000 1.0
C      1  0.4115900000000  0.4460400000000  0.5299880000000 1.0
C      1  0.4461080000000  0.4493240000000  0.4191850000000 1.0
C      1  0.5692300000000  0.5089130000000  0.4245750000000 1.0
C      1  0.5969420000000  0.5124020000000  0.5372600000000 1.0
C      1  0.4942810000000  0.5040530000000  0.6049570000000 1.0
C      1  0.3981350000000  0.5115970000000  0.5184700000000 1.0
C      1  0.4480610000000  0.5066150000000  0.4149830000000 1.0
C      1  0.5866170000000  0.4382790000000  0.4921360000000 1.0
C      1  0.5445730000000  0.4419220000000  0.5862550000000 1.0
C      1  0.4393160000000  0.4454420000000  0.5693850000000 1.0
C      1  0.4194520000000  0.4447890000000  0.4596670000000 1.0
C      1  0.5159100000000  0.4474350000000  0.3991060000000 1.0
C      1  0.5913870000000  0.5719100000000  0.5269850000000 1.0
C      1  0.4950550000000  0.5706610000000  0.5961490000000 1.0
C      1  0.4044020000000  0.5716750000000  0.5212650000000 1.0
C      1  0.4591180000000  0.5674860000000  0.4294350000000 1.0
C      1  0.5624090000000  0.5640650000000  0.4343890000000 1.0
C      1  0.4581530000000  0.4496170000000  0.4683840000000 1.0
C      1  0.5229310000000  0.4474520000000  0.4513550000000 1.0
C      1  0.5523200000000  0.4510130000000  0.5082810000000 1.0
C      1  0.5170670000000  0.4490790000000  0.5582400000000 1.0
C      1  0.4532310000000  0.4513010000000  0.5260760000000 1.0
C      1  0.5596580000000  0.4693220000000  0.5318530000000 1.0
C      1  0.4934160000000  0.4675440000000  0.5542120000000 1.0
C      1  0.4349590000000  0.4700360000000  0.5083480000000 1.0
C      1  0.4769090000000  0.4587090000000  0.4425330000000 1.0
C      1  0.5439920000000  0.4702060000000  0.4579840000000 1.0
C      1  0.4735960000000  0.5664210000000  0.5047150000000 1.0
C      1  0.4940690000000  0.5710670000000  0.4814270000000 1.0
C      1  0.5218640000000  0.5659620000000  0.4942290000000 1.0
C      1  0.5160750000000  0.5651710000000  0.5267240000000 1.0
C      1  0.4858840000000  0.5655480000000  0.5301960000000 1.0
C      1  0.6086340000000  0.4963640000000  0.4907860000000 1.0
C      1  0.5338570000000  0.5036790000000  0.6102780000000 1.0
C      1  0.4126920000000  0.5047460000000  0.5820900000000 1.0
C      1  0.4017360000000  0.5038770000000  0.4308020000000 1.0
C      1  0.5211230000000  0.5023860000000  0.3888750000000 1.0
C      1  0.4342590000000  0.5789800000000  0.4820690000000 1.0
C      1  0.4890130000000  0.5837810000000  0.4279120000000 1.0
C      1  0.5662700000000  0.5872980000000  0.4788530000000 1.0
C      1  0.5351280000000  0.5842060000000  0.5562260000000 1.0
C      1  0.4553520000000  0.5832580000000  0.5486500000000 1.0
C      1  0.5568770000000  0.4111720000000  0.4786210000000 1.0
C      1  0.5334280000000  0.4144420000000  0.5473500000000 1.0
C      1  0.4629700000000  0.4157050000000  0.5414170000000 1.0
C      1  0.4491560000000  0.4117770000000  0.4775720000000 1.0
C      1  0.5042310000000  0.4117890000000  0.4389450000000 1.0
C      1  0.4781350000000  0.4204730000000  0.4867900000000 1.0
C      1  0.5029620000000  0.4195870000000  0.4719420000000 1.0
C      1  0.5251850000000  0.4181760000000  0.4892850000000 1.0
C      1  0.5143490000000  0.4243290000000  0.5207520000000 1.0
C      1  0.4831650000000  0.4215550000000  0.5152270000000 1.0
C      1  0.5625930000000  0.4583500000000  0.4788430000000 1.0
C      1  0.5482860000000  0.4568130000000  0.5558110000000 1.0
C      1  0.4676700000000  0.4533010000000  0.5537560000000 1.0
C      1  0.4316080000000  0.4598550000000  0.4827170000000 1.0
C      1  0.5024610000000  0.4506790000000  0.4302500000000 1.0
C      1  0.4986970000000  0.4232020000000  0.4099040000000 1.0
C      1  0.5732430000000  0.4316970000000  0.4613150000000 1.0
C      1  0.5610710000000  0.4262620000000  0.5609820000000 1.0
C      1  0.4673310000000  0.4265180000000  0.5734700000000 1.0
C      1  0.4274790000000  0.4176070000000  0.4609960000000 1.0
C      1  0.4440250000000  0.6063620000000  0.4941340000000 1.0
C      1  0.4884460000000  0.6098090000000  0.4458800000000 1.0
C      1  0.5400510000000  0.5949520000000  0.4652670000000 1.0
C      1  0.5412530000000  0.6007170000000  0.5335020000000 1.0
C      1  0.4778940000000  0.6011690000000  0.5492740000000 1.0
C      1  0.5114130000000  0.4579380000000  0.4794100000000 1.0
C      1  0.5213410000000  0.4529470000000  0.5080060000000 1.0
C      1  0.5025630000000  0.4700620000000  0.5243730000000 1.0
C      1  0.4747790000000  0.4708200000000  0.5114670000000 1.0
C      1  0.4802540000000  0.4672590000000  0.4816140000000 1.0
C      1  0.4659370000000  0.5214590000000  0.6130540000000 1.0
C      1  0.3866600000000  0.5193990000000  0.4898100000000 1.0
C      1  0.4790840000000  0.5179140000000  0.3785900000000 1.0
C      1  0.5994950000000  0.5152290000000  0.4340330000000 1.0
C      1  0.6008790000000  0.5222360000000  0.5673330000000 1.0
END
