TITL C-2782225-7408-214 -0.00103123661851456 125000 -393.561031495891 0 0 69 (C2) n - 1
REM
REM in /home/nfs/bkarasulu/CARBON/AIRSS/Generating-Clusters/REBO/Higher-Symm/SD-CG/HFTN-CG
REM
REM
REM
REM
REM
REM ./C.cell (12c818d87b63d06a65506943cc24bca4)
REM
REM compiler GCC version 9.2.1 20190827 (Red Hat 9.2.1-1)
REM options -cpp -mtune=generic -march=x86-64 -g -O0 -fpre-include=/usr/include/finclude/math-vector-fortran.h
REM seed -393905963 -1768173508 -1750384763 417719289 235730899 110224425 -40493025 877095901 -1126401804 49622793 107757730 -1109883493 -1092927053 635803149 32652590 -990853409 -458983076 -1938600722 -1058047841 603707033 721992426 -1176591096 239086079 -274814997 -301994541 764532474 -362875273 1721519178 2086051084 605180025 -772860896 38619464 -1331460703
REM
CELL 1.54180   50.00000   50.00000   50.00000   90.00000   90.00000   90.00000
LATT -1
SFAC C  
C      1  0.4678290000000  0.4890950000000  0.4293370000000 1.0
C      1  0.5320440000000  0.4890610000000  0.5703130000000 1.0
C      1  0.5232380000000  0.4936670000000  0.4316190000000 1.0
C      1  0.4766330000000  0.4936170000000  0.5680330000000 1.0
C      1  0.5594690000000  0.5022060000000  0.5372250000000 1.0
C      1  0.4404000000000  0.5022110000000  0.4624330000000 1.0
C      1  0.4394040000000  0.5020490000000  0.5365920000000 1.0
C      1  0.5604650000000  0.5020910000000  0.4630660000000 1.0
C      1  0.5084500000000  0.5158100000000  0.4412500000000 1.0
C      1  0.4914150000000  0.5157710000000  0.5584170000000 1.0
C      1  0.4787110000000  0.5138330000000  0.4363420000000 1.0
C      1  0.5211540000000  0.5138000000000  0.5633230000000 1.0
C      1  0.4560290000000  0.4448610000000  0.4534960000000 1.0
C      1  0.5438580000000  0.4448450000000  0.5461260000000 1.0
C      1  0.5398010000000  0.4477270000000  0.4495520000000 1.0
C      1  0.4600850000000  0.4476820000000  0.5500720000000 1.0
C      1  0.5132220000000  0.5503880000000  0.5273620000000 1.0
C      1  0.4866320000000  0.5504010000000  0.4723270000000 1.0
C      1  0.4821060000000  0.5516620000000  0.5171930000000 1.0
C      1  0.5177470000000  0.5516780000000  0.4824960000000 1.0
C      1  0.4436340000000  0.4751050000000  0.4449360000000 1.0
C      1  0.5562430000000  0.4750880000000  0.5547050000000 1.0
C      1  0.5492790000000  0.4798320000000  0.4434200000000 1.0
C      1  0.4505970000000  0.4797810000000  0.5562240000000 1.0
C      1  0.4822630000000  0.5606070000000  0.5502910000000 1.0
C      1  0.5175870000000  0.5606450000000  0.4494040000000 1.0
C      1  0.5109490000000  0.5619360000000  0.5599420000000 1.0
C      1  0.4889020000000  0.5619710000000  0.4397540000000 1.0
C      1  0.5619090000000  0.5266450000000  0.5154750000000 1.0
C      1  0.4379530000000  0.5266360000000  0.4841980000000 1.0
C      1  0.4362290000000  0.5245860000000  0.5133870000000 1.0
C      1  0.5636330000000  0.5246140000000  0.4862850000000 1.0
C      1  0.4797090000000  0.5186050000000  0.4687310000000 1.0
C      1  0.5201550000000  0.5185920000000  0.5309380000000 1.0
C      1  0.5133350000000  0.5207070000000  0.4732010000000 1.0
C      1  0.4865280000000  0.5206860000000  0.5264680000000 1.0
C      1  0.5404830000000  0.5545860000000  0.5559230000000 1.0
C      1  0.4593700000000  0.5546090000000  0.4437690000000 1.0
C      1  0.4523150000000  0.5528230000000  0.5432070000000 1.0
C      1  0.5475380000000  0.5528650000000  0.4564830000000 1.0
C      1  0.4595010000000  0.4420530000000  0.5163740000000 1.0
C      1  0.5403870000000  0.4420760000000  0.4832460000000 1.0
C      1  0.5410730000000  0.4404380000000  0.5124060000000 1.0
C      1  0.4588150000000  0.4404330000000  0.4872130000000 1.0
C      1  0.5613120000000  0.5310420000000  0.4469660000000 1.0
C      1  0.4385480000000  0.5309890000000  0.5527110000000 1.0
C      1  0.4432900000000  0.5301950000000  0.4447780000000 1.0
C      1  0.5565710000000  0.5301770000000  0.5548980000000 1.0
C      1  0.5243730000000  0.4688130000000  0.5211260000000 1.0
C      1  0.4755060000000  0.4688190000000  0.4785110000000 1.0
C      1  0.4779540000000  0.4700910000000  0.5226980000000 1.0
C      1  0.5219250000000  0.4701120000000  0.4769400000000 1.0
C      1  0.5128940000000  0.4328000000000  0.4654830000000 1.0
C      1  0.4869960000000  0.4327750000000  0.5341310000000 1.0
C      1  0.4849960000000  0.4318370000000  0.4668870000000 1.0
C      1  0.5148950000000  0.4318210000000  0.5327260000000 1.0
C      1  0.4821940000000  0.4657690000000  0.4461080000000 1.0
C      1  0.5176870000000  0.4657410000000  0.5535280000000 1.0
C      1  0.5118320000000  0.4671920000000  0.4453910000000 1.0
C      1  0.4880480000000  0.4671540000000  0.5542450000000 1.0
C      1  0.4514210000000  0.5546540000000  0.5091490000000 1.0
C      1  0.5484320000000  0.5546750000000  0.4905420000000 1.0
C      1  0.5468090000000  0.5537830000000  0.5231790000000 1.0
C      1  0.4530440000000  0.5537830000000  0.4765110000000 1.0
C      1  0.4643930000000  0.4967790000000  0.4852950000000 1.0
C      1  0.5354780000000  0.4967810000000  0.5143590000000 1.0
C      1  0.5333040000000  0.4988750000000  0.4831710000000 1.0
C      1  0.4665660000000  0.4988540000000  0.5164850000000 1.0
C      1  0.4999400000000  0.4649170000000  0.4998170000000 1.0
END
