TITL C-2782240-8521-1283 -0.0100840049253347 125000 -450.317977656869 0 0 80 (C1) n - 1
REM
REM in /home/nfs/bkarasulu/CARBON/AIRSS/Generating-Clusters/REBO/Higher-Symm/SD-CG/HFTN-CG
REM
REM
REM
REM
REM
REM ./C.cell (12c818d87b63d06a65506943cc24bca4)
REM
REM compiler GCC version 9.2.1 20190827 (Red Hat 9.2.1-1)
REM options -cpp -mtune=generic -march=x86-64 -g -O0 -fpre-include=/usr/include/finclude/math-vector-fortran.h
REM seed 1527790949 -1137816011 -1056753911 -532748241 538433686 -1637170837 -550594749 -516792692 347481109 226835445 -473927309 -2071780667 65643152 931787771 1107342081 -1996253004 -1536212387 -1962124292 -73568528 484329020 -1970378420 -926997489 78215538 -1992779463 -1662526841 -534060221 -1718683922 -1511430943 -1710932155 -387696487 -679357317 1925880303 -2124668464
REM
CELL 1.54180   50.00000   50.00000   50.00000   90.00000   90.00000   90.00000
LATT -1
SFAC C  
C      1  0.4962060000000  0.4930500000000  0.5954040000000 1.0
C      1  0.5283490000000  0.5002620000000  0.4303990000000 1.0
C      1  0.5480190000000  0.4488320000000  0.4252280000000 1.0
C      1  0.4936050000000  0.4648100000000  0.5111230000000 1.0
C      1  0.4386100000000  0.4580910000000  0.5473300000000 1.0
C      1  0.4805440000000  0.4734220000000  0.4581180000000 1.0
C      1  0.4696930000000  0.4244930000000  0.5277830000000 1.0
C      1  0.4408420000000  0.4768240000000  0.4553280000000 1.0
C      1  0.5851700000000  0.4852730000000  0.4883180000000 1.0
C      1  0.5288440000000  0.4482940000000  0.5542230000000 1.0
C      1  0.4874780000000  0.5350520000000  0.4215930000000 1.0
C      1  0.4481690000000  0.5581770000000  0.5342670000000 1.0
C      1  0.5145820000000  0.4948200000000  0.4958700000000 1.0
C      1  0.5402450000000  0.4774610000000  0.5309510000000 1.0
C      1  0.5639780000000  0.4316330000000  0.4396990000000 1.0
C      1  0.5035170000000  0.5652440000000  0.5287770000000 1.0
C      1  0.5022220000000  0.4434730000000  0.5615260000000 1.0
C      1  0.4535320000000  0.4684450000000  0.5668630000000 1.0
C      1  0.4647610000000  0.5743840000000  0.4596290000000 1.0
C      1  0.4522730000000  0.5016580000000  0.4573150000000 1.0
C      1  0.4450020000000  0.5476920000000  0.4521010000000 1.0
C      1  0.4634600000000  0.4456890000000  0.4625060000000 1.0
C      1  0.5220300000000  0.5239040000000  0.4610490000000 1.0
C      1  0.4933350000000  0.4220760000000  0.5440490000000 1.0
C      1  0.4821940000000  0.4880530000000  0.4345510000000 1.0
C      1  0.5541010000000  0.5551000000000  0.5259680000000 1.0
C      1  0.5220410000000  0.5513020000000  0.5758010000000 1.0
C      1  0.4712020000000  0.5564570000000  0.4314640000000 1.0
C      1  0.5227490000000  0.5610120000000  0.4469630000000 1.0
C      1  0.5053620000000  0.5484120000000  0.5530710000000 1.0
C      1  0.4899010000000  0.5180410000000  0.5194050000000 1.0
C      1  0.4439780000000  0.5383390000000  0.5609620000000 1.0
C      1  0.5369370000000  0.4457760000000  0.5210020000000 1.0
C      1  0.5029120000000  0.4394530000000  0.4911930000000 1.0
C      1  0.5085760000000  0.4895120000000  0.5290610000000 1.0
C      1  0.4770070000000  0.5668340000000  0.5194360000000 1.0
C      1  0.4783960000000  0.5464630000000  0.4740620000000 1.0
C      1  0.5502810000000  0.5028850000000  0.4799340000000 1.0
C      1  0.4953910000000  0.5350960000000  0.4981300000000 1.0
C      1  0.4901240000000  0.4349590000000  0.4539040000000 1.0
C      1  0.4536090000000  0.5202570000000  0.5773210000000 1.0
C      1  0.4449570000000  0.4437040000000  0.5241000000000 1.0
C      1  0.4653690000000  0.4939560000000  0.5829300000000 1.0
C      1  0.5182930000000  0.4507240000000  0.4648410000000 1.0
C      1  0.4744740000000  0.4729680000000  0.4890490000000 1.0
C      1  0.5781640000000  0.5046500000000  0.5084550000000 1.0
C      1  0.5392870000000  0.5139180000000  0.5095720000000 1.0
C      1  0.4730740000000  0.4330420000000  0.4987190000000 1.0
C      1  0.5280600000000  0.5683860000000  0.5143050000000 1.0
C      1  0.4860050000000  0.4663330000000  0.5703480000000 1.0
C      1  0.4516890000000  0.5582270000000  0.5012200000000 1.0
C      1  0.4276480000000  0.5170580000000  0.4946060000000 1.0
C      1  0.5196950000000  0.4174540000000  0.5305730000000 1.0
C      1  0.5515050000000  0.5280400000000  0.5328030000000 1.0
C      1  0.5555540000000  0.5212570000000  0.5597300000000 1.0
C      1  0.4440320000000  0.5207120000000  0.4352320000000 1.0
C      1  0.5654590000000  0.4348130000000  0.4675020000000 1.0
C      1  0.5447280000000  0.5627980000000  0.4632680000000 1.0
C      1  0.5466700000000  0.4929800000000  0.4559020000000 1.0
C      1  0.4121970000000  0.5236370000000  0.5178950000000 1.0
C      1  0.4957680000000  0.5223160000000  0.5479080000000 1.0
C      1  0.5225620000000  0.5334060000000  0.4895100000000 1.0
C      1  0.4349800000000  0.4903070000000  0.4921690000000 1.0
C      1  0.5026590000000  0.5034900000000  0.4722050000000 1.0
C      1  0.5732330000000  0.5322790000000  0.4995090000000 1.0
C      1  0.4753690000000  0.5135750000000  0.4703960000000 1.0
C      1  0.5420600000000  0.4466940000000  0.4892720000000 1.0
C      1  0.4979860000000  0.5693720000000  0.4579880000000 1.0
C      1  0.4398230000000  0.5407720000000  0.4826580000000 1.0
C      1  0.4711770000000  0.5116950000000  0.4235390000000 1.0
C      1  0.5001260000000  0.4944510000000  0.5616220000000 1.0
C      1  0.5643450000000  0.4903970000000  0.5298490000000 1.0
C      1  0.5719810000000  0.4617000000000  0.4826250000000 1.0
C      1  0.5530660000000  0.5589400000000  0.4925630000000 1.0
C      1  0.5303170000000  0.4681030000000  0.4420530000000 1.0
C      1  0.5189190000000  0.4156640000000  0.5019280000000 1.0
C      1  0.5439910000000  0.5352590000000  0.5805020000000 1.0
C      1  0.4472380000000  0.4542230000000  0.4917530000000 1.0
C      1  0.4212600000000  0.5393430000000  0.5390220000000 1.0
C      1  0.5170550000000  0.5323460000000  0.4302000000000 1.0
END
