TITL C-2782238-9940-1062 -0.00221318315695413 125000 -626.742660882368 0 0 109 (C1) n - 1
REM
REM in /home/nfs/bkarasulu/CARBON/AIRSS/Generating-Clusters/REBO/Higher-Symm/SD-CG/HFTN-CG
REM
REM
REM
REM
REM
REM ./C.cell (12c818d87b63d06a65506943cc24bca4)
REM
REM compiler GCC version 9.2.1 20190827 (Red Hat 9.2.1-1)
REM options -cpp -mtune=generic -march=x86-64 -g -O0 -fpre-include=/usr/include/finclude/math-vector-fortran.h
REM seed -1112382367 1336317636 2125760939 590701042 127173740 -788674707 -630758649 1941361701 -1432595553 979156825 -1473332536 995525906 -1069958133 -1098336433 1933321515 -393415880 554183476 1991513629 -620941631 -317521211 2073642354 -1969584852 -1659622240 -1697271338 688189178 1946815147 -1727154231 1781717183 -1683786222 -21902077 -533921076 -1357101925 1872618897
REM
CELL 1.54180   50.00000   50.00000   50.00000   90.00000   90.00000   90.00000
LATT -1
SFAC C  
C      1  0.4542250000000  0.4744060000000  0.4472180000000 1.0
C      1  0.5186160000000  0.4081560000000  0.5418210000000 1.0
C      1  0.5779430000000  0.5581990000000  0.5121380000000 1.0
C      1  0.4961990000000  0.3970070000000  0.5016270000000 1.0
C      1  0.5067340000000  0.4788650000000  0.5478200000000 1.0
C      1  0.4742450000000  0.5849560000000  0.4657860000000 1.0
C      1  0.4424310000000  0.5082730000000  0.5496330000000 1.0
C      1  0.5255650000000  0.5147410000000  0.5119610000000 1.0
C      1  0.5266190000000  0.5907540000000  0.5234420000000 1.0
C      1  0.5120820000000  0.4454570000000  0.4498140000000 1.0
C      1  0.4281050000000  0.5457500000000  0.4493630000000 1.0
C      1  0.5236170000000  0.5124560000000  0.4563110000000 1.0
C      1  0.5431130000000  0.4959530000000  0.5547310000000 1.0
C      1  0.5686220000000  0.5199790000000  0.4739070000000 1.0
C      1  0.4749950000000  0.5239080000000  0.5222220000000 1.0
C      1  0.4637180000000  0.4246810000000  0.4805100000000 1.0
C      1  0.5051400000000  0.5058200000000  0.5655020000000 1.0
C      1  0.5614070000000  0.4612290000000  0.5186850000000 1.0
C      1  0.5388500000000  0.5551010000000  0.5450540000000 1.0
C      1  0.4247460000000  0.4521580000000  0.5175600000000 1.0
C      1  0.5442710000000  0.5251040000000  0.5705070000000 1.0
C      1  0.4363860000000  0.5551530000000  0.5038860000000 1.0
C      1  0.5013660000000  0.5024730000000  0.5233280000000 1.0
C      1  0.4839460000000  0.4715740000000  0.4025110000000 1.0
C      1  0.5006450000000  0.5906680000000  0.5113070000000 1.0
C      1  0.4874150000000  0.4881420000000  0.4297040000000 1.0
C      1  0.4238900000000  0.5186160000000  0.4679530000000 1.0
C      1  0.5425420000000  0.4445900000000  0.4530790000000 1.0
C      1  0.5094240000000  0.5598500000000  0.4505450000000 1.0
C      1  0.5004320000000  0.5447440000000  0.4769120000000 1.0
C      1  0.5369470000000  0.4724810000000  0.4342740000000 1.0
C      1  0.4608100000000  0.4820390000000  0.4953350000000 1.0
C      1  0.5178800000000  0.5434990000000  0.5669050000000 1.0
C      1  0.4119910000000  0.4902830000000  0.4673370000000 1.0
C      1  0.5830120000000  0.5380430000000  0.5318160000000 1.0
C      1  0.4884260000000  0.4525870000000  0.5228090000000 1.0
C      1  0.4560750000000  0.5225440000000  0.4658780000000 1.0
C      1  0.5575130000000  0.4315330000000  0.5138200000000 1.0
C      1  0.5428550000000  0.5573750000000  0.4498760000000 1.0
C      1  0.4542770000000  0.4852420000000  0.5428870000000 1.0
C      1  0.5665900000000  0.5425550000000  0.5545510000000 1.0
C      1  0.5219670000000  0.5623050000000  0.4932770000000 1.0
C      1  0.4501010000000  0.4303140000000  0.5094640000000 1.0
C      1  0.4403160000000  0.4715430000000  0.4189070000000 1.0
C      1  0.4375190000000  0.4604370000000  0.5452110000000 1.0
C      1  0.4720370000000  0.4863470000000  0.4667420000000 1.0
C      1  0.5270350000000  0.4203260000000  0.5136900000000 1.0
C      1  0.4439500000000  0.4576160000000  0.4915690000000 1.0
C      1  0.5429190000000  0.4656370000000  0.5806280000000 1.0
C      1  0.5056660000000  0.4412760000000  0.5027340000000 1.0
C      1  0.4639420000000  0.5466740000000  0.5531370000000 1.0
C      1  0.4543050000000  0.5606920000000  0.4546480000000 1.0
C      1  0.4822480000000  0.4680730000000  0.5659870000000 1.0
C      1  0.5593520000000  0.5498790000000  0.4867080000000 1.0
C      1  0.5702450000000  0.4850530000000  0.5402560000000 1.0
C      1  0.4712660000000  0.4273420000000  0.5327650000000 1.0
C      1  0.5329790000000  0.4752050000000  0.5299840000000 1.0
C      1  0.4099990000000  0.5532490000000  0.4317020000000 1.0
C      1  0.5222950000000  0.5809620000000  0.5514990000000 1.0
C      1  0.5558930000000  0.5329150000000  0.4452900000000 1.0
C      1  0.5595420000000  0.4589950000000  0.5585630000000 1.0
C      1  0.5305350000000  0.4783870000000  0.4961690000000 1.0
C      1  0.5488150000000  0.4281340000000  0.4813360000000 1.0
C      1  0.5503140000000  0.5769730000000  0.5054700000000 1.0
C      1  0.5303270000000  0.5448270000000  0.5178410000000 1.0
C      1  0.5714150000000  0.4880310000000  0.4707820000000 1.0
C      1  0.5539020000000  0.5000530000000  0.5070380000000 1.0
C      1  0.5062490000000  0.4751230000000  0.4494030000000 1.0
C      1  0.4400700000000  0.5480680000000  0.5467460000000 1.0
C      1  0.4078750000000  0.4734380000000  0.4967730000000 1.0
C      1  0.4304480000000  0.4617230000000  0.4660180000000 1.0
C      1  0.4801110000000  0.4884510000000  0.5905800000000 1.0
C      1  0.5244660000000  0.5038400000000  0.3955560000000 1.0
C      1  0.4767130000000  0.4805270000000  0.5218570000000 1.0
C      1  0.4157360000000  0.4737240000000  0.4377490000000 1.0
C      1  0.5520650000000  0.4987560000000  0.4448050000000 1.0
C      1  0.5402350000000  0.4143390000000  0.5589630000000 1.0
C      1  0.5582720000000  0.4334280000000  0.5472100000000 1.0
C      1  0.5418250000000  0.4984760000000  0.5888370000000 1.0
C      1  0.4731110000000  0.5138570000000  0.4378560000000 1.0
C      1  0.4269420000000  0.5270520000000  0.4969040000000 1.0
C      1  0.5181640000000  0.5253330000000  0.4073310000000 1.0
C      1  0.4255540000000  0.5262940000000  0.5293740000000 1.0
C      1  0.5361960000000  0.5264200000000  0.4828260000000 1.0
C      1  0.4807290000000  0.5463450000000  0.4421820000000 1.0
C      1  0.5817860000000  0.4821070000000  0.5021160000000 1.0
C      1  0.4578410000000  0.4667690000000  0.3974100000000 1.0
C      1  0.4914230000000  0.4293430000000  0.4786200000000 1.0
C      1  0.5102200000000  0.4900950000000  0.4772150000000 1.0
C      1  0.5053360000000  0.5234550000000  0.4352550000000 1.0
C      1  0.4670080000000  0.5543160000000  0.5140040000000 1.0
C      1  0.5160080000000  0.4782070000000  0.4098080000000 1.0
C      1  0.5828670000000  0.5096360000000  0.5224340000000 1.0
C      1  0.5276340000000  0.5865170000000  0.4570360000000 1.0
C      1  0.4883430000000  0.5148610000000  0.4747280000000 1.0
C      1  0.5528680000000  0.4620700000000  0.4796520000000 1.0
C      1  0.4504370000000  0.5083120000000  0.5104820000000 1.0
C      1  0.5019440000000  0.5863800000000  0.4794590000000 1.0
C      1  0.4926200000000  0.4052960000000  0.5277860000000 1.0
C      1  0.4934450000000  0.5733460000000  0.5566700000000 1.0
C      1  0.4641320000000  0.4486410000000  0.5551280000000 1.0
C      1  0.4844630000000  0.5219940000000  0.5871700000000 1.0
C      1  0.5199130000000  0.4106300000000  0.4817050000000 1.0
C      1  0.4891820000000  0.5522830000000  0.5828930000000 1.0
C      1  0.5132370000000  0.4808260000000  0.5875080000000 1.0
C      1  0.4696220000000  0.5490510000000  0.4825880000000 1.0
C      1  0.4922670000000  0.5312670000000  0.5493090000000 1.0
C      1  0.4477070000000  0.4153860000000  0.4599860000000 1.0
C      1  0.4823850000000  0.5758330000000  0.5283460000000 1.0
END
