TITL C-2782228-2999-1252 -0.00272647405238475 125000 -781.627331092236 0 0 134 (C1) n - 1
REM
REM in /home/nfs/bkarasulu/CARBON/AIRSS/Generating-Clusters/REBO/Higher-Symm/SD-CG/HFTN-CG
REM
REM
REM
REM
REM
REM ./C.cell (12c818d87b63d06a65506943cc24bca4)
REM
REM compiler GCC version 9.2.1 20190827 (Red Hat 9.2.1-1)
REM options -cpp -mtune=generic -march=x86-64 -g -O0 -fpre-include=/usr/include/finclude/math-vector-fortran.h
REM seed 148109530 2145318153 -1968012992 -111731609 -1291402966 306950144 1262628505 -1614148757 -706420046 -1875748171 -1461034147 -1267299422 -382007548 -1537638252 -1342798649 -1997468245 -616218754 1567814731 1826907171 -192127963 -1242146984 2042713704 -36153240 -756867107 2126403428 1894533825 -1430972596 -1365408160 173717368 611846645 -312544125 987119509 -1536724824
REM
CELL 1.54180   50.00000   50.00000   50.00000   90.00000   90.00000   90.00000
LATT -1
SFAC C  
C      1  0.4952330000000  0.5688580000000  0.5159190000000 1.0
C      1  0.5251010000000  0.5549120000000  0.5070880000000 1.0
C      1  0.5111890000000  0.5524420000000  0.4760340000000 1.0
C      1  0.4807580000000  0.5673400000000  0.4723410000000 1.0
C      1  0.4678800000000  0.5653860000000  0.5022350000000 1.0
C      1  0.4373060000000  0.5494590000000  0.4413050000000 1.0
C      1  0.4258460000000  0.5483680000000  0.5344230000000 1.0
C      1  0.5145620000000  0.5429120000000  0.6000520000000 1.0
C      1  0.5822110000000  0.5506920000000  0.5158330000000 1.0
C      1  0.5371460000000  0.5501310000000  0.4249600000000 1.0
C      1  0.4944310000000  0.3919620000000  0.5706510000000 1.0
C      1  0.5383160000000  0.3920750000000  0.5250210000000 1.0
C      1  0.5288000000000  0.4073460000000  0.4610200000000 1.0
C      1  0.4621230000000  0.3998770000000  0.4553680000000 1.0
C      1  0.4509100000000  0.4181520000000  0.5221530000000 1.0
C      1  0.4320440000000  0.5244600000000  0.4276970000000 1.0
C      1  0.4159440000000  0.5214130000000  0.5346830000000 1.0
C      1  0.5113260000000  0.5115920000000  0.6069950000000 1.0
C      1  0.6001620000000  0.5285280000000  0.5169810000000 1.0
C      1  0.5480570000000  0.5255570000000  0.4140870000000 1.0
C      1  0.5266860000000  0.4645300000000  0.4912970000000 1.0
C      1  0.4981410000000  0.4630880000000  0.4727510000000 1.0
C      1  0.4743700000000  0.4594860000000  0.4961890000000 1.0
C      1  0.4876530000000  0.4662320000000  0.5252430000000 1.0
C      1  0.5197020000000  0.4648010000000  0.5223740000000 1.0
C      1  0.5433470000000  0.5814480000000  0.5103560000000 1.0
C      1  0.5236010000000  0.6073590000000  0.4740160000000 1.0
C      1  0.4854650000000  0.5972600000000  0.4675220000000 1.0
C      1  0.4728730000000  0.6234900000000  0.5100320000000 1.0
C      1  0.5006690000000  0.5991480000000  0.5250900000000 1.0
C      1  0.5001690000000  0.5232120000000  0.5780210000000 1.0
C      1  0.5522430000000  0.5443250000000  0.5256840000000 1.0
C      1  0.5342160000000  0.5508800000000  0.4534040000000 1.0
C      1  0.4641200000000  0.5537960000000  0.4494660000000 1.0
C      1  0.4423010000000  0.5582220000000  0.5106300000000 1.0
C      1  0.5420300000000  0.4647310000000  0.5484710000000 1.0
C      1  0.5598350000000  0.4647310000000  0.4836760000000 1.0
C      1  0.4911960000000  0.4582920000000  0.4396980000000 1.0
C      1  0.4429300000000  0.4648710000000  0.4843890000000 1.0
C      1  0.4722300000000  0.4562250000000  0.5515770000000 1.0
C      1  0.5852140000000  0.4772130000000  0.4672780000000 1.0
C      1  0.5030720000000  0.4667150000000  0.4141000000000 1.0
C      1  0.4175610000000  0.4706210000000  0.4735900000000 1.0
C      1  0.4464870000000  0.4624090000000  0.5643570000000 1.0
C      1  0.5581480000000  0.4702440000000  0.5738680000000 1.0
C      1  0.5021250000000  0.4474020000000  0.3943810000000 1.0
C      1  0.3968150000000  0.4542920000000  0.4811690000000 1.0
C      1  0.4362260000000  0.4425350000000  0.5804110000000 1.0
C      1  0.5859120000000  0.4707240000000  0.5688080000000 1.0
C      1  0.5945720000000  0.4628690000000  0.4454320000000 1.0
C      1  0.5995980000000  0.5023530000000  0.5055650000000 1.0
C      1  0.5405070000000  0.4980900000000  0.4127290000000 1.0
C      1  0.4272920000000  0.4970040000000  0.4334240000000 1.0
C      1  0.4185870000000  0.4936430000000  0.5399060000000 1.0
C      1  0.5236720000000  0.4865850000000  0.6030070000000 1.0
C      1  0.4441940000000  0.4432040000000  0.5094900000000 1.0
C      1  0.4912290000000  0.4450450000000  0.5706010000000 1.0
C      1  0.5561080000000  0.4407070000000  0.5302120000000 1.0
C      1  0.5553100000000  0.4520450000000  0.4541990000000 1.0
C      1  0.4641640000000  0.4485840000000  0.4354330000000 1.0
C      1  0.5846680000000  0.5641650000000  0.4909910000000 1.0
C      1  0.5160610000000  0.5598730000000  0.4087910000000 1.0
C      1  0.4146680000000  0.5586900000000  0.4556810000000 1.0
C      1  0.4347610000000  0.5558420000000  0.5603940000000 1.0
C      1  0.5384890000000  0.5552260000000  0.5921800000000 1.0
C      1  0.5448210000000  0.4273390000000  0.4530450000000 1.0
C      1  0.4581260000000  0.4221420000000  0.4409400000000 1.0
C      1  0.4435550000000  0.4138850000000  0.5480450000000 1.0
C      1  0.4924220000000  0.4181050000000  0.5766180000000 1.0
C      1  0.5522620000000  0.4149360000000  0.5273670000000 1.0
C      1  0.4877460000000  0.4928490000000  0.4592780000000 1.0
C      1  0.4651270000000  0.4971860000000  0.5055410000000 1.0
C      1  0.4979060000000  0.4952610000000  0.5361430000000 1.0
C      1  0.5406930000000  0.4910590000000  0.5268510000000 1.0
C      1  0.5233300000000  0.4936820000000  0.4774280000000 1.0
C      1  0.4508720000000  0.4808580000000  0.5204720000000 1.0
C      1  0.5079910000000  0.4952280000000  0.5633170000000 1.0
C      1  0.5634340000000  0.4685010000000  0.5150150000000 1.0
C      1  0.5234710000000  0.4878510000000  0.4468280000000 1.0
C      1  0.4643910000000  0.4875210000000  0.4445720000000 1.0
C      1  0.4009780000000  0.5095840000000  0.4997690000000 1.0
C      1  0.4689790000000  0.4993880000000  0.5707380000000 1.0
C      1  0.5886210000000  0.5169790000000  0.5533710000000 1.0
C      1  0.5719940000000  0.5168080000000  0.4447970000000 1.0
C      1  0.4680080000000  0.5134190000000  0.4143660000000 1.0
C      1  0.5317450000000  0.5969110000000  0.5307210000000 1.0
C      1  0.5466340000000  0.5952390000000  0.4854350000000 1.0
C      1  0.5113220000000  0.6044000000000  0.4473220000000 1.0
C      1  0.4636510000000  0.6163180000000  0.4827450000000 1.0
C      1  0.4748010000000  0.6159080000000  0.5385650000000 1.0
C      1  0.4106540000000  0.4927560000000  0.4558000000000 1.0
C      1  0.4312030000000  0.4879450000000  0.5645920000000 1.0
C      1  0.5503550000000  0.4880310000000  0.5946550000000 1.0
C      1  0.5987480000000  0.5005460000000  0.4774260000000 1.0
C      1  0.5137720000000  0.4928210000000  0.4047880000000 1.0
C      1  0.5548920000000  0.5334630000000  0.4657660000000 1.0
C      1  0.4822390000000  0.5343620000000  0.4340270000000 1.0
C      1  0.4225240000000  0.5338900000000  0.4973070000000 1.0
C      1  0.4762360000000  0.5283120000000  0.5576430000000 1.0
C      1  0.5679810000000  0.5366860000000  0.5545560000000 1.0
C      1  0.4769140000000  0.4800280000000  0.5833780000000 1.0
C      1  0.5940390000000  0.4893350000000  0.5493470000000 1.0
C      1  0.5747130000000  0.4952520000000  0.4331330000000 1.0
C      1  0.4561500000000  0.4937490000000  0.4059430000000 1.0
C      1  0.3993110000000  0.4856510000000  0.5058350000000 1.0
C      1  0.5509430000000  0.4743870000000  0.4340300000000 1.0
C      1  0.4440590000000  0.4700690000000  0.4242340000000 1.0
C      1  0.4214840000000  0.4668790000000  0.5190530000000 1.0
C      1  0.5070410000000  0.4684020000000  0.5842680000000 1.0
C      1  0.5904400000000  0.4818810000000  0.5223460000000 1.0
C      1  0.5013740000000  0.3752620000000  0.5504780000000 1.0
C      1  0.5131670000000  0.3796570000000  0.5254120000000 1.0
C      1  0.5119190000000  0.3929640000000  0.4756950000000 1.0
C      1  0.4716910000000  0.3903280000000  0.4789210000000 1.0
C      1  0.4665180000000  0.4003600000000  0.5081990000000 1.0
C      1  0.5583890000000  0.5384200000000  0.5811410000000 1.0
C      1  0.5837370000000  0.5463680000000  0.4688700000000 1.0
C      1  0.4959140000000  0.5403870000000  0.4061680000000 1.0
C      1  0.4035660000000  0.5391890000000  0.4730220000000 1.0
C      1  0.4486690000000  0.5345560000000  0.5730320000000 1.0
C      1  0.4328310000000  0.5116410000000  0.5815640000000 1.0
C      1  0.5625190000000  0.5138590000000  0.5957050000000 1.0
C      1  0.6043990000000  0.5263850000000  0.4657830000000 1.0
C      1  0.5013310000000  0.5155950000000  0.3925140000000 1.0
C      1  0.3934440000000  0.5151210000000  0.4610800000000 1.0
C      1  0.4867680000000  0.5222020000000  0.5279700000000 1.0
C      1  0.5432720000000  0.5170970000000  0.5136840000000 1.0
C      1  0.5422340000000  0.5153150000000  0.4862240000000 1.0
C      1  0.4936920000000  0.5260940000000  0.4633690000000 1.0
C      1  0.4517400000000  0.5225210000000  0.4961370000000 1.0
C      1  0.4958300000000  0.3845910000000  0.5021230000000 1.0
C      1  0.4849150000000  0.5301480000000  0.4960750000000 1.0
C      1  0.4940210000000  0.4979390000000  0.4916030000000 1.0
C      1  0.5013120000000  0.6133740000000  0.4948480000000 1.0
END
