TITL C-2782231-7322-747 -0.00176246944515422 125000 -983.141622911445 0 0 164 (C1) n - 1
REM
REM in /home/nfs/bkarasulu/CARBON/AIRSS/Generating-Clusters/REBO/Higher-Symm/SD-CG/HFTN-CG
REM
REM
REM
REM
REM
REM ./C.cell (12c818d87b63d06a65506943cc24bca4)
REM
REM compiler GCC version 9.2.1 20190827 (Red Hat 9.2.1-1)
REM options -cpp -mtune=generic -march=x86-64 -g -O0 -fpre-include=/usr/include/finclude/math-vector-fortran.h
REM seed 1262903458 -1593626477 -139670825 1209844813 -587190236 1291103448 -489862425 -1791602018 450279224 -1861043063 -455632672 1424606592 2068221335 1076535731 -910100538 -951458407 1595966454 -376116316 2141919179 1598052300 943371313 1925752476 -1776484970 -769847670 224487308 1484759545 1363070931 2044488907 2107059961 -1685509316 -828503578 1214738270 735097471
REM
CELL 1.54180   50.00000   50.00000   50.00000   90.00000   90.00000   90.00000
LATT -1
SFAC C  
C      1  0.5033140000000  0.5404380000000  0.4085690000000 1.0
C      1  0.5041750000000  0.4230620000000  0.4325950000000 1.0
C      1  0.5034990000000  0.4160670000000  0.5524900000000 1.0
C      1  0.5040030000000  0.5252350000000  0.5976380000000 1.0
C      1  0.5016930000000  0.6054400000000  0.5096720000000 1.0
C      1  0.4590780000000  0.4420320000000  0.5057080000000 1.0
C      1  0.4611050000000  0.4919330000000  0.5505720000000 1.0
C      1  0.4677980000000  0.5533790000000  0.5276280000000 1.0
C      1  0.4666380000000  0.5459330000000  0.4614760000000 1.0
C      1  0.4705190000000  0.4809670000000  0.4433740000000 1.0
C      1  0.5712830000000  0.4885990000000  0.5378640000000 1.0
C      1  0.5659400000000  0.5260420000000  0.5251890000000 1.0
C      1  0.5766720000000  0.5268900000000  0.4868590000000 1.0
C      1  0.5701280000000  0.4892900000000  0.4756380000000 1.0
C      1  0.5756940000000  0.4520990000000  0.4891390000000 1.0
C      1  0.4253630000000  0.4873840000000  0.5671720000000 1.0
C      1  0.4307630000000  0.5636970000000  0.5385910000000 1.0
C      1  0.4305710000000  0.5605930000000  0.4523400000000 1.0
C      1  0.4217180000000  0.4755810000000  0.4269680000000 1.0
C      1  0.4245320000000  0.4226290000000  0.5101530000000 1.0
C      1  0.4742810000000  0.5067130000000  0.4632390000000 1.0
C      1  0.4726790000000  0.4583110000000  0.4846630000000 1.0
C      1  0.4628430000000  0.4687490000000  0.5351850000000 1.0
C      1  0.4730030000000  0.5229460000000  0.5286110000000 1.0
C      1  0.4750120000000  0.5406720000000  0.4904400000000 1.0
C      1  0.4945880000000  0.4017770000000  0.4793810000000 1.0
C      1  0.4929930000000  0.4527860000000  0.5849230000000 1.0
C      1  0.4936010000000  0.5660250000000  0.5693530000000 1.0
C      1  0.4932160000000  0.5915630000000  0.4607150000000 1.0
C      1  0.4898450000000  0.4907840000000  0.4071120000000 1.0
C      1  0.4667250000000  0.5719560000000  0.5538630000000 1.0
C      1  0.4668520000000  0.5772410000000  0.4501640000000 1.0
C      1  0.4599760000000  0.4767080000000  0.4141510000000 1.0
C      1  0.4667330000000  0.4112570000000  0.4911540000000 1.0
C      1  0.4644260000000  0.4646540000000  0.5907840000000 1.0
C      1  0.5081640000000  0.3892190000000  0.5064040000000 1.0
C      1  0.5085260000000  0.4736220000000  0.6055640000000 1.0
C      1  0.5080070000000  0.5933810000000  0.5584810000000 1.0
C      1  0.5083600000000  0.5869670000000  0.4313410000000 1.0
C      1  0.5030990000000  0.4620640000000  0.4002130000000 1.0
C      1  0.5717960000000  0.5320050000000  0.5641530000000 1.0
C      1  0.5637240000000  0.5729840000000  0.4940370000000 1.0
C      1  0.5830340000000  0.5094310000000  0.4286540000000 1.0
C      1  0.5801710000000  0.4295450000000  0.4691790000000 1.0
C      1  0.5786770000000  0.4531110000000  0.5546520000000 1.0
C      1  0.4360030000000  0.4964670000000  0.4094680000000 1.0
C      1  0.4384300000000  0.4215820000000  0.4783800000000 1.0
C      1  0.4439200000000  0.4591100000000  0.5711740000000 1.0
C      1  0.4423860000000  0.5570480000000  0.5663990000000 1.0
C      1  0.4430350000000  0.5814690000000  0.4706270000000 1.0
C      1  0.5418790000000  0.4933680000000  0.4681920000000 1.0
C      1  0.5480710000000  0.4592420000000  0.4901340000000 1.0
C      1  0.5444330000000  0.4818030000000  0.5330720000000 1.0
C      1  0.5461480000000  0.5249770000000  0.5469140000000 1.0
C      1  0.5544800000000  0.5454570000000  0.4922650000000 1.0
C      1  0.4834350000000  0.4135800000000  0.4505000000000 1.0
C      1  0.4811840000000  0.4284190000000  0.5662260000000 1.0
C      1  0.4824770000000  0.5413030000000  0.5879730000000 1.0
C      1  0.4813510000000  0.6000000000000  0.4909030000000 1.0
C      1  0.4810370000000  0.5218280000000  0.4070730000000 1.0
C      1  0.5497550000000  0.5877390000000  0.4718950000000 1.0
C      1  0.5576260000000  0.5024090000000  0.4177750000000 1.0
C      1  0.5544620000000  0.4160300000000  0.4699910000000 1.0
C      1  0.5517620000000  0.4562650000000  0.5630580000000 1.0
C      1  0.5525630000000  0.5566040000000  0.5702700000000 1.0
C      1  0.4120610000000  0.5061950000000  0.5416940000000 1.0
C      1  0.4210430000000  0.5421330000000  0.4956900000000 1.0
C      1  0.4183130000000  0.5136880000000  0.4556910000000 1.0
C      1  0.4274700000000  0.4707110000000  0.4721270000000 1.0
C      1  0.4050690000000  0.4497880000000  0.5169570000000 1.0
C      1  0.5182500000000  0.4357100000000  0.5025040000000 1.0
C      1  0.5103360000000  0.4839280000000  0.5670250000000 1.0
C      1  0.5212680000000  0.5534800000000  0.5344000000000 1.0
C      1  0.5216590000000  0.5496140000000  0.4655220000000 1.0
C      1  0.5227160000000  0.4789990000000  0.4362910000000 1.0
C      1  0.5889570000000  0.5097170000000  0.5566280000000 1.0
C      1  0.5834720000000  0.5720940000000  0.5146050000000 1.0
C      1  0.6009430000000  0.5131430000000  0.4491270000000 1.0
C      1  0.5957130000000  0.4504050000000  0.4545660000000 1.0
C      1  0.5949910000000  0.4568100000000  0.5330350000000 1.0
C      1  0.5321280000000  0.5966260000000  0.5000720000000 1.0
C      1  0.5340710000000  0.5269700000000  0.4152870000000 1.0
C      1  0.5354840000000  0.4253910000000  0.4443350000000 1.0
C      1  0.5314460000000  0.4342770000000  0.5499720000000 1.0
C      1  0.5335040000000  0.5317780000000  0.5840250000000 1.0
C      1  0.5272920000000  0.4656940000000  0.4674700000000 1.0
C      1  0.5357630000000  0.4609440000000  0.5171220000000 1.0
C      1  0.5252760000000  0.5034030000000  0.5451150000000 1.0
C      1  0.5288550000000  0.5364390000000  0.5075620000000 1.0
C      1  0.5242840000000  0.5183360000000  0.4724150000000 1.0
C      1  0.4949650000000  0.5493550000000  0.4471220000000 1.0
C      1  0.4959380000000  0.4650240000000  0.4438380000000 1.0
C      1  0.4906480000000  0.4336440000000  0.5139470000000 1.0
C      1  0.4818140000000  0.4966880000000  0.5719930000000 1.0
C      1  0.4952770000000  0.5696190000000  0.5263980000000 1.0
C      1  0.4449640000000  0.5866210000000  0.5237390000000 1.0
C      1  0.4436860000000  0.5549900000000  0.4263370000000 1.0
C      1  0.4336360000000  0.4497570000000  0.4298370000000 1.0
C      1  0.4442260000000  0.4191670000000  0.5348600000000 1.0
C      1  0.4442450000000  0.5091680000000  0.5852500000000 1.0
C      1  0.5411070000000  0.4805170000000  0.5738110000000 1.0
C      1  0.5439140000000  0.5703930000000  0.5454700000000 1.0
C      1  0.5426360000000  0.5677100000000  0.4515060000000 1.0
C      1  0.5485300000000  0.4746350000000  0.4221540000000 1.0
C      1  0.5440580000000  0.4151830000000  0.4965680000000 1.0
C      1  0.5476440000000  0.5552350000000  0.4271000000000 1.0
C      1  0.5526540000000  0.4470400000000  0.4262290000000 1.0
C      1  0.5461050000000  0.4190680000000  0.5257340000000 1.0
C      1  0.5502460000000  0.5045670000000  0.5836940000000 1.0
C      1  0.5488810000000  0.5905520000000  0.5271060000000 1.0
C      1  0.5071600000000  0.4558640000000  0.5539040000000 1.0
C      1  0.5111590000000  0.5390090000000  0.5603030000000 1.0
C      1  0.5126080000000  0.5769300000000  0.4816890000000 1.0
C      1  0.5114500000000  0.5061950000000  0.4275080000000 1.0
C      1  0.5156290000000  0.4254990000000  0.4707350000000 1.0
C      1  0.6004130000000  0.5150940000000  0.4775460000000 1.0
C      1  0.5898650000000  0.4765990000000  0.4609220000000 1.0
C      1  0.5950820000000  0.4650350000000  0.5058290000000 1.0
C      1  0.6004200000000  0.4977690000000  0.5279360000000 1.0
C      1  0.5852940000000  0.5468900000000  0.5264340000000 1.0
C      1  0.5014180000000  0.5533550000000  0.4996810000000 1.0
C      1  0.5002200000000  0.5186560000000  0.4523560000000 1.0
C      1  0.4983970000000  0.4521510000000  0.4719820000000 1.0
C      1  0.4909240000000  0.4608870000000  0.5286730000000 1.0
C      1  0.4940500000000  0.5153540000000  0.5487920000000 1.0
C      1  0.4533520000000  0.5361760000000  0.5826950000000 1.0
C      1  0.4532520000000  0.5912370000000  0.4953930000000 1.0
C      1  0.4506240000000  0.5241040000000  0.4170030000000 1.0
C      1  0.4526380000000  0.4278580000000  0.4481190000000 1.0
C      1  0.4525100000000  0.4343990000000  0.5577910000000 1.0
C      1  0.4434330000000  0.5147170000000  0.5393520000000 1.0
C      1  0.4478860000000  0.5524720000000  0.5035450000000 1.0
C      1  0.4485710000000  0.5229270000000  0.4494470000000 1.0
C      1  0.4548980000000  0.4722620000000  0.4685700000000 1.0
C      1  0.4377840000000  0.4585680000000  0.5212250000000 1.0
C      1  0.4972370000000  0.4997170000000  0.6085400000000 1.0
C      1  0.4934610000000  0.6078590000000  0.5373050000000 1.0
C      1  0.4954330000000  0.5683910000000  0.4121790000000 1.0
C      1  0.4931260000000  0.4397800000000  0.4130960000000 1.0
C      1  0.4974240000000  0.3982350000000  0.5309040000000 1.0
C      1  0.4664180000000  0.4935600000000  0.6016210000000 1.0
C      1  0.4653040000000  0.6010370000000  0.5418870000000 1.0
C      1  0.4670280000000  0.5724180000000  0.4189930000000 1.0
C      1  0.4640920000000  0.4438890000000  0.4196610000000 1.0
C      1  0.4688760000000  0.4074480000000  0.5227160000000 1.0
C      1  0.4175770000000  0.5402000000000  0.4679130000000 1.0
C      1  0.4139000000000  0.4862880000000  0.4527070000000 1.0
C      1  0.4187600000000  0.4468110000000  0.4863770000000 1.0
C      1  0.4125940000000  0.4732680000000  0.5387680000000 1.0
C      1  0.4202760000000  0.5359510000000  0.5271580000000 1.0
C      1  0.5574050000000  0.5052620000000  0.5029210000000 1.0
C      1  0.4182140000000  0.4926360000000  0.5042490000000 1.0
C      1  0.4994860000000  0.4874470000000  0.5091730000000 1.0
C      1  0.5247780000000  0.5036990000000  0.5028920000000 1.0
C      1  0.3391810000000  0.4858990000000  0.5137980000000 1.0
C      1  0.3918690000000  0.4903900000000  0.5074320000000 1.0
C      1  0.6110720000000  0.4934170000000  0.4979570000000 1.0
C      1  0.4443720000000  0.4948680000000  0.5010890000000 1.0
C      1  0.4743050000000  0.5072580000000  0.4976270000000 1.0
C      1  0.6411800000000  0.4891910000000  0.4951320000000 1.0
C      1  0.6672030000000  0.4855380000000  0.4926910000000 1.0
C      1  0.3132550000000  0.4836890000000  0.5169310000000 1.0
C      1  0.3655250000000  0.4881450000000  0.5106150000000 1.0
C      1  0.6930450000000  0.4819110000000  0.4902660000000 1.0
END
