TITL C-2782231-7322-1119 0.000607880495800071 125000 -102.674861874667 0 0 20 (C5) n - 1
REM
REM in /home/nfs/bkarasulu/CARBON/AIRSS/Generating-Clusters/REBO/Higher-Symm/SD-CG/HFTN-CG
REM
REM
REM
REM
REM
REM ./C.cell (12c818d87b63d06a65506943cc24bca4)
REM
REM compiler GCC version 9.2.1 20190827 (Red Hat 9.2.1-1)
REM options -cpp -mtune=generic -march=x86-64 -g -O0 -fpre-include=/usr/include/finclude/math-vector-fortran.h
REM seed -20011635 -779027037 1594533744 -387423994 1074162446 -353499456 1760815694 1973533630 420297033 -1035950139 -812632064 -1140333389 -2093321940 1443936653 -937252534 -831602791 252563171 1121113350 1028335026 -852063464 173118421 229028850 862901710 67809320 851241415 2045259780 1144751752 1746129254 -2140744989 90923973 -1054651540 -80684812 1293321528
REM
CELL 1.54180   50.00000   50.00000   50.00000   90.00000   90.00000   90.00000
LATT -1
SFAC C  
C      1  0.5173640000000  0.5519440000000  0.4963570000000 1.0
C      1  0.5545960000000  0.4993480000000  0.4943580000000 1.0
C      1  0.5161850000000  0.4476350000000  0.4970130000000 1.0
C      1  0.4552130000000  0.4682710000000  0.5006530000000 1.0
C      1  0.4559420000000  0.5327380000000  0.5002480000000 1.0
C      1  0.4867600000000  0.5486360000000  0.4995950000000 1.0
C      1  0.5420380000000  0.5275700000000  0.4963080000000 1.0
C      1  0.5391410000000  0.4683960000000  0.4968170000000 1.0
C      1  0.4820720000000  0.4528900000000  0.5004190000000 1.0
C      1  0.4496980000000  0.5024810000000  0.5021360000000 1.0
C      1  0.5045940000000  0.4734120000000  0.5160150000000 1.0
C      1  0.4767810000000  0.4884210000000  0.5176440000000 1.0
C      1  0.4824250000000  0.5195560000000  0.5171230000000 1.0
C      1  0.5137260000000  0.5237890000000  0.5151710000000 1.0
C      1  0.5274280000000  0.4952710000000  0.5144860000000 1.0
C      1  0.5466420000000  0.5573190000000  0.4838890000000 1.0
C      1  0.5683600000000  0.4724460000000  0.4830250000000 1.0
C      1  0.4945120000000  0.4255530000000  0.4878360000000 1.0
C      1  0.4271520000000  0.4814430000000  0.4916730000000 1.0
C      1  0.4593700000000  0.5628790000000  0.4892330000000 1.0
END
