TITL C-2782234-8014-13 0.000264747262625388 125000 -122.591561655708 0 0 21 (C1) n - 1
REM
REM in /home/nfs/bkarasulu/CARBON/AIRSS/Generating-Clusters/REBO/Higher-Symm/SD-CG/HFTN-CG
REM
REM
REM
REM
REM
REM ./C.cell (12c818d87b63d06a65506943cc24bca4)
REM
REM compiler GCC version 9.2.1 20190827 (Red Hat 9.2.1-1)
REM options -cpp -mtune=generic -march=x86-64 -g -O0 -fpre-include=/usr/include/finclude/math-vector-fortran.h
REM seed -2104334917 868379161 -1630091569 -129616061 999070263 -1487910131 827253969 694712360 755959223 -442316963 1448346346 2111043164 2056233797 -1340981357 -1382172316 -1053251233 -574558898 -1283265604 -197102431 422767033 614946852 951695559 -598381333 1964274330 279301295 720818192 -757184826 -1035501655 -352637746 -1672447335 1081328068 -1336571656 -549188977
REM
CELL 1.54180   50.00000   50.00000   50.00000   90.00000   90.00000   90.00000
LATT -1
SFAC C  
C      1  0.5545770000000  0.5234460000000  0.5195020000000 1.0
C      1  0.4882930000000  0.5503940000000  0.5331750000000 1.0
C      1  0.4554640000000  0.5012170000000  0.5222890000000 1.0
C      1  0.4968600000000  0.4501120000000  0.5173340000000 1.0
C      1  0.5552640000000  0.4919650000000  0.4816510000000 1.0
C      1  0.4841770000000  0.5395040000000  0.4873780000000 1.0
C      1  0.4556530000000  0.4863070000000  0.4735920000000 1.0
C      1  0.5024920000000  0.4454740000000  0.4690610000000 1.0
C      1  0.5275770000000  0.5198960000000  0.5258860000000 1.0
C      1  0.4994250000000  0.5243150000000  0.5363090000000 1.0
C      1  0.4821020000000  0.5012390000000  0.5324960000000 1.0
C      1  0.4977210000000  0.4768310000000  0.5243900000000 1.0
C      1  0.5277460000000  0.4858630000000  0.4820920000000 1.0
C      1  0.4931360000000  0.5131270000000  0.4853330000000 1.0
C      1  0.4832160000000  0.4915910000000  0.4684170000000 1.0
C      1  0.5064330000000  0.4735390000000  0.4657930000000 1.0
C      1  0.4982900000000  0.4352640000000  0.4943710000000 1.0
C      1  0.5672430000000  0.5098690000000  0.4990010000000 1.0
C      1  0.4808270000000  0.5577690000000  0.5075970000000 1.0
C      1  0.4449360000000  0.4929100000000  0.4982640000000 1.0
C      1  0.5127160000000  0.4995500000000  0.5068570000000 1.0
END
