TITL C-2782230-7391-195 -0.00358086716668234 125000 -323.987588647128 0 0 58 (C1) n - 1
REM
REM in /home/nfs/bkarasulu/CARBON/AIRSS/Generating-Clusters/REBO/Higher-Symm/SD-CG/HFTN-CG
REM
REM
REM
REM
REM
REM ./C.cell (12c818d87b63d06a65506943cc24bca4)
REM
REM compiler GCC version 9.2.1 20190827 (Red Hat 9.2.1-1)
REM options -cpp -mtune=generic -march=x86-64 -g -O0 -fpre-include=/usr/include/finclude/math-vector-fortran.h
REM seed 1978383866 671528642 1451786060 460207911 545181225 750078640 1421796158 116890796 585827601 1944727422 1689745397 -49740831 -390706379 -381042038 -2034606247 1512778561 -897383642 -1025801468 1657821579 -1635036597 -12033902 388928410 1460048444 -535342618 504619738 225644855 -450076960 -587413916 84668940 -1619226958 -407422656 -1501339442 179375330
REM
CELL 1.54180   50.00000   50.00000   50.00000   90.00000   90.00000   90.00000
LATT -1
SFAC C  
C      1  0.4813400000000  0.5182210000000  0.5613070000000 1.0
C      1  0.4852890000000  0.5617040000000  0.4766420000000 1.0
C      1  0.4595850000000  0.5427870000000  0.4709510000000 1.0
C      1  0.5169660000000  0.5562480000000  0.5496580000000 1.0
C      1  0.4916430000000  0.5061050000000  0.5356450000000 1.0
C      1  0.5504180000000  0.3963190000000  0.4813350000000 1.0
C      1  0.5288350000000  0.5007030000000  0.4361220000000 1.0
C      1  0.5016330000000  0.4781790000000  0.5263570000000 1.0
C      1  0.4260890000000  0.4885230000000  0.5314180000000 1.0
C      1  0.4723520000000  0.5425850000000  0.5019780000000 1.0
C      1  0.4466910000000  0.5284270000000  0.5290760000000 1.0
C      1  0.4848060000000  0.5016920000000  0.4646830000000 1.0
C      1  0.5151330000000  0.4740080000000  0.4450730000000 1.0
C      1  0.5138620000000  0.4622540000000  0.4700420000000 1.0
C      1  0.5014330000000  0.4376210000000  0.4750340000000 1.0
C      1  0.5441850000000  0.4592580000000  0.5178200000000 1.0
C      1  0.4547760000000  0.5396410000000  0.5603330000000 1.0
C      1  0.5214440000000  0.5139770000000  0.5265760000000 1.0
C      1  0.5142170000000  0.5495230000000  0.4681560000000 1.0
C      1  0.5433110000000  0.5370940000000  0.4667940000000 1.0
C      1  0.5382950000000  0.4927740000000  0.5205790000000 1.0
C      1  0.5486600000000  0.5110990000000  0.4530420000000 1.0
C      1  0.4708720000000  0.4413890000000  0.4823870000000 1.0
C      1  0.5255980000000  0.5064680000000  0.4853820000000 1.0
C      1  0.5099600000000  0.4816020000000  0.4946570000000 1.0
C      1  0.5495860000000  0.5860410000000  0.5803050000000 1.0
C      1  0.4867340000000  0.5513390000000  0.5567330000000 1.0
C      1  0.5336860000000  0.5715190000000  0.5653670000000 1.0
C      1  0.5081780000000  0.5181830000000  0.4658940000000 1.0
C      1  0.4865020000000  0.5634690000000  0.5248140000000 1.0
C      1  0.4756290000000  0.4783310000000  0.4450600000000 1.0
C      1  0.5619210000000  0.4495820000000  0.5373870000000 1.0
C      1  0.4621780000000  0.4693500000000  0.4737600000000 1.0
C      1  0.4847600000000  0.4518420000000  0.5317600000000 1.0
C      1  0.5261730000000  0.4370840000000  0.5062790000000 1.0
C      1  0.4704410000000  0.5128940000000  0.5139950000000 1.0
C      1  0.4271100000000  0.4890070000000  0.5045370000000 1.0
C      1  0.5555190000000  0.4821240000000  0.4958680000000 1.0
C      1  0.5622740000000  0.3763830000000  0.4691360000000 1.0
C      1  0.5610190000000  0.4921610000000  0.4707750000000 1.0
C      1  0.5494140000000  0.5224030000000  0.4942220000000 1.0
C      1  0.5191000000000  0.4635460000000  0.5485720000000 1.0
C      1  0.4553800000000  0.5600530000000  0.5336070000000 1.0
C      1  0.5675820000000  0.5233000000000  0.5136730000000 1.0
C      1  0.5091430000000  0.5581400000000  0.5006750000000 1.0
C      1  0.4399570000000  0.4911300000000  0.4798360000000 1.0
C      1  0.5231450000000  0.5428940000000  0.5249820000000 1.0
C      1  0.4359400000000  0.4919750000000  0.5562680000000 1.0
C      1  0.4613520000000  0.5269110000000  0.4415200000000 1.0
C      1  0.4965980000000  0.4967100000000  0.4268810000000 1.0
C      1  0.4859720000000  0.5378910000000  0.4004700000000 1.0
C      1  0.4437890000000  0.5142820000000  0.4652950000000 1.0
C      1  0.4771880000000  0.4914410000000  0.4943510000000 1.0
C      1  0.4803730000000  0.5217290000000  0.4221370000000 1.0
C      1  0.4685660000000  0.4463760000000  0.5514920000000 1.0
C      1  0.4930890000000  0.4356970000000  0.5076890000000 1.0
C      1  0.4559380000000  0.5014330000000  0.5718820000000 1.0
C      1  0.5383690000000  0.4165770000000  0.4937310000000 1.0
END
