TITL C-2782231-7322-1323 -0.00890941819196173 125000 -233.407887850408 0 0 41 (C1) n - 1
REM
REM in /home/nfs/bkarasulu/CARBON/AIRSS/Generating-Clusters/REBO/Higher-Symm/SD-CG/HFTN-CG
REM
REM
REM
REM
REM
REM ./C.cell (12c818d87b63d06a65506943cc24bca4)
REM
REM compiler GCC version 9.2.1 20190827 (Red Hat 9.2.1-1)
REM options -cpp -mtune=generic -march=x86-64 -g -O0 -fpre-include=/usr/include/finclude/math-vector-fortran.h
REM seed -827588580 1277697769 194604991 -1952918773 -1658579876 -1400185801 -324647201 -1662192343 735127007 -1062984546 1356089559 968143753 1283248159 1488012669 -1183929200 -2119976204 -1698460808 -1142105980 -595367569 626904615 -992702642 -1409502661 362969876 1208512768 1280282575 1759411441 1064613334 167329601 -1927402889 617093572 1980474629 -802630837 -2025330848
REM
CELL 1.54180   50.00000   50.00000   50.00000   90.00000   90.00000   90.00000
LATT -1
SFAC C  
C      1  0.5447320000000  0.5082220000000  0.5403060000000 1.0
C      1  0.4424320000000  0.5094100000000  0.5195180000000 1.0
C      1  0.5116200000000  0.5082700000000  0.4413120000000 1.0
C      1  0.4529950000000  0.4934690000000  0.5389140000000 1.0
C      1  0.5559150000000  0.4921410000000  0.5213800000000 1.0
C      1  0.4892820000000  0.4926880000000  0.4410290000000 1.0
C      1  0.5266950000000  0.5836930000000  0.5040880000000 1.0
C      1  0.4833440000000  0.5848430000000  0.5213510000000 1.0
C      1  0.4903650000000  0.5839900000000  0.4754410000000 1.0
C      1  0.4719360000000  0.4176730000000  0.5034990000000 1.0
C      1  0.5141540000000  0.4172210000000  0.5222870000000 1.0
C      1  0.5093120000000  0.4171160000000  0.4763290000000 1.0
C      1  0.4820260000000  0.4614540000000  0.4772050000000 1.0
C      1  0.5277160000000  0.4609630000000  0.4975110000000 1.0
C      1  0.4872850000000  0.4615660000000  0.5269290000000 1.0
C      1  0.5177200000000  0.5397700000000  0.4774680000000 1.0
C      1  0.4713930000000  0.5404090000000  0.4963320000000 1.0
C      1  0.5108590000000  0.5400200000000  0.5269540000000 1.0
C      1  0.4824300000000  0.5510620000000  0.5229780000000 1.0
C      1  0.4891880000000  0.5507040000000  0.4734500000000 1.0
C      1  0.5287030000000  0.5503750000000  0.5041370000000 1.0
C      1  0.5158490000000  0.4505340000000  0.5239750000000 1.0
C      1  0.5106450000000  0.4504200000000  0.4741930000000 1.0
C      1  0.4701370000000  0.4510230000000  0.5035900000000 1.0
C      1  0.5552550000000  0.5716180000000  0.5083160000000 1.0
C      1  0.4689900000000  0.5721200000000  0.5462570000000 1.0
C      1  0.4794100000000  0.5722170000000  0.4486200000000 1.0
C      1  0.4433060000000  0.4298820000000  0.5064890000000 1.0
C      1  0.5313140000000  0.4289410000000  0.5456500000000 1.0
C      1  0.5212190000000  0.4287230000000  0.4498480000000 1.0
C      1  0.5273870000000  0.5181270000000  0.4626380000000 1.0
C      1  0.5185320000000  0.5185280000000  0.5431050000000 1.0
C      1  0.4532500000000  0.5191640000000  0.4952630000000 1.0
C      1  0.4728500000000  0.4829920000000  0.4619200000000 1.0
C      1  0.4790930000000  0.4831960000000  0.5426370000000 1.0
C      1  0.5458860000000  0.4822030000000  0.4968620000000 1.0
C      1  0.5452360000000  0.5000390000000  0.4749680000000 1.0
C      1  0.4546120000000  0.5011640000000  0.4735380000000 1.0
C      1  0.4986540000000  0.5009090000000  0.5527080000000 1.0
C      1  0.5004510000000  0.5935200000000  0.5001370000000 1.0
C      1  0.4983500000000  0.4077470000000  0.5007390000000 1.0
END
