TITL C-2782238-9940-1041 0.000841773189665693 125000 -371.511361274849 0 0 64 (C1) n - 1
REM
REM in /home/nfs/bkarasulu/CARBON/AIRSS/Generating-Clusters/REBO/Higher-Symm/SD-CG/HFTN-CG
REM
REM
REM
REM
REM
REM ./C.cell (12c818d87b63d06a65506943cc24bca4)
REM
REM compiler GCC version 9.2.1 20190827 (Red Hat 9.2.1-1)
REM options -cpp -mtune=generic -march=x86-64 -g -O0 -fpre-include=/usr/include/finclude/math-vector-fortran.h
REM seed 1088945328 -1707483654 -1935723885 -1459436982 396345497 1539108740 -541883294 -335755734 -1976348729 206748940 -1675413094 -96055723 -1266451930 1263792061 -626811496 1713447197 1104729068 910617782 -266548256 403283369 -1117410506 -876103742 1764887673 370857172 -1773122378 390642728 -1120270111 2096456427 -620057832 1782137317 -429133702 833847657 2088667455
REM
CELL 1.54180   50.00000   50.00000   50.00000   90.00000   90.00000   90.00000
LATT -1
SFAC C  
C      1  0.4526910000000  0.5291020000000  0.5522840000000 1.0
C      1  0.5112250000000  0.5297730000000  0.5696890000000 1.0
C      1  0.5621280000000  0.5295450000000  0.5347800000000 1.0
C      1  0.5648260000000  0.5276510000000  0.4726910000000 1.0
C      1  0.5186880000000  0.5309690000000  0.4309240000000 1.0
C      1  0.4580620000000  0.5303100000000  0.4419280000000 1.0
C      1  0.4291500000000  0.5294670000000  0.4959940000000 1.0
C      1  0.5342970000000  0.4537310000000  0.4969570000000 1.0
C      1  0.5214030000000  0.4669810000000  0.4721970000000 1.0
C      1  0.4901500000000  0.4623430000000  0.4674210000000 1.0
C      1  0.4655470000000  0.4609200000000  0.4871820000000 1.0
C      1  0.4706690000000  0.4603780000000  0.5182470000000 1.0
C      1  0.4976070000000  0.4622140000000  0.5356440000000 1.0
C      1  0.5277900000000  0.4640850000000  0.5260360000000 1.0
C      1  0.5186750000000  0.4962150000000  0.5269680000000 1.0
C      1  0.5304950000000  0.5121810000000  0.5027390000000 1.0
C      1  0.5247790000000  0.4992460000000  0.4760660000000 1.0
C      1  0.4962140000000  0.4967830000000  0.4645440000000 1.0
C      1  0.4695250000000  0.4944020000000  0.4790870000000 1.0
C      1  0.4660070000000  0.4938920000000  0.5095960000000 1.0
C      1  0.4875130000000  0.4941370000000  0.5314320000000 1.0
C      1  0.4924580000000  0.5105360000000  0.4383770000000 1.0
C      1  0.4470520000000  0.5095070000000  0.4665470000000 1.0
C      1  0.4421280000000  0.5087450000000  0.5197150000000 1.0
C      1  0.4799530000000  0.5090850000000  0.5562830000000 1.0
C      1  0.5318720000000  0.5097460000000  0.5513860000000 1.0
C      1  0.5633640000000  0.5083510000000  0.5076940000000 1.0
C      1  0.5428370000000  0.5100690000000  0.4546920000000 1.0
C      1  0.5018060000000  0.4996260000000  0.5796100000000 1.0
C      1  0.5633740000000  0.4993380000000  0.5489980000000 1.0
C      1  0.5741370000000  0.4957070000000  0.4802780000000 1.0
C      1  0.5311220000000  0.4997300000000  0.4260350000000 1.0
C      1  0.4627140000000  0.4994820000000  0.4293170000000 1.0
C      1  0.4213740000000  0.4989510000000  0.4846450000000 1.0
C      1  0.4395820000000  0.4985770000000  0.5513040000000 1.0
C      1  0.5403010000000  0.5432090000000  0.4542030000000 1.0
C      1  0.4886610000000  0.5439800000000  0.4405470000000 1.0
C      1  0.4479600000000  0.5429810000000  0.4718880000000 1.0
C      1  0.4458750000000  0.5424410000000  0.5226080000000 1.0
C      1  0.4833270000000  0.5429240000000  0.5570220000000 1.0
C      1  0.5347170000000  0.5435090000000  0.5492760000000 1.0
C      1  0.5586870000000  0.5405480000000  0.5027420000000 1.0
C      1  0.5439510000000  0.4716900000000  0.5530850000000 1.0
C      1  0.5630930000000  0.4690430000000  0.4989110000000 1.0
C      1  0.5370090000000  0.4713450000000  0.4439710000000 1.0
C      1  0.4817020000000  0.4720180000000  0.4367870000000 1.0
C      1  0.4375780000000  0.4711580000000  0.4732680000000 1.0
C      1  0.4424250000000  0.4706600000000  0.5319290000000 1.0
C      1  0.4889610000000  0.4713100000000  0.5656780000000 1.0
C      1  0.5095140000000  0.4741710000000  0.4240640000000 1.0
C      1  0.4484930000000  0.4737860000000  0.4447240000000 1.0
C      1  0.4266000000000  0.4733140000000  0.5056130000000 1.0
C      1  0.4586320000000  0.4732220000000  0.5619230000000 1.0
C      1  0.5220870000000  0.4738850000000  0.5738470000000 1.0
C      1  0.5674840000000  0.4733330000000  0.5283100000000 1.0
C      1  0.5604940000000  0.4702430000000  0.4647680000000 1.0
C      1  0.5182270000000  0.5573380000000  0.5272770000000 1.0
C      1  0.5276730000000  0.5461940000000  0.5015130000000 1.0
C      1  0.5207820000000  0.5564200000000  0.4745250000000 1.0
C      1  0.4936430000000  0.5583150000000  0.4670460000000 1.0
C      1  0.4716320000000  0.5577770000000  0.4844340000000 1.0
C      1  0.4703020000000  0.5577410000000  0.5124840000000 1.0
C      1  0.4904500000000  0.5585090000000  0.5319250000000 1.0
C      1  0.5017630000000  0.4476040000000  0.5006030000000 1.0
END
