TITL C-2782235-7892-479 0.00175018544122871 125000 -1023.87254341837 0 0 176 (C1) n - 1
REM
REM in /home/nfs/bkarasulu/CARBON/AIRSS/Generating-Clusters/REBO/Higher-Symm/SD-CG/HFTN-CG
REM
REM
REM
REM
REM
REM ./C.cell (12c818d87b63d06a65506943cc24bca4)
REM
REM compiler GCC version 9.2.1 20190827 (Red Hat 9.2.1-1)
REM options -cpp -mtune=generic -march=x86-64 -g -O0 -fpre-include=/usr/include/finclude/math-vector-fortran.h
REM seed 761190272 622428758 -742525659 1205449138 125068012 1872309390 -805226954 -793624116 -811561301 -978342435 404198122 -1047368099 -622537180 1034009836 1841286506 935721003 -2005520624 -1173236588 44326405 -951911801 516938193 1077743281 1716515935 -1475505773 1446399064 1066755169 -1980716615 268417167 1910734440 -844476159 -2035584426 -1444107870 -1080836082
REM
CELL 1.54180   50.00000   50.00000   50.00000   90.00000   90.00000   90.00000
LATT -1
SFAC C  
C      1  0.4975450000000  0.5069010000000  0.5985480000000 1.0
C      1  0.4900580000000  0.4984250000000  0.3874160000000 1.0
C      1  0.5982770000000  0.4872700000000  0.4812700000000 1.0
C      1  0.5959260000000  0.4902490000000  0.5153710000000 1.0
C      1  0.5283620000000  0.4366030000000  0.4886080000000 1.0
C      1  0.5313250000000  0.4285740000000  0.5210100000000 1.0
C      1  0.4926450000000  0.4253960000000  0.4303230000000 1.0
C      1  0.4935700000000  0.4193200000000  0.5710610000000 1.0
C      1  0.4638340000000  0.5787120000000  0.5541600000000 1.0
C      1  0.4684420000000  0.5711370000000  0.4436710000000 1.0
C      1  0.4994600000000  0.6188550000000  0.5166380000000 1.0
C      1  0.4969120000000  0.6220840000000  0.4860020000000 1.0
C      1  0.4606650000000  0.4437740000000  0.5201230000000 1.0
C      1  0.4577430000000  0.4527870000000  0.4896810000000 1.0
C      1  0.5397340000000  0.4584510000000  0.4297590000000 1.0
C      1  0.5424700000000  0.4520620000000  0.5645710000000 1.0
C      1  0.5604210000000  0.4826070000000  0.4283940000000 1.0
C      1  0.5644370000000  0.4759030000000  0.5651550000000 1.0
C      1  0.3979980000000  0.4712630000000  0.4552060000000 1.0
C      1  0.3934370000000  0.4679600000000  0.5387670000000 1.0
C      1  0.4230100000000  0.5183030000000  0.5691760000000 1.0
C      1  0.4257090000000  0.5231490000000  0.4334740000000 1.0
C      1  0.6019880000000  0.5184000000000  0.4877610000000 1.0
C      1  0.6034080000000  0.5217330000000  0.5183180000000 1.0
C      1  0.5872330000000  0.4467750000000  0.5447250000000 1.0
C      1  0.5812360000000  0.4481330000000  0.4531010000000 1.0
C      1  0.4492230000000  0.5566980000000  0.4198330000000 1.0
C      1  0.4542010000000  0.5588620000000  0.5785670000000 1.0
C      1  0.5369480000000  0.6015490000000  0.5630570000000 1.0
C      1  0.5345370000000  0.5827760000000  0.4433120000000 1.0
C      1  0.4248700000000  0.5774650000000  0.4735440000000 1.0
C      1  0.4348920000000  0.5640390000000  0.5258290000000 1.0
C      1  0.5218140000000  0.5811610000000  0.5777850000000 1.0
C      1  0.5365710000000  0.5598750000000  0.4180880000000 1.0
C      1  0.4905160000000  0.4791990000000  0.4347480000000 1.0
C      1  0.4957740000000  0.4772670000000  0.5586150000000 1.0
C      1  0.4755850000000  0.4149770000000  0.4866110000000 1.0
C      1  0.4740770000000  0.4066340000000  0.5159720000000 1.0
C      1  0.5538010000000  0.4577120000000  0.4804670000000 1.0
C      1  0.5541240000000  0.4539570000000  0.5235350000000 1.0
C      1  0.4877510000000  0.4599240000000  0.5150060000000 1.0
C      1  0.4871430000000  0.4687280000000  0.4823980000000 1.0
C      1  0.4622510000000  0.4484090000000  0.5936890000000 1.0
C      1  0.4501120000000  0.4479630000000  0.4056450000000 1.0
C      1  0.4513710000000  0.4850550000000  0.4829760000000 1.0
C      1  0.4482590000000  0.4814710000000  0.5168060000000 1.0
C      1  0.5478110000000  0.5108160000000  0.4377210000000 1.0
C      1  0.5466090000000  0.5017940000000  0.5571620000000 1.0
C      1  0.5513050000000  0.5131250000000  0.4887230000000 1.0
C      1  0.5488390000000  0.5182640000000  0.5209410000000 1.0
C      1  0.4612630000000  0.4424970000000  0.5669740000000 1.0
C      1  0.4380540000000  0.4274720000000  0.4189030000000 1.0
C      1  0.5562250000000  0.4193870000000  0.4908570000000 1.0
C      1  0.5601330000000  0.4144580000000  0.5223200000000 1.0
C      1  0.5523820000000  0.5911920000000  0.5345080000000 1.0
C      1  0.5436500000000  0.5842030000000  0.4756610000000 1.0
C      1  0.4504920000000  0.4751060000000  0.4197580000000 1.0
C      1  0.4551240000000  0.4823630000000  0.5738550000000 1.0
C      1  0.4035430000000  0.4918210000000  0.5165760000000 1.0
C      1  0.4075360000000  0.4888760000000  0.4828870000000 1.0
C      1  0.4383160000000  0.4337590000000  0.5448960000000 1.0
C      1  0.4378340000000  0.4238600000000  0.4510550000000 1.0
C      1  0.5311600000000  0.5473030000000  0.5227820000000 1.0
C      1  0.5321320000000  0.5553690000000  0.4912540000000 1.0
C      1  0.4946840000000  0.5165770000000  0.5657330000000 1.0
C      1  0.4997540000000  0.5226980000000  0.4352960000000 1.0
C      1  0.5545110000000  0.4078400000000  0.4455610000000 1.0
C      1  0.5668600000000  0.4040390000000  0.5602050000000 1.0
C      1  0.5172840000000  0.5314590000000  0.6012000000000 1.0
C      1  0.5077600000000  0.5198940000000  0.4025070000000 1.0
C      1  0.5772730000000  0.5359570000000  0.5278480000000 1.0
C      1  0.5752370000000  0.5321240000000  0.4786690000000 1.0
C      1  0.5058750000000  0.4287280000000  0.5954860000000 1.0
C      1  0.5006760000000  0.4338980000000  0.4040620000000 1.0
C      1  0.4085890000000  0.4541530000000  0.4804280000000 1.0
C      1  0.4017330000000  0.4584830000000  0.5099130000000 1.0
C      1  0.4980430000000  0.4384280000000  0.4830030000000 1.0
C      1  0.4998620000000  0.4284110000000  0.5153980000000 1.0
C      1  0.4847510000000  0.4500950000000  0.4475980000000 1.0
C      1  0.4903130000000  0.4451960000000  0.5520070000000 1.0
C      1  0.4556300000000  0.5809850000000  0.5116800000000 1.0
C      1  0.4442880000000  0.5943940000000  0.4855330000000 1.0
C      1  0.4758270000000  0.5015420000000  0.5455740000000 1.0
C      1  0.4799750000000  0.5032250000000  0.4509600000000 1.0
C      1  0.5229690000000  0.5067650000000  0.4771330000000 1.0
C      1  0.5206290000000  0.4998370000000  0.5257370000000 1.0
C      1  0.5826180000000  0.4375370000000  0.5146880000000 1.0
C      1  0.5817810000000  0.4390450000000  0.4828570000000 1.0
C      1  0.4804240000000  0.6042780000000  0.5606490000000 1.0
C      1  0.4825710000000  0.5964130000000  0.4327780000000 1.0
C      1  0.5211310000000  0.5178030000000  0.5524110000000 1.0
C      1  0.5253250000000  0.5231570000000  0.4513400000000 1.0
C      1  0.4186090000000  0.5131730000000  0.5298320000000 1.0
C      1  0.4247210000000  0.5123550000000  0.4717080000000 1.0
C      1  0.4510610000000  0.5246930000000  0.4108800000000 1.0
C      1  0.4478540000000  0.5285410000000  0.5879250000000 1.0
C      1  0.4462250000000  0.4728650000000  0.5429460000000 1.0
C      1  0.4566920000000  0.4688960000000  0.4532330000000 1.0
C      1  0.5005560000000  0.5642090000000  0.5602700000000 1.0
C      1  0.5088550000000  0.5613580000000  0.4393460000000 1.0
C      1  0.5037870000000  0.5583370000000  0.5939550000000 1.0
C      1  0.5074380000000  0.5509800000000  0.4075020000000 1.0
C      1  0.5673010000000  0.4329020000000  0.5609650000000 1.0
C      1  0.5589860000000  0.4356670000000  0.4389610000000 1.0
C      1  0.4481890000000  0.5122140000000  0.5470050000000 1.0
C      1  0.4514350000000  0.5083250000000  0.4505100000000 1.0
C      1  0.5667680000000  0.4844370000000  0.4887390000000 1.0
C      1  0.5625110000000  0.4865800000000  0.5212570000000 1.0
C      1  0.5267590000000  0.4535070000000  0.5918180000000 1.0
C      1  0.5229200000000  0.4596970000000  0.4033960000000 1.0
C      1  0.5560680000000  0.3959240000000  0.4719760000000 1.0
C      1  0.5647770000000  0.3869110000000  0.5346620000000 1.0
C      1  0.5269470000000  0.4705800000000  0.5116250000000 1.0
C      1  0.5260490000000  0.4749300000000  0.4778700000000 1.0
C      1  0.5757150000000  0.5400640000000  0.4342080000000 1.0
C      1  0.5708680000000  0.5366420000000  0.5673010000000 1.0
C      1  0.4906660000000  0.5026370000000  0.4834600000000 1.0
C      1  0.4907020000000  0.4930780000000  0.5166010000000 1.0
C      1  0.5701560000000  0.5650750000000  0.4859880000000 1.0
C      1  0.5700840000000  0.5669070000000  0.5179630000000 1.0
C      1  0.4741370000000  0.3999290000000  0.5633310000000 1.0
C      1  0.4811100000000  0.4020090000000  0.4408020000000 1.0
C      1  0.4608440000000  0.4977810000000  0.4016170000000 1.0
C      1  0.4663720000000  0.5025900000000  0.5901730000000 1.0
C      1  0.4239350000000  0.4853500000000  0.5728860000000 1.0
C      1  0.4262940000000  0.4891680000000  0.4370480000000 1.0
C      1  0.4173720000000  0.4588410000000  0.5554770000000 1.0
C      1  0.4264380000000  0.4555790000000  0.4447440000000 1.0
C      1  0.5385360000000  0.4793350000000  0.6076040000000 1.0
C      1  0.5239190000000  0.4918870000000  0.3920340000000 1.0
C      1  0.5146570000000  0.6020400000000  0.4719430000000 1.0
C      1  0.5205630000000  0.5979010000000  0.5272630000000 1.0
C      1  0.5063070000000  0.6101140000000  0.5550570000000 1.0
C      1  0.5082100000000  0.6027880000000  0.4405140000000 1.0
C      1  0.5531270000000  0.4967550000000  0.5897550000000 1.0
C      1  0.5495550000000  0.5057500000000  0.4052910000000 1.0
C      1  0.4318000000000  0.5664750000000  0.5568050000000 1.0
C      1  0.4352810000000  0.5645570000000  0.4474110000000 1.0
C      1  0.5579390000000  0.5382880000000  0.4109510000000 1.0
C      1  0.5437130000000  0.5292190000000  0.5857320000000 1.0
C      1  0.4704500000000  0.6087720000000  0.5119690000000 1.0
C      1  0.4648440000000  0.6178710000000  0.4804370000000 1.0
C      1  0.4144620000000  0.5413070000000  0.4600680000000 1.0
C      1  0.4105250000000  0.5413810000000  0.5473560000000 1.0
C      1  0.5157510000000  0.4642600000000  0.4509620000000 1.0
C      1  0.5196770000000  0.4596220000000  0.5430160000000 1.0
C      1  0.5598550000000  0.3717800000000  0.4867210000000 1.0
C      1  0.5639140000000  0.3673930000000  0.5140550000000 1.0
C      1  0.4399670000000  0.5321700000000  0.5154890000000 1.0
C      1  0.4518050000000  0.5180190000000  0.4892990000000 1.0
C      1  0.4752890000000  0.4470820000000  0.3924740000000 1.0
C      1  0.4887660000000  0.4527420000000  0.6038790000000 1.0
C      1  0.4276580000000  0.4387560000000  0.5119370000000 1.0
C      1  0.4333880000000  0.4361810000000  0.4788470000000 1.0
C      1  0.5787760000000  0.5096220000000  0.5493460000000 1.0
C      1  0.5778010000000  0.5121180000000  0.4511480000000 1.0
C      1  0.4061850000000  0.5533350000000  0.5152870000000 1.0
C      1  0.4048260000000  0.5582150000000  0.4871790000000 1.0
C      1  0.4676240000000  0.5488710000000  0.5092010000000 1.0
C      1  0.4791470000000  0.5349070000000  0.4831090000000 1.0
C      1  0.5917090000000  0.4781370000000  0.5468380000000 1.0
C      1  0.5857440000000  0.4792770000000  0.4508560000000 1.0
C      1  0.4627100000000  0.4072140000000  0.4619880000000 1.0
C      1  0.4584250000000  0.4061280000000  0.5398860000000 1.0
C      1  0.5060820000000  0.5737610000000  0.4845050000000 1.0
C      1  0.5084150000000  0.5714190000000  0.5183520000000 1.0
C      1  0.5390820000000  0.5476490000000  0.4618080000000 1.0
C      1  0.5341420000000  0.5464180000000  0.5568570000000 1.0
C      1  0.5654350000000  0.5599580000000  0.4523180000000 1.0
C      1  0.5613950000000  0.5639270000000  0.5509260000000 1.0
C      1  0.4829930000000  0.5623050000000  0.5337480000000 1.0
C      1  0.4889340000000  0.5567380000000  0.4640920000000 1.0
C      1  0.4916420000000  0.4724980000000  0.4044860000000 1.0
C      1  0.5029800000000  0.4779170000000  0.5893880000000 1.0
C      1  0.4784040000000  0.5418080000000  0.4183980000000 1.0
C      1  0.4799440000000  0.5394270000000  0.5835780000000 1.0
END
