TITL C-2782230-7391-674 0.00163490590707647 125000 -323.308462167532 0 0 58 (C3) n - 1
REM
REM in /home/nfs/bkarasulu/CARBON/AIRSS/Generating-Clusters/REBO/Higher-Symm/SD-CG/HFTN-CG
REM
REM
REM
REM
REM
REM ./C.cell (12c818d87b63d06a65506943cc24bca4)
REM
REM compiler GCC version 9.2.1 20190827 (Red Hat 9.2.1-1)
REM options -cpp -mtune=generic -march=x86-64 -g -O0 -fpre-include=/usr/include/finclude/math-vector-fortran.h
REM seed 1076650741 -1841008437 -121155887 -262735128 363423742 -1290886976 -1323247957 529856832 -1056754435 -1989528313 760279384 942284867 -785185997 1815126589 1196350117 522017821 1993604394 -550900880 -1101132419 -1132705190 -1782495042 -1721267703 -644700188 -1365392833 960191179 620478814 -292811785 -1868324711 300457047 2120368267 -33291602 -1793190152 1762116463
REM
CELL 1.54180   50.00000   50.00000   50.00000   90.00000   90.00000   90.00000
LATT -1
SFAC C  
C      1  0.4306350000000  0.4739310000000  0.4899210000000 1.0
C      1  0.5580370000000  0.4529580000000  0.4899350000000 1.0
C      1  0.5124990000000  0.5737780000000  0.4899240000000 1.0
C      1  0.4557850000000  0.4394110000000  0.4681770000000 1.0
C      1  0.5753600000000  0.4919950000000  0.4681870000000 1.0
C      1  0.4700330000000  0.5692590000000  0.4681720000000 1.0
C      1  0.4994080000000  0.4709260000000  0.4613170000000 1.0
C      1  0.5262570000000  0.5140150000000  0.4613180000000 1.0
C      1  0.4755160000000  0.5157220000000  0.4613120000000 1.0
C      1  0.5458760000000  0.4527470000000  0.5448150000000 1.0
C      1  0.5187570000000  0.5633610000000  0.5448060000000 1.0
C      1  0.4365210000000  0.4845680000000  0.5448020000000 1.0
C      1  0.4663600000000  0.4296950000000  0.4931030000000 1.0
C      1  0.5784840000000  0.5060160000000  0.4931110000000 1.0
C      1  0.4563260000000  0.5649580000000  0.4930950000000 1.0
C      1  0.5145680000000  0.5335760000000  0.5867310000000 1.0
C      1  0.4644060000000  0.4958400000000  0.5867280000000 1.0
C      1  0.5221680000000  0.4712660000000  0.5867350000000 1.0
C      1  0.4875300000000  0.5163500000000  0.4294470000000 1.0
C      1  0.4928610000000  0.4810110000000  0.4294500000000 1.0
C      1  0.5208000000000  0.5032980000000  0.4294510000000 1.0
C      1  0.5260640000000  0.5408600000000  0.4419490000000 1.0
C      1  0.4523660000000  0.5021300000000  0.4419430000000 1.0
C      1  0.5227560000000  0.4576700000000  0.4419530000000 1.0
C      1  0.4450430000000  0.4724710000000  0.5182590000000 1.0
C      1  0.5520940000000  0.4661710000000  0.5182710000000 1.0
C      1  0.5040250000000  0.5620300000000  0.5182610000000 1.0
C      1  0.5264330000000  0.4845810000000  0.4731870000000 1.0
C      1  0.5009170000000  0.5305940000000  0.4731820000000 1.0
C      1  0.4738270000000  0.4854900000000  0.4731810000000 1.0
C      1  0.4751990000000  0.5177360000000  0.5155340000000 1.0
C      1  0.4978160000000  0.4696540000000  0.5155390000000 1.0
C      1  0.5281480000000  0.5132820000000  0.5155400000000 1.0
C      1  0.4554290000000  0.4431770000000  0.5206220000000 1.0
C      1  0.5722710000000  0.4898130000000  0.5206310000000 1.0
C      1  0.4734620000000  0.5676830000000  0.5206170000000 1.0
C      1  0.4565250000000  0.5411130000000  0.5158820000000 1.0
C      1  0.4869080000000  0.4417930000000  0.5158900000000 1.0
C      1  0.5577310000000  0.5177660000000  0.5158940000000 1.0
C      1  0.4884170000000  0.5161020000000  0.5981490000000 1.0
C      1  0.4926130000000  0.4819320000000  0.5981510000000 1.0
C      1  0.5201080000000  0.5026510000000  0.5981530000000 1.0
C      1  0.4716890000000  0.4873600000000  0.5051110000000 1.0
C      1  0.5258790000000  0.4818000000000  0.5051170000000 1.0
C      1  0.5035990000000  0.5315100000000  0.5051120000000 1.0
C      1  0.4624410000000  0.4854810000000  0.4253200000000 1.0
C      1  0.5321390000000  0.4747180000000  0.4253280000000 1.0
C      1  0.5066110000000  0.5404600000000  0.4253220000000 1.0
C      1  0.4487460000000  0.4675770000000  0.4696880000000 1.0
C      1  0.5544870000000  0.4718170000000  0.4696980000000 1.0
C      1  0.4979450000000  0.5612710000000  0.4696880000000 1.0
C      1  0.4528290000000  0.4243060000000  0.4458490000000 1.0
C      1  0.5899220000000  0.4969840000000  0.4458590000000 1.0
C      1  0.4584340000000  0.5793710000000  0.4458410000000 1.0
C      1  0.5202490000000  0.5517200000000  0.5688050000000 1.0
C      1  0.4458540000000  0.4916850000000  0.5688000000000 1.0
C      1  0.5350440000000  0.4572750000000  0.5688110000000 1.0
C      1  0.5003860000000  0.5002250000000  0.5290070000000 1.0
END
