TITL C-2782230-7391-105 -0.00586367655979479 125000 -733.851028682707 0 0 129 (C1) n - 1
REM
REM in /home/nfs/bkarasulu/CARBON/AIRSS/Generating-Clusters/REBO/Higher-Symm/SD-CG/HFTN-CG
REM
REM
REM
REM
REM
REM ./C.cell (12c818d87b63d06a65506943cc24bca4)
REM
REM compiler GCC version 9.2.1 20190827 (Red Hat 9.2.1-1)
REM options -cpp -mtune=generic -march=x86-64 -g -O0 -fpre-include=/usr/include/finclude/math-vector-fortran.h
REM seed 163495737 -244898546 1032549214 -641845553 1157604010 1485814379 -32131632 -152297172 -956519119 -2106656775 -1869873642 -1315061064 -1488118900 1018087578 594228001 -695871957 -768868935 -1598116899 -1913273683 -1015449372 1664287959 763081777 -148847470 497524680 1396604105 -1559398278 -1483519929 1461022065 -367531004 411792533 1607101547 1720616869 1251719496
REM
CELL 1.54180   50.00000   50.00000   50.00000   90.00000   90.00000   90.00000
LATT -1
SFAC C  
C      1  0.5539800000000  0.4229880000000  0.5017820000000 1.0
C      1  0.5438130000000  0.4808260000000  0.4243350000000 1.0
C      1  0.5503750000000  0.5659000000000  0.4508300000000 1.0
C      1  0.5496150000000  0.5624170000000  0.5481310000000 1.0
C      1  0.5467670000000  0.4761730000000  0.5771510000000 1.0
C      1  0.4505810000000  0.4245360000000  0.5008590000000 1.0
C      1  0.4463560000000  0.4756050000000  0.4279450000000 1.0
C      1  0.4519220000000  0.5613330000000  0.4456890000000 1.0
C      1  0.4475490000000  0.5621200000000  0.5415070000000 1.0
C      1  0.4461140000000  0.4804490000000  0.5744560000000 1.0
C      1  0.5186300000000  0.4406330000000  0.4958420000000 1.0
C      1  0.5118800000000  0.4979410000000  0.4421170000000 1.0
C      1  0.5207660000000  0.5536560000000  0.4733510000000 1.0
C      1  0.5189230000000  0.5379670000000  0.5464340000000 1.0
C      1  0.5168600000000  0.4672880000000  0.5532910000000 1.0
C      1  0.4870730000000  0.4413660000000  0.4957740000000 1.0
C      1  0.4798530000000  0.4934370000000  0.4401870000000 1.0
C      1  0.4765200000000  0.5527690000000  0.4735670000000 1.0
C      1  0.4794270000000  0.5393320000000  0.5480850000000 1.0
C      1  0.4770200000000  0.4685060000000  0.5533630000000 1.0
C      1  0.4454390000000  0.4376110000000  0.5322780000000 1.0
C      1  0.4435260000000  0.4497170000000  0.4499490000000 1.0
C      1  0.4447790000000  0.5301970000000  0.4334620000000 1.0
C      1  0.4454920000000  0.5710170000000  0.5084820000000 1.0
C      1  0.4466270000000  0.5141480000000  0.5694220000000 1.0
C      1  0.5590700000000  0.4366100000000  0.5327120000000 1.0
C      1  0.5515550000000  0.4575830000000  0.4482310000000 1.0
C      1  0.5571890000000  0.5343040000000  0.4390730000000 1.0
C      1  0.5539610000000  0.5678360000000  0.5146860000000 1.0
C      1  0.5537340000000  0.5086090000000  0.5689850000000 1.0
C      1  0.4107110000000  0.5437190000000  0.4794140000000 1.0
C      1  0.4097970000000  0.5138450000000  0.5296040000000 1.0
C      1  0.4083940000000  0.4805370000000  0.5340270000000 1.0
C      1  0.4085200000000  0.4649720000000  0.4845200000000 1.0
C      1  0.4118830000000  0.4949090000000  0.4692360000000 1.0
C      1  0.5867570000000  0.5404910000000  0.4824560000000 1.0
C      1  0.5869540000000  0.5132910000000  0.5285010000000 1.0
C      1  0.5896140000000  0.4808400000000  0.5348850000000 1.0
C      1  0.5888920000000  0.4632960000000  0.4841060000000 1.0
C      1  0.5853740000000  0.4929430000000  0.4689470000000 1.0
C      1  0.5166370000000  0.5127760000000  0.5827330000000 1.0
C      1  0.5171610000000  0.4115090000000  0.5400060000000 1.0
C      1  0.5171910000000  0.4424020000000  0.4351820000000 1.0
C      1  0.5110120000000  0.5459280000000  0.4221430000000 1.0
C      1  0.5163520000000  0.5950950000000  0.5211320000000 1.0
C      1  0.4856090000000  0.5098490000000  0.5842800000000 1.0
C      1  0.4874100000000  0.4108470000000  0.5393920000000 1.0
C      1  0.4866450000000  0.4432870000000  0.4321550000000 1.0
C      1  0.4814040000000  0.5412300000000  0.4231930000000 1.0
C      1  0.4872840000000  0.5925710000000  0.5232960000000 1.0
C      1  0.5571800000000  0.5271770000000  0.4901760000000 1.0
C      1  0.5562100000000  0.5178790000000  0.5182110000000 1.0
C      1  0.5585270000000  0.4862030000000  0.5210410000000 1.0
C      1  0.5579590000000  0.4762940000000  0.4926930000000 1.0
C      1  0.5541770000000  0.5021230000000  0.4743600000000 1.0
C      1  0.4392970000000  0.5299210000000  0.4894090000000 1.0
C      1  0.4396670000000  0.5203140000000  0.5174400000000 1.0
C      1  0.4389950000000  0.4882640000000  0.5202520000000 1.0
C      1  0.4396840000000  0.4780030000000  0.4922310000000 1.0
C      1  0.4437280000000  0.5042220000000  0.4737000000000 1.0
C      1  0.4621070000000  0.5255380000000  0.4044720000000 1.0
C      1  0.4696470000000  0.5900680000000  0.5015980000000 1.0
C      1  0.4616640000000  0.5310480000000  0.5931840000000 1.0
C      1  0.4619880000000  0.4214620000000  0.5566950000000 1.0
C      1  0.4658580000000  0.4268350000000  0.4486780000000 1.0
C      1  0.5382690000000  0.5318250000000  0.4123830000000 1.0
C      1  0.5370030000000  0.5914400000000  0.5023730000000 1.0
C      1  0.5434900000000  0.5288200000000  0.5927510000000 1.0
C      1  0.5419050000000  0.4231430000000  0.5578280000000 1.0
C      1  0.5393930000000  0.4258290000000  0.4494940000000 1.0
C      1  0.4680750000000  0.5480710000000  0.5187540000000 1.0
C      1  0.4735660000000  0.5003400000000  0.5539290000000 1.0
C      1  0.4774820000000  0.4402320000000  0.5253340000000 1.0
C      1  0.4729900000000  0.4655930000000  0.4550290000000 1.0
C      1  0.4730180000000  0.5304930000000  0.4532300000000 1.0
C      1  0.5293990000000  0.5470430000000  0.5179580000000 1.0
C      1  0.5253910000000  0.4990500000000  0.5526950000000 1.0
C      1  0.5273070000000  0.4406700000000  0.5253700000000 1.0
C      1  0.5208910000000  0.4703020000000  0.4546780000000 1.0
C      1  0.5257170000000  0.5345690000000  0.4500990000000 1.0
C      1  0.5157360000000  0.5112980000000  0.4727680000000 1.0
C      1  0.5126160000000  0.5427610000000  0.4973100000000 1.0
C      1  0.5146740000000  0.5110780000000  0.5266040000000 1.0
C      1  0.5167820000000  0.4714620000000  0.5220170000000 1.0
C      1  0.5129430000000  0.4688360000000  0.4825960000000 1.0
C      1  0.4841450000000  0.5068680000000  0.4707110000000 1.0
C      1  0.4852540000000  0.5407990000000  0.4975490000000 1.0
C      1  0.4837000000000  0.5124260000000  0.5274710000000 1.0
C      1  0.4857240000000  0.4716660000000  0.5226440000000 1.0
C      1  0.4813080000000  0.4689940000000  0.4830410000000 1.0
C      1  0.4790590000000  0.5817640000000  0.4763900000000 1.0
C      1  0.4811610000000  0.5490850000000  0.5785320000000 1.0
C      1  0.4792750000000  0.4415510000000  0.5699250000000 1.0
C      1  0.4739080000000  0.4187130000000  0.4758960000000 1.0
C      1  0.4753200000000  0.5087480000000  0.3878990000000 1.0
C      1  0.5315680000000  0.5846770000000  0.4732660000000 1.0
C      1  0.5313360000000  0.5518160000000  0.5749170000000 1.0
C      1  0.5313540000000  0.4457120000000  0.5750480000000 1.0
C      1  0.5313090000000  0.4175650000000  0.4764110000000 1.0
C      1  0.5239330000000  0.5048030000000  0.4122150000000 1.0
C      1  0.4782260000000  0.4777890000000  0.5863450000000 1.0
C      1  0.4756870000000  0.4033660000000  0.5107290000000 1.0
C      1  0.4782530000000  0.4715140000000  0.4159750000000 1.0
C      1  0.4841290000000  0.5705710000000  0.4386000000000 1.0
C      1  0.4798420000000  0.5734570000000  0.5470230000000 1.0
C      1  0.5125550000000  0.4793670000000  0.5847290000000 1.0
C      1  0.5279120000000  0.4032790000000  0.5116200000000 1.0
C      1  0.5125510000000  0.4684850000000  0.4156300000000 1.0
C      1  0.5192970000000  0.5720830000000  0.4378710000000 1.0
C      1  0.5153330000000  0.5725390000000  0.5450150000000 1.0
C      1  0.4378050000000  0.5616460000000  0.4766810000000 1.0
C      1  0.4327730000000  0.5320210000000  0.5475720000000 1.0
C      1  0.4363020000000  0.4658540000000  0.5455470000000 1.0
C      1  0.4355760000000  0.4465900000000  0.4808530000000 1.0
C      1  0.4329490000000  0.5012420000000  0.4428030000000 1.0
C      1  0.5612000000000  0.5596710000000  0.4824800000000 1.0
C      1  0.5640980000000  0.5314440000000  0.5467300000000 1.0
C      1  0.5623840000000  0.4662570000000  0.5483650000000 1.0
C      1  0.5611870000000  0.4457420000000  0.4787250000000 1.0
C      1  0.5639000000000  0.5011070000000  0.4432470000000 1.0
C      1  0.5015300000000  0.5013370000000  0.3903650000000 1.0
C      1  0.5017210000000  0.4393040000000  0.5852230000000 1.0
C      1  0.5021910000000  0.4048320000000  0.4893380000000 1.0
C      1  0.5021560000000  0.5918070000000  0.4585400000000 1.0
C      1  0.5039110000000  0.5620390000000  0.5859820000000 1.0
C      1  0.5237930000000  0.4957530000000  0.4999420000000 1.0
C      1  0.4744610000000  0.4955290000000  0.5011090000000 1.0
C      1  0.4035210000000  0.4934590000000  0.5026140000000 1.0
C      1  0.5935050000000  0.4916990000000  0.5025050000000 1.0
END
