TITL C-2782226-7400-553 -0.00565235846118197 125000 -450.753556190639 0 0 79 (C1) n - 1
REM
REM in /home/nfs/bkarasulu/CARBON/AIRSS/Generating-Clusters/REBO/Higher-Symm/SD-CG/HFTN-CG
REM
REM
REM
REM
REM
REM ./C.cell (12c818d87b63d06a65506943cc24bca4)
REM
REM compiler GCC version 9.2.1 20190827 (Red Hat 9.2.1-1)
REM options -cpp -mtune=generic -march=x86-64 -g -O0 -fpre-include=/usr/include/finclude/math-vector-fortran.h
REM seed 970716241 463741108 1009523903 2130453351 -1902998840 1277314104 -452059046 363261939 493850564 -1906512759 -781993388 -38127553 -287557050 161562350 1970250995 -958284950 214834804 1929115994 -1469030235 990817447 -1453101309 1945461962 -39459477 1251299582 1867266866 256907124 -380111931 1795462529 1233650075 1483440949 -1507503675 -1534243742 -1241747122
REM
CELL 1.54180   50.00000   50.00000   50.00000   90.00000   90.00000   90.00000
LATT -1
SFAC C  
C      1  0.5032950000000  0.5265140000000  0.4790040000000 1.0
C      1  0.4933320000000  0.5046070000000  0.5297750000000 1.0
C      1  0.4981330000000  0.4677180000000  0.4877750000000 1.0
C      1  0.4309680000000  0.4556560000000  0.5107330000000 1.0
C      1  0.4327120000000  0.5122110000000  0.4577180000000 1.0
C      1  0.4358280000000  0.5283030000000  0.5317180000000 1.0
C      1  0.5407880000000  0.5659420000000  0.4945680000000 1.0
C      1  0.5375870000000  0.4845180000000  0.5544010000000 1.0
C      1  0.5392830000000  0.4651650000000  0.4524690000000 1.0
C      1  0.5066350000000  0.5581160000000  0.5542300000000 1.0
C      1  0.5027750000000  0.4263410000000  0.5285730000000 1.0
C      1  0.5078020000000  0.5135270000000  0.4235190000000 1.0
C      1  0.5590510000000  0.5128710000000  0.5285860000000 1.0
C      1  0.5535300000000  0.4585690000000  0.4897020000000 1.0
C      1  0.5586210000000  0.5307940000000  0.4617440000000 1.0
C      1  0.4510520000000  0.5018370000000  0.4324700000000 1.0
C      1  0.4582270000000  0.5454610000000  0.5483600000000 1.0
C      1  0.4479050000000  0.4389950000000  0.5344870000000 1.0
C      1  0.5389470000000  0.5068920000000  0.4203680000000 1.0
C      1  0.5376040000000  0.5554480000000  0.5449370000000 1.0
C      1  0.5315910000000  0.4321790000000  0.5438810000000 1.0
C      1  0.5357860000000  0.5369110000000  0.4825290000000 1.0
C      1  0.5264980000000  0.5027490000000  0.5277240000000 1.0
C      1  0.5292680000000  0.4784010000000  0.4821890000000 1.0
C      1  0.5071970000000  0.4226510000000  0.4976910000000 1.0
C      1  0.5072870000000  0.5429650000000  0.4366690000000 1.0
C      1  0.5008720000000  0.5289070000000  0.5686260000000 1.0
C      1  0.4725640000000  0.5236860000000  0.5673860000000 1.0
C      1  0.4848670000000  0.4281100000000  0.4812460000000 1.0
C      1  0.4852010000000  0.5540270000000  0.4498400000000 1.0
C      1  0.4361720000000  0.4872430000000  0.4737350000000 1.0
C      1  0.4388590000000  0.5275660000000  0.5025090000000 1.0
C      1  0.4314680000000  0.4822220000000  0.5224620000000 1.0
C      1  0.5744170000000  0.5057770000000  0.5068500000000 1.0
C      1  0.5749040000000  0.4802510000000  0.4869270000000 1.0
C      1  0.5761300000000  0.5104630000000  0.4747020000000 1.0
C      1  0.5034810000000  0.5363580000000  0.5294880000000 1.0
C      1  0.4954190000000  0.4559980000000  0.5162220000000 1.0
C      1  0.5008530000000  0.5078050000000  0.4544850000000 1.0
C      1  0.5009030000000  0.4759830000000  0.4547730000000 1.0
C      1  0.5042580000000  0.5518500000000  0.5014720000000 1.0
C      1  0.5006470000000  0.4761380000000  0.5422730000000 1.0
C      1  0.4612390000000  0.5580010000000  0.4739480000000 1.0
C      1  0.4559770000000  0.4952050000000  0.5654470000000 1.0
C      1  0.4602870000000  0.4462550000000  0.4657390000000 1.0
C      1  0.4866850000000  0.4859930000000  0.5718710000000 1.0
C      1  0.4913690000000  0.4432340000000  0.4540100000000 1.0
C      1  0.4926910000000  0.5710850000000  0.4756490000000 1.0
C      1  0.5512350000000  0.4598170000000  0.5455460000000 1.0
C      1  0.5482050000000  0.4831960000000  0.4326460000000 1.0
C      1  0.5486700000000  0.5668230000000  0.5217650000000 1.0
C      1  0.4822920000000  0.4915820000000  0.4230710000000 1.0
C      1  0.4789440000000  0.5712240000000  0.5392930000000 1.0
C      1  0.4785190000000  0.4367510000000  0.5500690000000 1.0
C      1  0.4709030000000  0.5014740000000  0.4600990000000 1.0
C      1  0.4727580000000  0.5371720000000  0.5202460000000 1.0
C      1  0.4671800000000  0.4648940000000  0.5242920000000 1.0
C      1  0.4390140000000  0.5357100000000  0.4729380000000 1.0
C      1  0.4342180000000  0.5024960000000  0.5432980000000 1.0
C      1  0.4380120000000  0.4579400000000  0.4832980000000 1.0
C      1  0.4629630000000  0.4715990000000  0.4438220000000 1.0
C      1  0.4676290000000  0.5666940000000  0.5063270000000 1.0
C      1  0.4578280000000  0.4630680000000  0.5570110000000 1.0
C      1  0.5343510000000  0.5488840000000  0.4444130000000 1.0
C      1  0.5249520000000  0.5138110000000  0.5660400000000 1.0
C      1  0.5342920000000  0.4305100000000  0.4916040000000 1.0
C      1  0.4681780000000  0.4838720000000  0.4867310000000 1.0
C      1  0.4715960000000  0.5232640000000  0.4914280000000 1.0
C      1  0.4632070000000  0.4959990000000  0.5165400000000 1.0
C      1  0.5216520000000  0.4454760000000  0.4404020000000 1.0
C      1  0.5198150000000  0.5856330000000  0.4884290000000 1.0
C      1  0.5158790000000  0.4769700000000  0.5786150000000 1.0
C      1  0.4999670000000  0.4634940000000  0.4224700000000 1.0
C      1  0.4961750000000  0.5839930000000  0.5128330000000 1.0
C      1  0.5085800000000  0.4487260000000  0.5608540000000 1.0
C      1  0.5459630000000  0.5287850000000  0.5509020000000 1.0
C      1  0.5517900000000  0.4412480000000  0.5180990000000 1.0
C      1  0.5539090000000  0.5295990000000  0.4291500000000 1.0
C      1  0.5307370000000  0.5060710000000  0.4959690000000 1.0
END
