TITL C-2782239-8622-1160 -0.00729802407260749 125000 -967.452878693228 0 0 163 (C1) n - 1
REM
REM in /home/nfs/bkarasulu/CARBON/AIRSS/Generating-Clusters/REBO/Higher-Symm/SD-CG/HFTN-CG
REM
REM
REM
REM
REM
REM ./C.cell (12c818d87b63d06a65506943cc24bca4)
REM
REM compiler GCC version 9.2.1 20190827 (Red Hat 9.2.1-1)
REM options -cpp -mtune=generic -march=x86-64 -g -O0 -fpre-include=/usr/include/finclude/math-vector-fortran.h
REM seed 1214534996 1085361287 1100944760 1295522978 248658407 1451235847 -1209466959 505201055 -148654936 -1933347291 -592191282 478520512 -109808797 1329057968 -1683660944 -461070903 1494969380 -2079683565 66722682 594756491 1147546860 1780616241 -337265261 -82221528 -1532609544 2103578351 -1082004406 1743577366 -1111968061 -1476054491 -211005981 739695069 -598278805
REM
CELL 1.54180   50.00000   50.00000   50.00000   90.00000   90.00000   90.00000
LATT -1
SFAC C  
C      1  0.4996210000000  0.4831910000000  0.6097970000000 1.0
C      1  0.5010920000000  0.5174710000000  0.6129890000000 1.0
C      1  0.4124600000000  0.5254760000000  0.5381620000000 1.0
C      1  0.4093820000000  0.4706490000000  0.5323830000000 1.0
C      1  0.5122270000000  0.5690620000000  0.4738210000000 1.0
C      1  0.5200010000000  0.4291360000000  0.4728730000000 1.0
C      1  0.4269480000000  0.4812050000000  0.5523020000000 1.0
C      1  0.4318230000000  0.5097330000000  0.5531710000000 1.0
C      1  0.5159270000000  0.5572270000000  0.5187130000000 1.0
C      1  0.5189110000000  0.4461540000000  0.5197790000000 1.0
C      1  0.4363620000000  0.4169210000000  0.4996060000000 1.0
C      1  0.4204750000000  0.5779210000000  0.4963420000000 1.0
C      1  0.5042590000000  0.4193560000000  0.4273580000000 1.0
C      1  0.5042320000000  0.5742850000000  0.4318210000000 1.0
C      1  0.4860400000000  0.4802840000000  0.4505830000000 1.0
C      1  0.4890430000000  0.5113580000000  0.4513540000000 1.0
C      1  0.5870470000000  0.5546410000000  0.4896230000000 1.0
C      1  0.5902080000000  0.4433560000000  0.4966650000000 1.0
C      1  0.5513610000000  0.4230790000000  0.4805350000000 1.0
C      1  0.5429170000000  0.5734280000000  0.4688980000000 1.0
C      1  0.5407030000000  0.4568280000000  0.5926570000000 1.0
C      1  0.5431820000000  0.5417470000000  0.5934620000000 1.0
C      1  0.5350320000000  0.4885540000000  0.5244760000000 1.0
C      1  0.5246830000000  0.5114150000000  0.5135680000000 1.0
C      1  0.6090420000000  0.4857250000000  0.5162910000000 1.0
C      1  0.6145330000000  0.5165000000000  0.5142460000000 1.0
C      1  0.5126500000000  0.4016690000000  0.5008970000000 1.0
C      1  0.5096000000000  0.6048970000000  0.5082420000000 1.0
C      1  0.5595680000000  0.4571630000000  0.5722620000000 1.0
C      1  0.5589870000000  0.5453110000000  0.5697970000000 1.0
C      1  0.5067470000000  0.5155360000000  0.5606790000000 1.0
C      1  0.5088120000000  0.4841330000000  0.5709430000000 1.0
C      1  0.4359450000000  0.4269960000000  0.4738760000000 1.0
C      1  0.4391580000000  0.5777170000000  0.4751490000000 1.0
C      1  0.4582680000000  0.5777570000000  0.4522860000000 1.0
C      1  0.4569710000000  0.4239140000000  0.4521590000000 1.0
C      1  0.5641250000000  0.4264100000000  0.5305350000000 1.0
C      1  0.5546270000000  0.5711670000000  0.5246560000000 1.0
C      1  0.4160380000000  0.5504190000000  0.5246000000000 1.0
C      1  0.4243310000000  0.4488470000000  0.5203780000000 1.0
C      1  0.6141410000000  0.4744140000000  0.5455950000000 1.0
C      1  0.6219920000000  0.5278900000000  0.5393700000000 1.0
C      1  0.5417080000000  0.5086120000000  0.5995710000000 1.0
C      1  0.5319780000000  0.4827530000000  0.6076620000000 1.0
C      1  0.5453360000000  0.5533690000000  0.4186690000000 1.0
C      1  0.5424280000000  0.4434310000000  0.4095430000000 1.0
C      1  0.5684210000000  0.5532650000000  0.4630790000000 1.0
C      1  0.5543580000000  0.4460930000000  0.4615690000000 1.0
C      1  0.5034740000000  0.4303670000000  0.5002870000000 1.0
C      1  0.5021110000000  0.5784880000000  0.5018480000000 1.0
C      1  0.5155220000000  0.5919550000000  0.5485480000000 1.0
C      1  0.5219960000000  0.4066990000000  0.5462830000000 1.0
C      1  0.5045760000000  0.5092650000000  0.4895440000000 1.0
C      1  0.4896590000000  0.4791570000000  0.4940000000000 1.0
C      1  0.5657730000000  0.5120230000000  0.4963450000000 1.0
C      1  0.5711350000000  0.4694700000000  0.4966230000000 1.0
C      1  0.4758430000000  0.4938080000000  0.5736990000000 1.0
C      1  0.4575630000000  0.5173430000000  0.5639970000000 1.0
C      1  0.4769960000000  0.4695920000000  0.5520320000000 1.0
C      1  0.4662170000000  0.5441600000000  0.5681470000000 1.0
C      1  0.5075920000000  0.4570090000000  0.5894510000000 1.0
C      1  0.5116930000000  0.5335080000000  0.5893880000000 1.0
C      1  0.6082880000000  0.5194250000000  0.5628730000000 1.0
C      1  0.6018900000000  0.4893760000000  0.5650960000000 1.0
C      1  0.4543700000000  0.4363610000000  0.4246490000000 1.0
C      1  0.4568200000000  0.5655450000000  0.4221880000000 1.0
C      1  0.5289270000000  0.4686070000000  0.4212820000000 1.0
C      1  0.5297470000000  0.5262340000000  0.4203920000000 1.0
C      1  0.5015780000000  0.5367940000000  0.4713370000000 1.0
C      1  0.5017470000000  0.4582320000000  0.4719580000000 1.0
C      1  0.4839920000000  0.5256290000000  0.3969670000000 1.0
C      1  0.4834590000000  0.4680320000000  0.3978760000000 1.0
C      1  0.5078820000000  0.5632110000000  0.5471140000000 1.0
C      1  0.5146440000000  0.4344080000000  0.5454780000000 1.0
C      1  0.4552610000000  0.4106460000000  0.5274530000000 1.0
C      1  0.4614110000000  0.6077090000000  0.5483220000000 1.0
C      1  0.3885080000000  0.5129270000000  0.5265420000000 1.0
C      1  0.3873780000000  0.4845940000000  0.5223570000000 1.0
C      1  0.4890300000000  0.5163410000000  0.5373760000000 1.0
C      1  0.4826410000000  0.4861300000000  0.5266860000000 1.0
C      1  0.5086550000000  0.5111910000000  0.4002890000000 1.0
C      1  0.5077430000000  0.4831320000000  0.4011070000000 1.0
C      1  0.4734360000000  0.5111920000000  0.6207750000000 1.0
C      1  0.4664100000000  0.4880200000000  0.6039500000000 1.0
C      1  0.5436790000000  0.4818640000000  0.4435890000000 1.0
C      1  0.5461220000000  0.5139580000000  0.4433490000000 1.0
C      1  0.3850200000000  0.5186430000000  0.4772830000000 1.0
C      1  0.3830900000000  0.4912330000000  0.4729950000000 1.0
C      1  0.4438050000000  0.5453660000000  0.4704400000000 1.0
C      1  0.4286360000000  0.4513530000000  0.4511350000000 1.0
C      1  0.5392580000000  0.4649980000000  0.5066680000000 1.0
C      1  0.5297210000000  0.5382210000000  0.5026440000000 1.0
C      1  0.4726400000000  0.5144880000000  0.4875620000000 1.0
C      1  0.4592340000000  0.4847520000000  0.4797380000000 1.0
C      1  0.4371730000000  0.4635770000000  0.4186840000000 1.0
C      1  0.4395220000000  0.5462730000000  0.4365060000000 1.0
C      1  0.5761150000000  0.5191980000000  0.5606290000000 1.0
C      1  0.5694450000000  0.4869940000000  0.5656260000000 1.0
C      1  0.4588080000000  0.5194440000000  0.4585440000000 1.0
C      1  0.4535670000000  0.4744340000000  0.4529260000000 1.0
C      1  0.5430560000000  0.5335780000000  0.4715830000000 1.0
C      1  0.5380830000000  0.4697940000000  0.4741840000000 1.0
C      1  0.5671530000000  0.5150250000000  0.5280170000000 1.0
C      1  0.5765820000000  0.4822360000000  0.5265740000000 1.0
C      1  0.4790520000000  0.6091040000000  0.4714470000000 1.0
C      1  0.4867990000000  0.3950970000000  0.4690040000000 1.0
C      1  0.4840820000000  0.5556470000000  0.4112980000000 1.0
C      1  0.4822660000000  0.4392980000000  0.4119390000000 1.0
C      1  0.5676950000000  0.4534920000000  0.5426670000000 1.0
C      1  0.5582420000000  0.5464000000000  0.5382540000000 1.0
C      1  0.5763680000000  0.4878180000000  0.4422040000000 1.0
C      1  0.5787020000000  0.5203010000000  0.4429860000000 1.0
C      1  0.5079750000000  0.4067180000000  0.4555540000000 1.0
C      1  0.4949310000000  0.5929470000000  0.4572050000000 1.0
C      1  0.4746160000000  0.6190940000000  0.5213890000000 1.0
C      1  0.4791260000000  0.3919690000000  0.5203900000000 1.0
C      1  0.5015440000000  0.3890300000000  0.5371180000000 1.0
C      1  0.4939570000000  0.6103960000000  0.5467050000000 1.0
C      1  0.4489190000000  0.4559890000000  0.5054620000000 1.0
C      1  0.4566920000000  0.5487710000000  0.5001760000000 1.0
C      1  0.5501810000000  0.4046970000000  0.5430710000000 1.0
C      1  0.5420390000000  0.5935590000000  0.5376500000000 1.0
C      1  0.4700870000000  0.5732780000000  0.5039390000000 1.0
C      1  0.4703730000000  0.4376140000000  0.4980120000000 1.0
C      1  0.6106810000000  0.4662740000000  0.4923590000000 1.0
C      1  0.6011600000000  0.5303190000000  0.4938460000000 1.0
C      1  0.4477750000000  0.5654520000000  0.5674190000000 1.0
C      1  0.4466160000000  0.4623570000000  0.5576820000000 1.0
C      1  0.4254740000000  0.4885290000000  0.4390730000000 1.0
C      1  0.4280720000000  0.5171630000000  0.4469250000000 1.0
C      1  0.5709270000000  0.4229500000000  0.5017680000000 1.0
C      1  0.5619540000000  0.5719780000000  0.4972240000000 1.0
C      1  0.5343100000000  0.5722470000000  0.4360900000000 1.0
C      1  0.5304340000000  0.4212720000000  0.4126310000000 1.0
C      1  0.3841340000000  0.4520030000000  0.4777440000000 1.0
C      1  0.4016060000000  0.5511000000000  0.4936950000000 1.0
C      1  0.5380370000000  0.5111950000000  0.5695040000000 1.0
C      1  0.5378350000000  0.4844000000000  0.5530340000000 1.0
C      1  0.4623750000000  0.4324850000000  0.5530120000000 1.0
C      1  0.4429420000000  0.5861560000000  0.5489580000000 1.0
C      1  0.4582180000000  0.4812050000000  0.4003200000000 1.0
C      1  0.4603730000000  0.5093090000000  0.3957160000000 1.0
C      1  0.4927850000000  0.4444210000000  0.5630270000000 1.0
C      1  0.4939290000000  0.5519580000000  0.5698410000000 1.0
C      1  0.4286840000000  0.5782650000000  0.5261430000000 1.0
C      1  0.4312480000000  0.4288500000000  0.5392030000000 1.0
C      1  0.4078910000000  0.5333750000000  0.4653290000000 1.0
C      1  0.4013990000000  0.4703480000000  0.4548080000000 1.0
C      1  0.4633180000000  0.5205390000000  0.5174190000000 1.0
C      1  0.4546100000000  0.4879390000000  0.5111440000000 1.0
C      1  0.5016450000000  0.4588730000000  0.4321290000000 1.0
C      1  0.5012850000000  0.5344410000000  0.4317390000000 1.0
C      1  0.3760030000000  0.4744800000000  0.4980520000000 1.0
C      1  0.3789180000000  0.5290470000000  0.5047860000000 1.0
C      1  0.4839110000000  0.4379200000000  0.4516760000000 1.0
C      1  0.4825650000000  0.5558460000000  0.4510340000000 1.0
C      1  0.5846340000000  0.5485620000000  0.4356680000000 1.0
C      1  0.5732090000000  0.4549370000000  0.4439980000000 1.0
C      1  0.5890400000000  0.5110190000000  0.4720790000000 1.0
C      1  0.5904090000000  0.4793530000000  0.4710090000000 1.0
C      1  0.4737650000000  0.4049420000000  0.4925790000000 1.0
C      1  0.4709930000000  0.6032860000000  0.4979260000000 1.0
C      1  0.5400720000000  0.5007280000000  0.4785260000000 1.0
END
