TITL C-2782226-7400-329 0.00282495343300239 125000 -1110.80273506032 0 0 195 (C1) n - 1
REM
REM in /home/nfs/bkarasulu/CARBON/AIRSS/Generating-Clusters/REBO/Higher-Symm/SD-CG/HFTN-CG
REM
REM
REM
REM
REM
REM ./C.cell (12c818d87b63d06a65506943cc24bca4)
REM
REM compiler GCC version 9.2.1 20190827 (Red Hat 9.2.1-1)
REM options -cpp -mtune=generic -march=x86-64 -g -O0 -fpre-include=/usr/include/finclude/math-vector-fortran.h
REM seed -1620936527 1026793376 2068304233 -498945849 -640662939 -923436985 308798618 2052712098 -1713601192 -1900325534 -1334001444 662226725 675675968 2102444929 271543602 -95522572 -206842412 -498352531 46263701 886623230 -16824127 -1433128263 -1726267667 1110647127 -351052301 -1862524271 -536279497 -2099327145 -88990396 -309600113 -225274872 1483611052 692632268
REM
CELL 1.54180   50.00000   50.00000   50.00000   90.00000   90.00000   90.00000
LATT -1
SFAC C  
C      1  0.4904890000000  0.5501580000000  0.4453390000000 1.0
C      1  0.4836870000000  0.4464240000000  0.5564760000000 1.0
C      1  0.5172460000000  0.5611310000000  0.4464690000000 1.0
C      1  0.5111120000000  0.4370680000000  0.5539500000000 1.0
C      1  0.4862190000000  0.5491320000000  0.5557100000000 1.0
C      1  0.4839840000000  0.4476080000000  0.4428540000000 1.0
C      1  0.5130640000000  0.5609720000000  0.5558280000000 1.0
C      1  0.5115180000000  0.4378170000000  0.4444610000000 1.0
C      1  0.4099170000000  0.5515770000000  0.4499170000000 1.0
C      1  0.4069510000000  0.4481260000000  0.5498640000000 1.0
C      1  0.5908960000000  0.5498310000000  0.4539360000000 1.0
C      1  0.5897320000000  0.4531740000000  0.5477180000000 1.0
C      1  0.4072340000000  0.5474510000000  0.5467400000000 1.0
C      1  0.4050140000000  0.4506020000000  0.4516230000000 1.0
C      1  0.5947750000000  0.5512940000000  0.5514490000000 1.0
C      1  0.5891650000000  0.4510300000000  0.4499910000000 1.0
C      1  0.4824920000000  0.5886150000000  0.5588440000000 1.0
C      1  0.4852890000000  0.4079080000000  0.4404160000000 1.0
C      1  0.5129120000000  0.5927690000000  0.5686670000000 1.0
C      1  0.5151390000000  0.4061750000000  0.4309410000000 1.0
C      1  0.4885590000000  0.5897990000000  0.4415650000000 1.0
C      1  0.4856610000000  0.4066680000000  0.5590380000000 1.0
C      1  0.5191710000000  0.5926560000000  0.4331350000000 1.0
C      1  0.5163030000000  0.4062310000000  0.5677490000000 1.0
C      1  0.5125130000000  0.4759880000000  0.4295550000000 1.0
C      1  0.5167020000000  0.5192910000000  0.5688650000000 1.0
C      1  0.4785250000000  0.4767740000000  0.4346730000000 1.0
C      1  0.4826470000000  0.5199230000000  0.5648200000000 1.0
C      1  0.5167180000000  0.4793500000000  0.5670060000000 1.0
C      1  0.5155870000000  0.5228510000000  0.4305570000000 1.0
C      1  0.4828110000000  0.4750570000000  0.5648050000000 1.0
C      1  0.4814070000000  0.5210180000000  0.4353650000000 1.0
C      1  0.4879530000000  0.5477580000000  0.5159970000000 1.0
C      1  0.4758690000000  0.4458280000000  0.4867830000000 1.0
C      1  0.5188040000000  0.5401420000000  0.5223760000000 1.0
C      1  0.5187470000000  0.4643120000000  0.4832980000000 1.0
C      1  0.4870900000000  0.5523680000000  0.4856200000000 1.0
C      1  0.4828400000000  0.4489210000000  0.5166700000000 1.0
C      1  0.5180470000000  0.5417300000000  0.4812810000000 1.0
C      1  0.5131350000000  0.4574070000000  0.5135210000000 1.0
C      1  0.5637690000000  0.4516960000000  0.5684080000000 1.0
C      1  0.5667690000000  0.5477510000000  0.4307520000000 1.0
C      1  0.4351290000000  0.4487080000000  0.5675130000000 1.0
C      1  0.4382490000000  0.5508250000000  0.4319320000000 1.0
C      1  0.5630120000000  0.4506350000000  0.4293530000000 1.0
C      1  0.5676990000000  0.5533310000000  0.5709560000000 1.0
C      1  0.4322390000000  0.4499780000000  0.4317440000000 1.0
C      1  0.4347660000000  0.5487670000000  0.5582860000000 1.0
C      1  0.4887370000000  0.5127630000000  0.5966870000000 1.0
C      1  0.4811800000000  0.4812560000000  0.4021850000000 1.0
C      1  0.5217130000000  0.5193070000000  0.6019250000000 1.0
C      1  0.5150220000000  0.4829710000000  0.3976350000000 1.0
C      1  0.4844800000000  0.5153590000000  0.4028860000000 1.0
C      1  0.4845490000000  0.4789930000000  0.5976140000000 1.0
C      1  0.5182790000000  0.5168850000000  0.3982400000000 1.0
C      1  0.5178600000000  0.4855360000000  0.5997200000000 1.0
C      1  0.3842670000000  0.5086180000000  0.4732360000000 1.0
C      1  0.3860520000000  0.4913600000000  0.5274400000000 1.0
C      1  0.6132690000000  0.5102890000000  0.4753220000000 1.0
C      1  0.6154950000000  0.4919790000000  0.5230080000000 1.0
C      1  0.3869990000000  0.5162270000000  0.5258870000000 1.0
C      1  0.3830200000000  0.4838020000000  0.4758060000000 1.0
C      1  0.6169750000000  0.5170550000000  0.5246230000000 1.0
C      1  0.6131780000000  0.4852170000000  0.4741110000000 1.0
C      1  0.4128870000000  0.4810250000000  0.5597800000000 1.0
C      1  0.4120010000000  0.5179580000000  0.4405060000000 1.0
C      1  0.5879040000000  0.4843070000000  0.5628030000000 1.0
C      1  0.5864100000000  0.5166700000000  0.4459070000000 1.0
C      1  0.4100600000000  0.4837950000000  0.4420520000000 1.0
C      1  0.4135120000000  0.5151870000000  0.5590760000000 1.0
C      1  0.5837040000000  0.4833180000000  0.4394440000000 1.0
C      1  0.5898820000000  0.5183520000000  0.5611010000000 1.0
C      1  0.4333580000000  0.5236700000000  0.4655210000000 1.0
C      1  0.4336850000000  0.4733660000000  0.5346310000000 1.0
C      1  0.5631370000000  0.5183310000000  0.4706600000000 1.0
C      1  0.5671370000000  0.4843950000000  0.5373440000000 1.0
C      1  0.4312660000000  0.5201000000000  0.5306120000000 1.0
C      1  0.4296610000000  0.4766280000000  0.4685390000000 1.0
C      1  0.5691890000000  0.5254690000000  0.5354640000000 1.0
C      1  0.5645470000000  0.4782560000000  0.4658060000000 1.0
C      1  0.5921370000000  0.5336400000000  0.5159570000000 1.0
C      1  0.5883470000000  0.4694700000000  0.4850910000000 1.0
C      1  0.4095250000000  0.5326040000000  0.5106250000000 1.0
C      1  0.4065780000000  0.4669790000000  0.4876660000000 1.0
C      1  0.5894380000000  0.5267120000000  0.4857920000000 1.0
C      1  0.5895370000000  0.4765720000000  0.5158940000000 1.0
C      1  0.4064280000000  0.5278000000000  0.4809660000000 1.0
C      1  0.4064120000000  0.4707910000000  0.5179210000000 1.0
C      1  0.5651710000000  0.4186870000000  0.4692190000000 1.0
C      1  0.5666850000000  0.5852420000000  0.5316610000000 1.0
C      1  0.4310550000000  0.4149690000000  0.4714600000000 1.0
C      1  0.4358470000000  0.5844200000000  0.5304750000000 1.0
C      1  0.5652530000000  0.4252120000000  0.5288050000000 1.0
C      1  0.5711320000000  0.5806850000000  0.4698190000000 1.0
C      1  0.4292550000000  0.4139580000000  0.5285210000000 1.0
C      1  0.4334760000000  0.5810010000000  0.4697140000000 1.0
C      1  0.4544340000000  0.5855910000000  0.4432930000000 1.0
C      1  0.4516460000000  0.4084380000000  0.5537760000000 1.0
C      1  0.5505360000000  0.5829390000000  0.4426250000000 1.0
C      1  0.5462000000000  0.4180300000000  0.5561480000000 1.0
C      1  0.4481750000000  0.5863140000000  0.5577730000000 1.0
C      1  0.4513060000000  0.4102990000000  0.4444050000000 1.0
C      1  0.5450020000000  0.5881370000000  0.5577940000000 1.0
C      1  0.5460140000000  0.4164120000000  0.4411740000000 1.0
C      1  0.4527610000000  0.4836400000000  0.5599700000000 1.0
C      1  0.4517980000000  0.5143660000000  0.4401820000000 1.0
C      1  0.5481500000000  0.4879460000000  0.5646680000000 1.0
C      1  0.5467160000000  0.5150320000000  0.4415940000000 1.0
C      1  0.4498650000000  0.4842080000000  0.4420470000000 1.0
C      1  0.4532170000000  0.5134190000000  0.5560850000000 1.0
C      1  0.5437270000000  0.4837420000000  0.4389910000000 1.0
C      1  0.5500840000000  0.5187760000000  0.5628570000000 1.0
C      1  0.4552480000000  0.5107640000000  0.5140760000000 1.0
C      1  0.4538860000000  0.4844350000000  0.4840910000000 1.0
C      1  0.5446430000000  0.5199280000000  0.5197020000000 1.0
C      1  0.5410430000000  0.4864060000000  0.4825560000000 1.0
C      1  0.4550610000000  0.5153280000000  0.4831250000000 1.0
C      1  0.4549780000000  0.4795660000000  0.5147990000000 1.0
C      1  0.5386710000000  0.5193230000000  0.4893290000000 1.0
C      1  0.5476970000000  0.4883410000000  0.5128930000000 1.0
C      1  0.4846600000000  0.5793110000000  0.5282520000000 1.0
C      1  0.4858020000000  0.4180990000000  0.4707840000000 1.0
C      1  0.5168110000000  0.5743270000000  0.5183660000000 1.0
C      1  0.5127380000000  0.4308140000000  0.4837100000000 1.0
C      1  0.4873480000000  0.5826180000000  0.4727790000000 1.0
C      1  0.4839190000000  0.4172210000000  0.5291430000000 1.0
C      1  0.5185450000000  0.5760960000000  0.4849080000000 1.0
C      1  0.5135110000000  0.4235180000000  0.5164440000000 1.0
C      1  0.5376860000000  0.4094570000000  0.4847520000000 1.0
C      1  0.5400570000000  0.5962210000000  0.5146950000000 1.0
C      1  0.4600550000000  0.4068970000000  0.4865310000000 1.0
C      1  0.4591150000000  0.5896090000000  0.5136930000000 1.0
C      1  0.5410270000000  0.4074210000000  0.5181400000000 1.0
C      1  0.5439350000000  0.5955040000000  0.4804670000000 1.0
C      1  0.4592460000000  0.4060070000000  0.5144550000000 1.0
C      1  0.4605930000000  0.5919720000000  0.4856970000000 1.0
C      1  0.5396900000000  0.4605880000000  0.4049220000000 1.0
C      1  0.5441360000000  0.5422230000000  0.5946600000000 1.0
C      1  0.4562570000000  0.4583120000000  0.4075040000000 1.0
C      1  0.4643600000000  0.5365470000000  0.5959900000000 1.0
C      1  0.5406110000000  0.4611070000000  0.5932310000000 1.0
C      1  0.5438080000000  0.5377460000000  0.4065900000000 1.0
C      1  0.4592820000000  0.4569770000000  0.5913900000000 1.0
C      1  0.4607080000000  0.5397110000000  0.4072080000000 1.0
C      1  0.5342840000000  0.5661260000000  0.4173040000000 1.0
C      1  0.5305860000000  0.4342020000000  0.5819660000000 1.0
C      1  0.4728930000000  0.5670640000000  0.4212940000000 1.0
C      1  0.4664360000000  0.4266060000000  0.5789440000000 1.0
C      1  0.5325910000000  0.5682060000000  0.5827560000000 1.0
C      1  0.5298280000000  0.4333250000000  0.4159720000000 1.0
C      1  0.4660260000000  0.5649040000000  0.5773060000000 1.0
C      1  0.4669640000000  0.4283900000000  0.4197720000000 1.0
C      1  0.4053490000000  0.4362210000000  0.5173480000000 1.0
C      1  0.4086400000000  0.5617360000000  0.4829820000000 1.0
C      1  0.5906370000000  0.4428900000000  0.5148520000000 1.0
C      1  0.5932420000000  0.5606240000000  0.4864690000000 1.0
C      1  0.4058090000000  0.4350780000000  0.4825080000000 1.0
C      1  0.4113020000000  0.5648010000000  0.5172350000000 1.0
C      1  0.5914250000000  0.4369570000000  0.4811120000000 1.0
C      1  0.5922060000000  0.5657220000000  0.5204120000000 1.0
C      1  0.5717960000000  0.5250430000000  0.5887700000000 1.0
C      1  0.5654670000000  0.4799600000000  0.4123050000000 1.0
C      1  0.4366560000000  0.5269530000000  0.5818060000000 1.0
C      1  0.4297550000000  0.4783930000000  0.4148100000000 1.0
C      1  0.5696210000000  0.5177000000000  0.4161050000000 1.0
C      1  0.5691940000000  0.4776160000000  0.5896600000000 1.0
C      1  0.4321240000000  0.5231920000000  0.4135840000000 1.0
C      1  0.4326400000000  0.4765110000000  0.5867290000000 1.0
C      1  0.4533400000000  0.4428760000000  0.4540520000000 1.0
C      1  0.4562730000000  0.5514160000000  0.5401240000000 1.0
C      1  0.5415010000000  0.4473530000000  0.4552570000000 1.0
C      1  0.5455770000000  0.5553000000000  0.5472180000000 1.0
C      1  0.4547980000000  0.4404820000000  0.5436060000000 1.0
C      1  0.4597290000000  0.5542100000000  0.4566150000000 1.0
C      1  0.5399220000000  0.4504020000000  0.5456400000000 1.0
C      1  0.5473610000000  0.5518650000000  0.4567120000000 1.0
C      1  0.4473730000000  0.5543970000000  0.4865490000000 1.0
C      1  0.4425550000000  0.4421230000000  0.5145370000000 1.0
C      1  0.5536760000000  0.5576760000000  0.4887140000000 1.0
C      1  0.5526330000000  0.4546680000000  0.5154150000000 1.0
C      1  0.4485500000000  0.5510840000000  0.5125710000000 1.0
C      1  0.4445570000000  0.4435620000000  0.4850040000000 1.0
C      1  0.5532920000000  0.5586350000000  0.5148100000000 1.0
C      1  0.5534220000000  0.4459410000000  0.4861270000000 1.0
C      1  0.4846230000000  0.4825440000000  0.5256550000000 1.0
C      1  0.4826640000000  0.5246930000000  0.4750540000000 1.0
C      1  0.5156680000000  0.4799870000000  0.5349200000000 1.0
C      1  0.5110410000000  0.5148270000000  0.4611090000000 1.0
C      1  0.4811850000000  0.4728470000000  0.4741600000000 1.0
C      1  0.4828380000000  0.5176890000000  0.5251130000000 1.0
C      1  0.5089370000000  0.4840640000000  0.4592380000000 1.0
C      1  0.5110120000000  0.5109520000000  0.5384890000000 1.0
C      1  0.5402130000000  0.3805760000000  0.5000530000000 1.0
C      1  0.5426870000000  0.6234080000000  0.4969590000000 1.0
C      1  0.4904320000000  0.4986930000000  0.4911110000000 1.0
END
