TITL C-2782237-5345-1172 -0.00598367597123088 125000 -250.622859982285 0 0 43 (C1) n - 1
REM
REM in /home/nfs/bkarasulu/CARBON/AIRSS/Generating-Clusters/REBO/Higher-Symm/SD-CG/HFTN-CG
REM
REM
REM
REM
REM
REM ./C.cell (12c818d87b63d06a65506943cc24bca4)
REM
REM compiler GCC version 9.2.1 20190827 (Red Hat 9.2.1-1)
REM options -cpp -mtune=generic -march=x86-64 -g -O0 -fpre-include=/usr/include/finclude/math-vector-fortran.h
REM seed -1972345403 -728185316 -2113928237 1538732323 -58025617 605463658 -224048410 -467812685 -1169255710 -385330713 1728162120 -1397943829 -95545884 1735912912 1855027375 1048251411 -59546283 -535165378 -432753176 -1304809923 65604065 -2129161528 -729706189 -1753200475 -252960946 -147408064 -1209366039 810518756 1576485609 641009609 -1940828778 1926759849 2063158912
REM
CELL 1.54180   50.00000   50.00000   50.00000   90.00000   90.00000   90.00000
LATT -1
SFAC C  
C      1  0.5305940000000  0.4523700000000  0.5179560000000 1.0
C      1  0.4613130000000  0.4469600000000  0.4903730000000 1.0
C      1  0.5236230000000  0.4862810000000  0.4782400000000 1.0
C      1  0.4702470000000  0.4991250000000  0.4717290000000 1.0
C      1  0.5358100000000  0.5327480000000  0.4560010000000 1.0
C      1  0.4657910000000  0.5356040000000  0.4870040000000 1.0
C      1  0.5356310000000  0.5368060000000  0.5104870000000 1.0
C      1  0.4638630000000  0.5273580000000  0.5259980000000 1.0
C      1  0.5344110000000  0.5051450000000  0.5347450000000 1.0
C      1  0.4648110000000  0.4875700000000  0.5245790000000 1.0
C      1  0.4158780000000  0.5153320000000  0.5152360000000 1.0
C      1  0.5811430000000  0.4982480000000  0.5226690000000 1.0
C      1  0.4166930000000  0.4860740000000  0.5190070000000 1.0
C      1  0.5771300000000  0.4720350000000  0.5064860000000 1.0
C      1  0.4165260000000  0.4728780000000  0.4926180000000 1.0
C      1  0.5739370000000  0.4857150000000  0.4777570000000 1.0
C      1  0.4205070000000  0.4944390000000  0.4729730000000 1.0
C      1  0.5804650000000  0.5165820000000  0.4741460000000 1.0
C      1  0.4178080000000  0.5205130000000  0.4863870000000 1.0
C      1  0.5825930000000  0.5240790000000  0.5040110000000 1.0
C      1  0.5033330000000  0.4596350000000  0.5166330000000 1.0
C      1  0.4882030000000  0.4554790000000  0.4912950000000 1.0
C      1  0.4989810000000  0.4717200000000  0.4699320000000 1.0
C      1  0.4953930000000  0.5023250000000  0.4551470000000 1.0
C      1  0.5090370000000  0.5273080000000  0.4627340000000 1.0
C      1  0.4949740000000  0.5410830000000  0.4847800000000 1.0
C      1  0.5072060000000  0.5440260000000  0.5109070000000 1.0
C      1  0.4927780000000  0.5308190000000  0.5328030000000 1.0
C      1  0.5057730000000  0.5056130000000  0.5408550000000 1.0
C      1  0.4924380000000  0.4813790000000  0.5325380000000 1.0
C      1  0.5593320000000  0.5018500000000  0.5434820000000 1.0
C      1  0.4400450000000  0.4789730000000  0.5338320000000 1.0
C      1  0.5572960000000  0.4550910000000  0.5143900000000 1.0
C      1  0.4343860000000  0.4507730000000  0.4900010000000 1.0
C      1  0.5462430000000  0.4796750000000  0.4651300000000 1.0
C      1  0.4457220000000  0.4925730000000  0.4598420000000 1.0
C      1  0.5627040000000  0.5303530000000  0.4586400000000 1.0
C      1  0.4390990000000  0.5386180000000  0.4801600000000 1.0
C      1  0.5611840000000  0.5441620000000  0.5120450000000 1.0
C      1  0.4364370000000  0.5290470000000  0.5298580000000 1.0
C      1  0.4813490000000  0.5078320000000  0.5023230000000 1.0
C      1  0.5530280000000  0.5027740000000  0.4995060000000 1.0
C      1  0.5190090000000  0.5066780000000  0.5031740000000 1.0
END
