TITL C-2782226-7400-1301 0.00562149391337259 125000 -896.205830656138 0 0 155 (C1) n - 1
REM
REM in /home/nfs/bkarasulu/CARBON/AIRSS/Generating-Clusters/REBO/Higher-Symm/SD-CG/HFTN-CG
REM
REM
REM
REM
REM
REM ./C.cell (12c818d87b63d06a65506943cc24bca4)
REM
REM compiler GCC version 9.2.1 20190827 (Red Hat 9.2.1-1)
REM options -cpp -mtune=generic -march=x86-64 -g -O0 -fpre-include=/usr/include/finclude/math-vector-fortran.h
REM seed -2071461492 1468721280 827205302 227732577 616235948 434839316 -680047578 -473437854 2108735226 409580012 1216370657 1682094876 815351596 537675762 -1797062623 -1519584564 -1469078327 -1992242866 981277431 -2013649539 -989288894 545995679 1227402329 -594096894 -774496144 151622557 -2121776900 1740212718 1442846010 825002797 1347522350 -680239370 -1592705406
REM
CELL 1.54180   50.00000   50.00000   50.00000   90.00000   90.00000   90.00000
LATT -1
SFAC C  
C      1  0.4780770000000  0.5655250000000  0.5209900000000 1.0
C      1  0.5278000000000  0.5632110000000  0.5242530000000 1.0
C      1  0.5391520000000  0.5699790000000  0.4934110000000 1.0
C      1  0.4935030000000  0.5645190000000  0.4657320000000 1.0
C      1  0.4716180000000  0.5668420000000  0.4905390000000 1.0
C      1  0.4810630000000  0.4362360000000  0.5309320000000 1.0
C      1  0.5136490000000  0.4337060000000  0.5309060000000 1.0
C      1  0.5339740000000  0.4360890000000  0.4803920000000 1.0
C      1  0.4998540000000  0.4343500000000  0.4595940000000 1.0
C      1  0.4629940000000  0.4359160000000  0.4953160000000 1.0
C      1  0.4789660000000  0.5141330000000  0.5814820000000 1.0
C      1  0.5799600000000  0.5162560000000  0.5464670000000 1.0
C      1  0.5672040000000  0.5170120000000  0.4461760000000 1.0
C      1  0.4640330000000  0.5157130000000  0.4188600000000 1.0
C      1  0.4087310000000  0.5165280000000  0.5124460000000 1.0
C      1  0.4796810000000  0.4817590000000  0.5913870000000 1.0
C      1  0.5716760000000  0.4832480000000  0.5478670000000 1.0
C      1  0.5691670000000  0.4844730000000  0.4362250000000 1.0
C      1  0.4659030000000  0.4816020000000  0.4168950000000 1.0
C      1  0.4095180000000  0.4849730000000  0.5101130000000 1.0
C      1  0.4909720000000  0.4663740000000  0.5211060000000 1.0
C      1  0.5176660000000  0.4765470000000  0.5142580000000 1.0
C      1  0.5239020000000  0.4679440000000  0.4875140000000 1.0
C      1  0.4976560000000  0.4649070000000  0.4737320000000 1.0
C      1  0.4761320000000  0.4664630000000  0.4942680000000 1.0
C      1  0.4912930000000  0.5163110000000  0.5206280000000 1.0
C      1  0.5189920000000  0.5068210000000  0.5158050000000 1.0
C      1  0.5220800000000  0.5182330000000  0.4881590000000 1.0
C      1  0.4972100000000  0.5234190000000  0.4770920000000 1.0
C      1  0.4786680000000  0.5243570000000  0.4972130000000 1.0
C      1  0.5241400000000  0.5176270000000  0.4480990000000 1.0
C      1  0.4565240000000  0.5128020000000  0.4628530000000 1.0
C      1  0.4466100000000  0.5182010000000  0.5333840000000 1.0
C      1  0.5139200000000  0.5121740000000  0.5559300000000 1.0
C      1  0.5654970000000  0.5150650000000  0.5067950000000 1.0
C      1  0.5202320000000  0.4841230000000  0.4443240000000 1.0
C      1  0.4548320000000  0.4786510000000  0.4627800000000 1.0
C      1  0.4476330000000  0.4854400000000  0.5319600000000 1.0
C      1  0.5128630000000  0.4796500000000  0.5601710000000 1.0
C      1  0.5571590000000  0.4819910000000  0.5046330000000 1.0
C      1  0.5914210000000  0.5373790000000  0.5274670000000 1.0
C      1  0.5497800000000  0.5396380000000  0.4274360000000 1.0
C      1  0.4437850000000  0.5339730000000  0.4315640000000 1.0
C      1  0.4122800000000  0.5387240000000  0.5331590000000 1.0
C      1  0.5046170000000  0.5359470000000  0.5866360000000 1.0
C      1  0.5861560000000  0.4624230000000  0.5249490000000 1.0
C      1  0.5519100000000  0.4646030000000  0.4206800000000 1.0
C      1  0.4436080000000  0.4581750000000  0.4279030000000 1.0
C      1  0.4141290000000  0.4640830000000  0.5349380000000 1.0
C      1  0.5050710000000  0.4593920000000  0.5965020000000 1.0
C      1  0.5370930000000  0.5325450000000  0.5807960000000 1.0
C      1  0.5957010000000  0.5369340000000  0.4936440000000 1.0
C      1  0.5186920000000  0.5369900000000  0.4138980000000 1.0
C      1  0.4208900000000  0.5286520000000  0.4562470000000 1.0
C      1  0.4312830000000  0.5416260000000  0.5612290000000 1.0
C      1  0.5353950000000  0.4593070000000  0.5856890000000 1.0
C      1  0.5900270000000  0.4649480000000  0.4904170000000 1.0
C      1  0.5204180000000  0.4666450000000  0.4085070000000 1.0
C      1  0.4223550000000  0.4594590000000  0.4505720000000 1.0
C      1  0.4324560000000  0.4669340000000  0.5634580000000 1.0
C      1  0.4745060000000  0.4065110000000  0.5412650000000 1.0
C      1  0.5328870000000  0.4088950000000  0.5318950000000 1.0
C      1  0.5291560000000  0.4080600000000  0.4663320000000 1.0
C      1  0.4990080000000  0.4046500000000  0.4503130000000 1.0
C      1  0.4593080000000  0.4086530000000  0.5106210000000 1.0
C      1  0.4945670000000  0.5901240000000  0.5377290000000 1.0
C      1  0.5286880000000  0.5929970000000  0.5360460000000 1.0
C      1  0.5418140000000  0.5977470000000  0.4783390000000 1.0
C      1  0.4775280000000  0.5941960000000  0.4621870000000 1.0
C      1  0.4533800000000  0.5937800000000  0.4864210000000 1.0
C      1  0.4925050000000  0.4323580000000  0.5913430000000 1.0
C      1  0.5802530000000  0.4324970000000  0.5335380000000 1.0
C      1  0.5568990000000  0.4354990000000  0.4283050000000 1.0
C      1  0.4545350000000  0.4302440000000  0.4230910000000 1.0
C      1  0.4152560000000  0.4358360000000  0.5257640000000 1.0
C      1  0.4959520000000  0.5636770000000  0.5829170000000 1.0
C      1  0.5819080000000  0.5655880000000  0.5348800000000 1.0
C      1  0.5555550000000  0.5674000000000  0.4360180000000 1.0
C      1  0.4510910000000  0.5623450000000  0.4298910000000 1.0
C      1  0.4154980000000  0.5665440000000  0.5175370000000 1.0
C      1  0.5505390000000  0.5409050000000  0.5354220000000 1.0
C      1  0.5440540000000  0.5483380000000  0.4696480000000 1.0
C      1  0.4811730000000  0.5406790000000  0.4448440000000 1.0
C      1  0.4326050000000  0.5447620000000  0.4975600000000 1.0
C      1  0.4829520000000  0.5451510000000  0.5468390000000 1.0
C      1  0.5421430000000  0.4499600000000  0.5313260000000 1.0
C      1  0.5510690000000  0.4586540000000  0.4602220000000 1.0
C      1  0.4808970000000  0.4540220000000  0.4412290000000 1.0
C      1  0.4381810000000  0.4590300000000  0.5026470000000 1.0
C      1  0.4783030000000  0.4607800000000  0.5669000000000 1.0
C      1  0.5473900000000  0.4857080000000  0.4738240000000 1.0
C      1  0.4882220000000  0.4845550000000  0.4423050000000 1.0
C      1  0.4493640000000  0.4876220000000  0.4928810000000 1.0
C      1  0.4767130000000  0.4801930000000  0.5434790000000 1.0
C      1  0.5387290000000  0.4818100000000  0.5399330000000 1.0
C      1  0.5517170000000  0.5174210000000  0.4766870000000 1.0
C      1  0.4932100000000  0.5133300000000  0.4480360000000 1.0
C      1  0.4487310000000  0.5190270000000  0.4938430000000 1.0
C      1  0.4748950000000  0.5127020000000  0.5478460000000 1.0
C      1  0.5396200000000  0.5151310000000  0.5370720000000 1.0
C      1  0.4734420000000  0.5781850000000  0.4341050000000 1.0
C      1  0.4243290000000  0.5828870000000  0.4909070000000 1.0
C      1  0.4814670000000  0.5799960000000  0.5656750000000 1.0
C      1  0.5590010000000  0.5790050000000  0.5434220000000 1.0
C      1  0.5617200000000  0.5825630000000  0.4604730000000 1.0
C      1  0.4796790000000  0.4176070000000  0.4254650000000 1.0
C      1  0.4278420000000  0.4208210000000  0.5057890000000 1.0
C      1  0.4763520000000  0.4212110000000  0.5718720000000 1.0
C      1  0.5600160000000  0.4168840000000  0.5441120000000 1.0
C      1  0.5576770000000  0.4204410000000  0.4524780000000 1.0
C      1  0.5580620000000  0.5117980000000  0.5722510000000 1.0
C      1  0.5911870000000  0.5167880000000  0.4713070000000 1.0
C      1  0.4964590000000  0.5162430000000  0.4083750000000 1.0
C      1  0.4126750000000  0.5100750000000  0.4792000000000 1.0
C      1  0.4454540000000  0.5189640000000  0.5740950000000 1.0
C      1  0.5532750000000  0.4809360000000  0.5770650000000 1.0
C      1  0.5861870000000  0.4870540000000  0.4646340000000 1.0
C      1  0.4979500000000  0.4856310000000  0.4037840000000 1.0
C      1  0.4139320000000  0.4782440000000  0.4769360000000 1.0
C      1  0.4488750000000  0.4883060000000  0.5773350000000 1.0
C      1  0.5006810000000  0.5622120000000  0.4265880000000 1.0
C      1  0.4268530000000  0.5590390000000  0.4679140000000 1.0
C      1  0.4551360000000  0.5639640000000  0.5541140000000 1.0
C      1  0.5401820000000  0.5596990000000  0.5620210000000 1.0
C      1  0.5754300000000  0.5604760000000  0.4797360000000 1.0
C      1  0.5045160000000  0.4396830000000  0.4203760000000 1.0
C      1  0.4277580000000  0.4387710000000  0.4771310000000 1.0
C      1  0.4520360000000  0.4406060000000  0.5630770000000 1.0
C      1  0.5381220000000  0.4353560000000  0.5623670000000 1.0
C      1  0.5734790000000  0.4387160000000  0.4764790000000 1.0
C      1  0.4500040000000  0.5476150000000  0.5245790000000 1.0
C      1  0.5130680000000  0.5439800000000  0.5484310000000 1.0
C      1  0.5594730000000  0.5472840000000  0.5061780000000 1.0
C      1  0.5196020000000  0.5491940000000  0.4518460000000 1.0
C      1  0.4579070000000  0.5467070000000  0.4667130000000 1.0
C      1  0.4518050000000  0.4516330000000  0.5311990000000 1.0
C      1  0.5071580000000  0.4491810000000  0.5582570000000 1.0
C      1  0.5552720000000  0.4492150000000  0.5034950000000 1.0
C      1  0.5233380000000  0.4527180000000  0.4456840000000 1.0
C      1  0.4579960000000  0.4474830000000  0.4636610000000 1.0
C      1  0.5244970000000  0.3849730000000  0.4892320000000 1.0
C      1  0.4975020000000  0.3851840000000  0.4749030000000 1.0
C      1  0.4770610000000  0.3855340000000  0.4949520000000 1.0
C      1  0.4904390000000  0.3864760000000  0.5222980000000 1.0
C      1  0.5196970000000  0.3875090000000  0.5179640000000 1.0
C      1  0.5218660000000  0.6156300000000  0.4871880000000 1.0
C      1  0.4962370000000  0.6183450000000  0.4733370000000 1.0
C      1  0.4736280000000  0.6174210000000  0.4943890000000 1.0
C      1  0.4864340000000  0.6168140000000  0.5201030000000 1.0
C      1  0.5167010000000  0.6151650000000  0.5160460000000 1.0
C      1  0.4226320000000  0.5012620000000  0.5464320000000 1.0
C      1  0.5154350000000  0.4984720000000  0.5859480000000 1.0
C      1  0.5890960000000  0.4928030000000  0.5104470000000 1.0
C      1  0.4380330000000  0.4957860000000  0.4415570000000 1.0
C      1  0.5369760000000  0.5025770000000  0.4227220000000 1.0
END
