TITL C-2782233-7966-112 0.00349243904994269 125000 -756.398188195931 0 0 130 (C1) n - 1
REM
REM in /home/nfs/bkarasulu/CARBON/AIRSS/Generating-Clusters/REBO/Higher-Symm/SD-CG/HFTN-CG
REM
REM
REM
REM
REM
REM ./C.cell (12c818d87b63d06a65506943cc24bca4)
REM
REM compiler GCC version 9.2.1 20190827 (Red Hat 9.2.1-1)
REM options -cpp -mtune=generic -march=x86-64 -g -O0 -fpre-include=/usr/include/finclude/math-vector-fortran.h
REM seed 490300445 -248541801 1889655287 2082136952 194201465 -2057979161 1287280276 1140673266 366073507 -198239427 -2021329412 1562804078 1543210969 -1562347576 -799725676 -521468025 -1749061114 -1576571420 -1138576490 1374065786 -819091434 1755118652 290393683 -479586118 1798379596 1905804130 -1797235150 953486946 -940594603 231582598 445874509 2061489637 -1892618621
REM
CELL 1.54180   50.00000   50.00000   50.00000   90.00000   90.00000   90.00000
LATT -1
SFAC C  
C      1  0.5672270000000  0.4846100000000  0.4609310000000 1.0
C      1  0.4325880000000  0.4847030000000  0.5386500000000 1.0
C      1  0.4344270000000  0.5163190000000  0.4617990000000 1.0
C      1  0.5653710000000  0.5161730000000  0.5381970000000 1.0
C      1  0.4480010000000  0.4752780000000  0.4937850000000 1.0
C      1  0.5531970000000  0.4748090000000  0.5068770000000 1.0
C      1  0.5514170000000  0.5257530000000  0.4924790000000 1.0
C      1  0.4477920000000  0.5265460000000  0.5076870000000 1.0
C      1  0.5043750000000  0.4196630000000  0.5323460000000 1.0
C      1  0.4976290000000  0.4210410000000  0.4698920000000 1.0
C      1  0.4955990000000  0.5822040000000  0.5312200000000 1.0
C      1  0.5030580000000  0.5806980000000  0.4706670000000 1.0
C      1  0.5737340000000  0.4665590000000  0.4857640000000 1.0
C      1  0.4267370000000  0.4667210000000  0.5137900000000 1.0
C      1  0.4274040000000  0.5346200000000  0.4863850000000 1.0
C      1  0.5721510000000  0.5340380000000  0.5131910000000 1.0
C      1  0.4690890000000  0.4170270000000  0.4645150000000 1.0
C      1  0.5324910000000  0.4164330000000  0.5365320000000 1.0
C      1  0.5313370000000  0.5851060000000  0.4643870000000 1.0
C      1  0.4676430000000  0.5855050000000  0.5363080000000 1.0
C      1  0.5505860000000  0.5743900000000  0.4888720000000 1.0
C      1  0.4504410000000  0.5746770000000  0.5111270000000 1.0
C      1  0.4509610000000  0.4276340000000  0.4898450000000 1.0
C      1  0.5489740000000  0.4270330000000  0.5105460000000 1.0
C      1  0.4403660000000  0.4923560000000  0.5856440000000 1.0
C      1  0.5581720000000  0.4929460000000  0.4141680000000 1.0
C      1  0.5569000000000  0.5095610000000  0.5853290000000 1.0
C      1  0.4432260000000  0.5089710000000  0.4147780000000 1.0
C      1  0.5494420000000  0.4261090000000  0.4548950000000 1.0
C      1  0.4517830000000  0.4274830000000  0.5422980000000 1.0
C      1  0.4509290000000  0.5756430000000  0.4558830000000 1.0
C      1  0.5479720000000  0.5740930000000  0.5409770000000 1.0
C      1  0.4588980000000  0.5780710000000  0.5614730000000 1.0
C      1  0.5398950000000  0.5787780000000  0.4388850000000 1.0
C      1  0.5418800000000  0.4232470000000  0.5615430000000 1.0
C      1  0.4597030000000  0.4232370000000  0.4393400000000 1.0
C      1  0.6011040000000  0.5272480000000  0.4739060000000 1.0
C      1  0.3984770000000  0.5277470000000  0.5256330000000 1.0
C      1  0.3989940000000  0.4739020000000  0.4736700000000 1.0
C      1  0.6014590000000  0.4738910000000  0.5258710000000 1.0
C      1  0.6217790000000  0.5269480000000  0.5187260000000 1.0
C      1  0.3774820000000  0.5307280000000  0.4810720000000 1.0
C      1  0.3767630000000  0.4715160000000  0.5176270000000 1.0
C      1  0.6239160000000  0.4687370000000  0.4821990000000 1.0
C      1  0.4855150000000  0.5297550000000  0.4109170000000 1.0
C      1  0.5151010000000  0.5277480000000  0.5884070000000 1.0
C      1  0.5139060000000  0.4709850000000  0.4083020000000 1.0
C      1  0.4867370000000  0.4715530000000  0.5939870000000 1.0
C      1  0.4315870000000  0.4359110000000  0.5166230000000 1.0
C      1  0.5662910000000  0.4364820000000  0.4826650000000 1.0
C      1  0.5692890000000  0.5654060000000  0.5159530000000 1.0
C      1  0.4331650000000  0.5654980000000  0.4831390000000 1.0
C      1  0.4829100000000  0.5401630000000  0.4774860000000 1.0
C      1  0.5166080000000  0.5369040000000  0.5224950000000 1.0
C      1  0.5154480000000  0.4598080000000  0.4761730000000 1.0
C      1  0.4870680000000  0.4636420000000  0.5244300000000 1.0
C      1  0.4417210000000  0.4729880000000  0.5657930000000 1.0
C      1  0.5576400000000  0.4732600000000  0.4336790000000 1.0
C      1  0.5564350000000  0.5283870000000  0.5650710000000 1.0
C      1  0.4438100000000  0.5280810000000  0.4347640000000 1.0
C      1  0.4699270000000  0.5517590000000  0.5776940000000 1.0
C      1  0.5299850000000  0.5524880000000  0.4223630000000 1.0
C      1  0.5307600000000  0.4492510000000  0.5781130000000 1.0
C      1  0.4695970000000  0.4488570000000  0.4218220000000 1.0
C      1  0.4091000000000  0.5035210000000  0.5438020000000 1.0
C      1  0.5904320000000  0.5035650000000  0.4552560000000 1.0
C      1  0.5895040000000  0.4981360000000  0.5433820000000 1.0
C      1  0.4107530000000  0.4979400000000  0.4560260000000 1.0
C      1  0.6013970000000  0.4698530000000  0.4981300000000 1.0
C      1  0.3991330000000  0.4709620000000  0.5014540000000 1.0
C      1  0.3994030000000  0.5308320000000  0.4978510000000 1.0
C      1  0.6001110000000  0.5290660000000  0.5017540000000 1.0
C      1  0.4840540000000  0.4607740000000  0.4847130000000 1.0
C      1  0.5177530000000  0.4588460000000  0.5159120000000 1.0
C      1  0.5152360000000  0.5396330000000  0.4827540000000 1.0
C      1  0.4836580000000  0.5413530000000  0.5173190000000 1.0
C      1  0.5221060000000  0.5131720000000  0.5008870000000 1.0
C      1  0.4772640000000  0.5150260000000  0.4990010000000 1.0
C      1  0.4773510000000  0.4864260000000  0.5036190000000 1.0
C      1  0.5237060000000  0.4845410000000  0.4964930000000 1.0
C      1  0.5461850000000  0.4533830000000  0.5305570000000 1.0
C      1  0.4556860000000  0.4541090000000  0.4702350000000 1.0
C      1  0.4548620000000  0.5482190000000  0.5305530000000 1.0
C      1  0.5440110000000  0.5478120000000  0.4703580000000 1.0
C      1  0.4698140000000  0.4358940000000  0.5166990000000 1.0
C      1  0.5334250000000  0.4363930000000  0.4817710000000 1.0
C      1  0.5310920000000  0.5648860000000  0.5146440000000 1.0
C      1  0.4659830000000  0.5637270000000  0.4828430000000 1.0
C      1  0.5004840000000  0.4490320000000  0.5773130000000 1.0
C      1  0.4996860000000  0.4487830000000  0.4236110000000 1.0
C      1  0.5000230000000  0.5505250000000  0.5738530000000 1.0
C      1  0.4999910000000  0.5518650000000  0.4258120000000 1.0
C      1  0.5440120000000  0.5047540000000  0.4686790000000 1.0
C      1  0.4553230000000  0.5053390000000  0.5309740000000 1.0
C      1  0.4572900000000  0.4957740000000  0.4703520000000 1.0
C      1  0.5425800000000  0.4953260000000  0.5300330000000 1.0
C      1  0.4585700000000  0.5519330000000  0.4345450000000 1.0
C      1  0.5420030000000  0.5524170000000  0.5645950000000 1.0
C      1  0.5423280000000  0.4496620000000  0.4334020000000 1.0
C      1  0.4572030000000  0.4494000000000  0.5656220000000 1.0
C      1  0.4820040000000  0.5077960000000  0.5450430000000 1.0
C      1  0.5162990000000  0.5077920000000  0.4556650000000 1.0
C      1  0.5119140000000  0.4910510000000  0.5396400000000 1.0
C      1  0.4853140000000  0.4921570000000  0.4576720000000 1.0
C      1  0.4929420000000  0.5303200000000  0.4500400000000 1.0
C      1  0.5062440000000  0.5289560000000  0.5497440000000 1.0
C      1  0.5086030000000  0.4697300000000  0.4477330000000 1.0
C      1  0.4894930000000  0.4700920000000  0.5544450000000 1.0
C      1  0.4166900000000  0.4681100000000  0.4466110000000 1.0
C      1  0.5845680000000  0.4685290000000  0.5536830000000 1.0
C      1  0.5834880000000  0.5336310000000  0.4469450000000 1.0
C      1  0.4155640000000  0.5333250000000  0.5531630000000 1.0
C      1  0.4455490000000  0.4604530000000  0.4430690000000 1.0
C      1  0.5558910000000  0.4604490000000  0.5577150000000 1.0
C      1  0.5545980000000  0.5412160000000  0.4430890000000 1.0
C      1  0.4443410000000  0.5410320000000  0.5576880000000 1.0
C      1  0.5409700000000  0.5204240000000  0.4199010000000 1.0
C      1  0.4576260000000  0.5202750000000  0.5810070000000 1.0
C      1  0.4594970000000  0.4811070000000  0.4201010000000 1.0
C      1  0.5413920000000  0.4813150000000  0.5798400000000 1.0
C      1  0.4839130000000  0.5710100000000  0.4479480000000 1.0
C      1  0.5158470000000  0.5711930000000  0.5524590000000 1.0
C      1  0.5165820000000  0.4305820000000  0.4461440000000 1.0
C      1  0.4837780000000  0.4305980000000  0.5540690000000 1.0
C      1  0.4805690000000  0.5057560000000  0.4282800000000 1.0
C      1  0.5207980000000  0.5041400000000  0.5693340000000 1.0
C      1  0.5202360000000  0.4944510000000  0.4261290000000 1.0
C      1  0.4787610000000  0.4949900000000  0.5755840000000 1.0
C      1  0.5008660000000  0.5667320000000  0.5013430000000 1.0
C      1  0.4992840000000  0.4334370000000  0.5015240000000 1.0
END
