TITL C-2782229-3092-312 0.00337635671358559 125000 -620.067072976346 0 0 112 (C1) n - 1
REM
REM in /home/nfs/bkarasulu/CARBON/AIRSS/Generating-Clusters/REBO/Higher-Symm/SD-CG/HFTN-CG
REM
REM
REM
REM
REM
REM ./C.cell (12c818d87b63d06a65506943cc24bca4)
REM
REM compiler GCC version 9.2.1 20190827 (Red Hat 9.2.1-1)
REM options -cpp -mtune=generic -march=x86-64 -g -O0 -fpre-include=/usr/include/finclude/math-vector-fortran.h
REM seed -1542697371 -1000145966 -1559237698 1998641587 -622313039 -728909450 -1961909952 635715513 -939538040 -1840714247 718541412 412629244 2081817186 -1606616956 1929882063 456334880 -764493115 -1753050246 -1744764170 -370828232 189922907 914802547 1991679127 -1228178805 -518790901 -890865409 1672267262 1896933067 -879946533 -753282552 -2129730812 1467946002 -1474839481
REM
CELL 1.54180   50.00000   50.00000   50.00000   90.00000   90.00000   90.00000
LATT -1
SFAC C  
C      1  0.4586510000000  0.5095970000000  0.4917460000000 1.0
C      1  0.4964720000000  0.5390560000000  0.5062020000000 1.0
C      1  0.5333770000000  0.5039740000000  0.5008650000000 1.0
C      1  0.5285060000000  0.4645980000000  0.4963330000000 1.0
C      1  0.4626350000000  0.4739270000000  0.5162290000000 1.0
C      1  0.5382320000000  0.5774280000000  0.4979820000000 1.0
C      1  0.5901830000000  0.4856920000000  0.4911640000000 1.0
C      1  0.5108470000000  0.4133610000000  0.5001140000000 1.0
C      1  0.4113500000000  0.4555780000000  0.4978560000000 1.0
C      1  0.4371690000000  0.5593560000000  0.4903760000000 1.0
C      1  0.4978050000000  0.5392940000000  0.4440740000000 1.0
C      1  0.5256680000000  0.5196810000000  0.4423310000000 1.0
C      1  0.5233430000000  0.4851460000000  0.4418550000000 1.0
C      1  0.4926630000000  0.4704810000000  0.4381590000000 1.0
C      1  0.4717330000000  0.4896370000000  0.4500470000000 1.0
C      1  0.5239850000000  0.4077370000000  0.5554440000000 1.0
C      1  0.4167820000000  0.4555980000000  0.5487090000000 1.0
C      1  0.4530310000000  0.5631800000000  0.5458040000000 1.0
C      1  0.5373060000000  0.5903710000000  0.5537630000000 1.0
C      1  0.5962800000000  0.4975490000000  0.5481980000000 1.0
C      1  0.4972530000000  0.4702440000000  0.5789570000000 1.0
C      1  0.4455680000000  0.4755200000000  0.5794570000000 1.0
C      1  0.4784120000000  0.5241500000000  0.5818310000000 1.0
C      1  0.5176080000000  0.5266960000000  0.5750040000000 1.0
C      1  0.5317240000000  0.4896630000000  0.5766490000000 1.0
C      1  0.5580770000000  0.5990350000000  0.5679300000000 1.0
C      1  0.6122210000000  0.4824370000000  0.5640200000000 1.0
C      1  0.5120700000000  0.3883030000000  0.5699950000000 1.0
C      1  0.4173760000000  0.4826310000000  0.5467130000000 1.0
C      1  0.4495570000000  0.5898650000000  0.5594730000000 1.0
C      1  0.4132620000000  0.4395600000000  0.5230740000000 1.0
C      1  0.4354380000000  0.5584360000000  0.5195190000000 1.0
C      1  0.5286130000000  0.5850460000000  0.5246950000000 1.0
C      1  0.5962280000000  0.4973750000000  0.5178490000000 1.0
C      1  0.5248480000000  0.4095580000000  0.5253020000000 1.0
C      1  0.5217950000000  0.5498440000000  0.4881930000000 1.0
C      1  0.5580800000000  0.4885060000000  0.4839600000000 1.0
C      1  0.5060730000000  0.4456360000000  0.4913080000000 1.0
C      1  0.4364470000000  0.4771210000000  0.4986710000000 1.0
C      1  0.4566180000000  0.5351590000000  0.4762470000000 1.0
C      1  0.4404060000000  0.4892170000000  0.4580310000000 1.0
C      1  0.4750990000000  0.5635800000000  0.4409860000000 1.0
C      1  0.5499060000000  0.5439680000000  0.4435630000000 1.0
C      1  0.5513850000000  0.4666840000000  0.4495190000000 1.0
C      1  0.4840090000000  0.4426910000000  0.4487710000000 1.0
C      1  0.5814750000000  0.4578190000000  0.4736390000000 1.0
C      1  0.4883440000000  0.4139190000000  0.4746840000000 1.0
C      1  0.4058730000000  0.4786460000000  0.4732370000000 1.0
C      1  0.4546860000000  0.5739020000000  0.4664930000000 1.0
C      1  0.5574060000000  0.5695810000000  0.4723650000000 1.0
C      1  0.5183550000000  0.5773770000000  0.4699260000000 1.0
C      1  0.5802690000000  0.5092660000000  0.4682070000000 1.0
C      1  0.5261960000000  0.4261180000000  0.4723620000000 1.0
C      1  0.4360570000000  0.4530500000000  0.4743670000000 1.0
C      1  0.4240690000000  0.5381160000000  0.4670190000000 1.0
C      1  0.4444930000000  0.4312950000000  0.5339300000000 1.0
C      1  0.4353520000000  0.5294750000000  0.5341780000000 1.0
C      1  0.4978740000000  0.5740790000000  0.5254440000000 1.0
C      1  0.5749580000000  0.5215540000000  0.5245440000000 1.0
C      1  0.5452590000000  0.4342130000000  0.5345050000000 1.0
C      1  0.4211520000000  0.5080110000000  0.4783950000000 1.0
C      1  0.4875190000000  0.5830970000000  0.4652780000000 1.0
C      1  0.5705110000000  0.5387340000000  0.4686890000000 1.0
C      1  0.5519030000000  0.4421180000000  0.4730650000000 1.0
C      1  0.4614290000000  0.4340040000000  0.4728310000000 1.0
C      1  0.4697680000000  0.4561080000000  0.5801640000000 1.0
C      1  0.4499440000000  0.5063610000000  0.5799860000000 1.0
C      1  0.4976900000000  0.5507670000000  0.5727460000000 1.0
C      1  0.5498010000000  0.5156550000000  0.5724740000000 1.0
C      1  0.5267750000000  0.4562240000000  0.5791580000000 1.0
C      1  0.4327080000000  0.5081250000000  0.5105500000000 1.0
C      1  0.4886880000000  0.5707550000000  0.4958780000000 1.0
C      1  0.5592860000000  0.5259250000000  0.4978040000000 1.0
C      1  0.5566560000000  0.4491040000000  0.5060710000000 1.0
C      1  0.4573660000000  0.4416470000000  0.5059460000000 1.0
C      1  0.4901350000000  0.4732240000000  0.4057330000000 1.0
C      1  0.4757320000000  0.5100100000000  0.4281980000000 1.0
C      1  0.4979720000000  0.5381790000000  0.4106810000000 1.0
C      1  0.5342520000000  0.5219410000000  0.4092580000000 1.0
C      1  0.5314330000000  0.4822140000000  0.4089280000000 1.0
C      1  0.4742940000000  0.4455210000000  0.5417510000000 1.0
C      1  0.4420240000000  0.5008120000000  0.5486560000000 1.0
C      1  0.4825330000000  0.5514720000000  0.5429000000000 1.0
C      1  0.5427950000000  0.5236920000000  0.5339220000000 1.0
C      1  0.5360400000000  0.4657620000000  0.5280890000000 1.0
C      1  0.5262310000000  0.4859490000000  0.4739140000000 1.0
C      1  0.4822190000000  0.4604600000000  0.4939270000000 1.0
C      1  0.4737290000000  0.4883600000000  0.4807950000000 1.0
C      1  0.4848530000000  0.5442620000000  0.4743840000000 1.0
C      1  0.5335270000000  0.5251810000000  0.4750290000000 1.0
C      1  0.4945910000000  0.5556660000000  0.3917550000000 1.0
C      1  0.5518530000000  0.5310470000000  0.3928410000000 1.0
C      1  0.5474790000000  0.4709470000000  0.3922620000000 1.0
C      1  0.4816510000000  0.4591850000000  0.3857150000000 1.0
C      1  0.4584720000000  0.5308280000000  0.4252680000000 1.0
C      1  0.4220660000000  0.4652910000000  0.4468580000000 1.0
C      1  0.4429300000000  0.5522810000000  0.4428360000000 1.0
C      1  0.5392590000000  0.5733040000000  0.4452550000000 1.0
C      1  0.5790960000000  0.4811650000000  0.4510170000000 1.0
C      1  0.5060820000000  0.4207200000000  0.4478310000000 1.0
C      1  0.5099160000000  0.5760740000000  0.5573830000000 1.0
C      1  0.5734180000000  0.5153730000000  0.5580660000000 1.0
C      1  0.5359740000000  0.4334820000000  0.5664420000000 1.0
C      1  0.4420720000000  0.4445100000000  0.5653570000000 1.0
C      1  0.4520110000000  0.5360920000000  0.5636290000000 1.0
C      1  0.4712910000000  0.4960760000000  0.5359100000000 1.0
C      1  0.4909580000000  0.5212010000000  0.5316870000000 1.0
C      1  0.5188870000000  0.5130610000000  0.5454540000000 1.0
C      1  0.5187360000000  0.4802770000000  0.5467450000000 1.0
C      1  0.4875390000000  0.4702150000000  0.5473090000000 1.0
C      1  0.5042670000000  0.5040990000000  0.4104690000000 1.0
C      1  0.5012320000000  0.5007180000000  0.5882870000000 1.0
END
