TITL C-2782225-7408-934 0.00531610647547221 125000 -1083.74000887092 0 0 189 (C1) n - 1
REM
REM in /home/nfs/bkarasulu/CARBON/AIRSS/Generating-Clusters/REBO/Higher-Symm/SD-CG/HFTN-CG
REM
REM
REM
REM
REM
REM ./C.cell (12c818d87b63d06a65506943cc24bca4)
REM
REM compiler GCC version 9.2.1 20190827 (Red Hat 9.2.1-1)
REM options -cpp -mtune=generic -march=x86-64 -g -O0 -fpre-include=/usr/include/finclude/math-vector-fortran.h
REM seed 207325305 -1195052324 -195236160 -1386266549 444783842 -695007008 1607202175 -1504697170 765664148 -610194180 1789768997 694212984 -1639260168 204683144 1477984422 -92570543 -1705455956 -99124867 1556999493 1936419449 150954434 1334060874 -311582380 -742886233 361822615 439333186 -1452958165 325302872 1981219386 2039985796 -2038543549 54702250 573275259
REM
CELL 1.54180   50.00000   50.00000   50.00000   90.00000   90.00000   90.00000
LATT -1
SFAC C  
C      1  0.4708210000000  0.5133250000000  0.5278540000000 1.0
C      1  0.4770250000000  0.4800600000000  0.5275320000000 1.0
C      1  0.5108420000000  0.4749830000000  0.5279580000000 1.0
C      1  0.5276350000000  0.5048580000000  0.5280960000000 1.0
C      1  0.5020270000000  0.5272070000000  0.5263870000000 1.0
C      1  0.3963480000000  0.5568900000000  0.4911310000000 1.0
C      1  0.4175000000000  0.4166110000000  0.4948620000000 1.0
C      1  0.5530570000000  0.3922460000000  0.4952060000000 1.0
C      1  0.6190250000000  0.5155290000000  0.4914000000000 1.0
C      1  0.5393180000000  0.6144570000000  0.4996650000000 1.0
C      1  0.5847450000000  0.5350380000000  0.4440670000000 1.0
C      1  0.4880950000000  0.5950340000000  0.4462860000000 1.0
C      1  0.4109700000000  0.5202760000000  0.4432260000000 1.0
C      1  0.4496470000000  0.4129500000000  0.4431390000000 1.0
C      1  0.5668410000000  0.4235660000000  0.4454050000000 1.0
C      1  0.5651950000000  0.5611670000000  0.4437170000000 1.0
C      1  0.4568830000000  0.5827960000000  0.4471510000000 1.0
C      1  0.4057710000000  0.4867160000000  0.4414130000000 1.0
C      1  0.4812470000000  0.4127790000000  0.4516990000000 1.0
C      1  0.5788190000000  0.4526450000000  0.4535270000000 1.0
C      1  0.5746560000000  0.5569150000000  0.5194300000000 1.0
C      1  0.4570860000000  0.5947950000000  0.5261770000000 1.0
C      1  0.4003770000000  0.4907480000000  0.5208680000000 1.0
C      1  0.4765520000000  0.4015770000000  0.5197270000000 1.0
C      1  0.5860060000000  0.4435050000000  0.5232290000000 1.0
C      1  0.4844310000000  0.4709790000000  0.3979750000000 1.0
C      1  0.5227740000000  0.4751730000000  0.4075090000000 1.0
C      1  0.5285100000000  0.5129040000000  0.3967080000000 1.0
C      1  0.4971300000000  0.5354510000000  0.4055750000000 1.0
C      1  0.4647670000000  0.5052520000000  0.4009470000000 1.0
C      1  0.5624890000000  0.4680580000000  0.5479220000000 1.0
C      1  0.5415090000000  0.5515770000000  0.5421700000000 1.0
C      1  0.4650870000000  0.5611630000000  0.5467840000000 1.0
C      1  0.4322080000000  0.4862760000000  0.5446740000000 1.0
C      1  0.4924970000000  0.4387390000000  0.5465830000000 1.0
C      1  0.5250250000000  0.6096930000000  0.5257990000000 1.0
C      1  0.4070050000000  0.5533280000000  0.5186630000000 1.0
C      1  0.4281870000000  0.4256550000000  0.5208060000000 1.0
C      1  0.5443080000000  0.4051760000000  0.5197960000000 1.0
C      1  0.6039830000000  0.5136230000000  0.5157180000000 1.0
C      1  0.4508810000000  0.5306350000000  0.4047690000000 1.0
C      1  0.4563780000000  0.4554280000000  0.4050840000000 1.0
C      1  0.5242270000000  0.4444800000000  0.4085490000000 1.0
C      1  0.5609710000000  0.5075520000000  0.4036400000000 1.0
C      1  0.5159640000000  0.5599690000000  0.4085690000000 1.0
C      1  0.4093150000000  0.5505600000000  0.5466020000000 1.0
C      1  0.4290640000000  0.4299520000000  0.5485040000000 1.0
C      1  0.5421720000000  0.4084610000000  0.5473320000000 1.0
C      1  0.6016860000000  0.5123680000000  0.5443740000000 1.0
C      1  0.5225760000000  0.6019610000000  0.5527740000000 1.0
C      1  0.4833760000000  0.4413330000000  0.4368470000000 1.0
C      1  0.5554480000000  0.4698560000000  0.4415890000000 1.0
C      1  0.5453510000000  0.5341980000000  0.4381950000000 1.0
C      1  0.4751580000000  0.5576690000000  0.4411590000000 1.0
C      1  0.4372230000000  0.4913370000000  0.4356970000000 1.0
C      1  0.5531910000000  0.4507390000000  0.4763710000000 1.0
C      1  0.5526390000000  0.5516220000000  0.4733220000000 1.0
C      1  0.4701770000000  0.5737260000000  0.4773960000000 1.0
C      1  0.4200450000000  0.4939450000000  0.4716650000000 1.0
C      1  0.4704740000000  0.4361560000000  0.4742260000000 1.0
C      1  0.3910470000000  0.4754650000000  0.4699630000000 1.0
C      1  0.4892230000000  0.3916730000000  0.4719800000000 1.0
C      1  0.6002920000000  0.4519870000000  0.4751330000000 1.0
C      1  0.5704380000000  0.5810920000000  0.4709000000000 1.0
C      1  0.4439470000000  0.5966380000000  0.4747520000000 1.0
C      1  0.4733720000000  0.5904850000000  0.5624270000000 1.0
C      1  0.4039440000000  0.5007250000000  0.5592320000000 1.0
C      1  0.4738200000000  0.4179840000000  0.5667330000000 1.0
C      1  0.5766640000000  0.4402210000000  0.5619360000000 1.0
C      1  0.5719020000000  0.5534890000000  0.5590740000000 1.0
C      1  0.4482570000000  0.4838400000000  0.4087390000000 1.0
C      1  0.4949780000000  0.4458990000000  0.4094150000000 1.0
C      1  0.5482930000000  0.4839080000000  0.4155580000000 1.0
C      1  0.5366540000000  0.5386850000000  0.4093870000000 1.0
C      1  0.4724190000000  0.5467250000000  0.4129260000000 1.0
C      1  0.4697430000000  0.4503790000000  0.5897520000000 1.0
C      1  0.5456210000000  0.4526790000000  0.5890780000000 1.0
C      1  0.5653900000000  0.5261820000000  0.5871770000000 1.0
C      1  0.4952340000000  0.5535200000000  0.5897820000000 1.0
C      1  0.4295190000000  0.5153150000000  0.5858590000000 1.0
C      1  0.3956580000000  0.4719190000000  0.5486190000000 1.0
C      1  0.4901840000000  0.3990840000000  0.5482210000000 1.0
C      1  0.6005770000000  0.4578970000000  0.5501240000000 1.0
C      1  0.5684330000000  0.5807640000000  0.5429800000000 1.0
C      1  0.4421820000000  0.5921510000000  0.5550990000000 1.0
C      1  0.4660620000000  0.4880270000000  0.4521820000000 1.0
C      1  0.5010290000000  0.4661930000000  0.4503950000000 1.0
C      1  0.5319490000000  0.4932690000000  0.4508350000000 1.0
C      1  0.5163570000000  0.5299090000000  0.4496040000000 1.0
C      1  0.4754730000000  0.5264830000000  0.4527820000000 1.0
C      1  0.4240430000000  0.4571080000000  0.5588890000000 1.0
C      1  0.5164460000000  0.4180010000000  0.5586820000000 1.0
C      1  0.5885010000000  0.4883850000000  0.5572060000000 1.0
C      1  0.5397930000000  0.5786240000000  0.5613760000000 1.0
C      1  0.4340230000000  0.5604100000000  0.5608050000000 1.0
C      1  0.5277450000000  0.4202480000000  0.4523520000000 1.0
C      1  0.5934180000000  0.4963190000000  0.4421900000000 1.0
C      1  0.5232110000000  0.5796630000000  0.4570480000000 1.0
C      1  0.4316870000000  0.5541830000000  0.4446750000000 1.0
C      1  0.4288780000000  0.4467640000000  0.4471070000000 1.0
C      1  0.4540780000000  0.5145950000000  0.4978160000000 1.0
C      1  0.4772380000000  0.4783810000000  0.4948300000000 1.0
C      1  0.5169250000000  0.4766490000000  0.4955630000000 1.0
C      1  0.5417800000000  0.5137760000000  0.4981750000000 1.0
C      1  0.5006050000000  0.5274780000000  0.4930280000000 1.0
C      1  0.4632960000000  0.3910150000000  0.4902110000000 1.0
C      1  0.5920790000000  0.4275570000000  0.4936380000000 1.0
C      1  0.5839260000000  0.5540370000000  0.4871670000000 1.0
C      1  0.4703860000000  0.6027300000000  0.4957620000000 1.0
C      1  0.3929010000000  0.5032750000000  0.4901410000000 1.0
C      1  0.4968580000000  0.6031990000000  0.4755620000000 1.0
C      1  0.3955820000000  0.5289740000000  0.4720120000000 1.0
C      1  0.4398500000000  0.4025770000000  0.4740970000000 1.0
C      1  0.5738390000000  0.4098630000000  0.4758750000000 1.0
C      1  0.6034570000000  0.5370830000000  0.4709910000000 1.0
C      1  0.4457270000000  0.5531500000000  0.5020740000000 1.0
C      1  0.4354170000000  0.4623690000000  0.4987730000000 1.0
C      1  0.5127970000000  0.4303630000000  0.4983390000000 1.0
C      1  0.5710240000000  0.4866640000000  0.5007460000000 1.0
C      1  0.5288600000000  0.5683940000000  0.5006960000000 1.0
C      1  0.5937190000000  0.5363020000000  0.5573650000000 1.0
C      1  0.4973490000000  0.6032630000000  0.5647020000000 1.0
C      1  0.3980620000000  0.5275970000000  0.5583560000000 1.0
C      1  0.4460520000000  0.4155170000000  0.5656070000000 1.0
C      1  0.5650140000000  0.4153240000000  0.5620340000000 1.0
C      1  0.5289660000000  0.5012860000000  0.5622620000000 1.0
C      1  0.5082450000000  0.5282670000000  0.5615080000000 1.0
C      1  0.4759050000000  0.5177280000000  0.5617010000000 1.0
C      1  0.4758180000000  0.4837010000000  0.5619300000000 1.0
C      1  0.5084620000000  0.4741670000000  0.5622130000000 1.0
C      1  0.4526330000000  0.4352920000000  0.4983310000000 1.0
C      1  0.5451530000000  0.4325830000000  0.4986640000000 1.0
C      1  0.5751410000000  0.5186910000000  0.5033170000000 1.0
C      1  0.5069670000000  0.5909340000000  0.5058200000000 1.0
C      1  0.4236570000000  0.5295200000000  0.5007510000000 1.0
C      1  0.4778870000000  0.5154640000000  0.6150150000000 1.0
C      1  0.4560030000000  0.4976020000000  0.6188270000000 1.0
C      1  0.5023750000000  0.4709610000000  0.6165110000000 1.0
C      1  0.5363230000000  0.4916840000000  0.6162600000000 1.0
C      1  0.5306460000000  0.5229370000000  0.6171720000000 1.0
C      1  0.4506390000000  0.5357170000000  0.5756320000000 1.0
C      1  0.4489410000000  0.4707360000000  0.5772570000000 1.0
C      1  0.5179640000000  0.4463600000000  0.5762980000000 1.0
C      1  0.5606440000000  0.4979810000000  0.5741850000000 1.0
C      1  0.5247180000000  0.5530690000000  0.5781200000000 1.0
C      1  0.4381750000000  0.5814500000000  0.5032120000000 1.0
C      1  0.4060490000000  0.4670980000000  0.4988890000000 1.0
C      1  0.4996620000000  0.4037800000000  0.4978400000000 1.0
C      1  0.5915980000000  0.4659430000000  0.5006660000000 1.0
C      1  0.5569850000000  0.5787910000000  0.5020530000000 1.0
C      1  0.5599140000000  0.5282970000000  0.5306270000000 1.0
C      1  0.4863030000000  0.5776280000000  0.5269080000000 1.0
C      1  0.4258990000000  0.5122590000000  0.5280230000000 1.0
C      1  0.4666100000000  0.4327440000000  0.5290490000000 1.0
C      1  0.5529820000000  0.4427880000000  0.5298590000000 1.0
C      1  0.4481720000000  0.5380610000000  0.5309820000000 1.0
C      1  0.4489260000000  0.4617950000000  0.5279670000000 1.0
C      1  0.5198770000000  0.4429020000000  0.5276220000000 1.0
C      1  0.5595840000000  0.4941210000000  0.5304380000000 1.0
C      1  0.5131310000000  0.5580090000000  0.5274200000000 1.0
C      1  0.4492560000000  0.4870910000000  0.4817950000000 1.0
C      1  0.4967910000000  0.4535540000000  0.4816760000000 1.0
C      1  0.5440940000000  0.4832630000000  0.4810560000000 1.0
C      1  0.5282850000000  0.5397030000000  0.4865060000000 1.0
C      1  0.4723940000000  0.5403470000000  0.4835360000000 1.0
C      1  0.5510360000000  0.4784450000000  0.5966020000000 1.0
C      1  0.5433980000000  0.5386540000000  0.5979440000000 1.0
C      1  0.4750630000000  0.5370030000000  0.5966690000000 1.0
C      1  0.4390240000000  0.4921380000000  0.5968920000000 1.0
C      1  0.4956060000000  0.4529650000000  0.5972580000000 1.0
C      1  0.5854880000000  0.5152500000000  0.4162430000000 1.0
C      1  0.5096200000000  0.5818350000000  0.4269650000000 1.0
C      1  0.4256380000000  0.5373910000000  0.4173500000000 1.0
C      1  0.4442640000000  0.4352860000000  0.4217320000000 1.0
C      1  0.5414450000000  0.4283490000000  0.4252820000000 1.0
C      1  0.6113830000000  0.5056720000000  0.4615030000000 1.0
C      1  0.5296740000000  0.6032940000000  0.4755140000000 1.0
C      1  0.4108630000000  0.5578050000000  0.4628560000000 1.0
C      1  0.4194350000000  0.4286630000000  0.4655950000000 1.0
C      1  0.5412880000000  0.4030040000000  0.4682660000000 1.0
C      1  0.5037800000000  0.5545930000000  0.4554160000000 1.0
C      1  0.4452520000000  0.5218890000000  0.4478920000000 1.0
C      1  0.4590530000000  0.4573530000000  0.4515120000000 1.0
C      1  0.5287540000000  0.4535160000000  0.4535850000000 1.0
C      1  0.5621090000000  0.5086600000000  0.4475710000000 1.0
C      1  0.4986350000000  0.4995910000000  0.4803060000000 1.0
C      1  0.5042400000000  0.5030390000000  0.6209220000000 1.0
C      1  0.4984490000000  0.5006880000000  0.4100630000000 1.0
C      1  0.4980770000000  0.5005310000000  0.4454090000000 1.0
END
