TITL C-2782230-7391-622 -0.00344212651754489 125000 -800.842626516124 0 0 139 (C1) n - 1
REM
REM in /home/nfs/bkarasulu/CARBON/AIRSS/Generating-Clusters/REBO/Higher-Symm/SD-CG/HFTN-CG
REM
REM
REM
REM
REM
REM ./C.cell (12c818d87b63d06a65506943cc24bca4)
REM
REM compiler GCC version 9.2.1 20190827 (Red Hat 9.2.1-1)
REM options -cpp -mtune=generic -march=x86-64 -g -O0 -fpre-include=/usr/include/finclude/math-vector-fortran.h
REM seed 422945422 1158615903 -1313568184 -1501099461 1109767155 -1800846945 -60830941 630009728 -1027809182 -323152069 1864224098 636968987 2074207745 1083351152 -853653331 609850116 1586011082 -1076948067 -1441088808 607937408 1947207460 -1814031323 434977073 615659824 -140747723 -482017866 -1874327027 -800056289 1498363122 1209146965 -2002683027 695548882 -1497430086
REM
CELL 1.54180   50.00000   50.00000   50.00000   90.00000   90.00000   90.00000
LATT -1
SFAC C  
C      1  0.5292680000000  0.5823320000000  0.4581120000000 1.0
C      1  0.4449660000000  0.5660400000000  0.5377070000000 1.0
C      1  0.4124660000000  0.4897780000000  0.4629340000000 1.0
C      1  0.4731530000000  0.4228130000000  0.5353430000000 1.0
C      1  0.5572300000000  0.4316400000000  0.4689680000000 1.0
C      1  0.5810480000000  0.5121050000000  0.5370320000000 1.0
C      1  0.4070130000000  0.4662420000000  0.5365970000000 1.0
C      1  0.5001830000000  0.3737760000000  0.4671510000000 1.0
C      1  0.5714240000000  0.4411270000000  0.5305590000000 1.0
C      1  0.5851070000000  0.5353600000000  0.4660160000000 1.0
C      1  0.5135600000000  0.5967740000000  0.5334540000000 1.0
C      1  0.4218700000000  0.5662310000000  0.4689670000000 1.0
C      1  0.4629830000000  0.4631150000000  0.4538580000000 1.0
C      1  0.5190820000000  0.4433840000000  0.5516220000000 1.0
C      1  0.5495020000000  0.4908480000000  0.4691530000000 1.0
C      1  0.5304170000000  0.5423450000000  0.5405170000000 1.0
C      1  0.4835330000000  0.5538000000000  0.4522770000000 1.0
C      1  0.4459030000000  0.5084700000000  0.5483420000000 1.0
C      1  0.4695740000000  0.4910430000000  0.4725000000000 1.0
C      1  0.5051780000000  0.4609750000000  0.5284060000000 1.0
C      1  0.5188220000000  0.4843340000000  0.4830050000000 1.0
C      1  0.5336660000000  0.5130950000000  0.5263550000000 1.0
C      1  0.5038400000000  0.5379690000000  0.4723710000000 1.0
C      1  0.4743730000000  0.5106950000000  0.5184110000000 1.0
C      1  0.5565570000000  0.5881020000000  0.4779500000000 1.0
C      1  0.4524300000000  0.5944980000000  0.5205440000000 1.0
C      1  0.3902440000000  0.5115120000000  0.4766610000000 1.0
C      1  0.4449220000000  0.4172150000000  0.5178460000000 1.0
C      1  0.5551790000000  0.4020940000000  0.4859340000000 1.0
C      1  0.6054830000000  0.4928960000000  0.5231010000000 1.0
C      1  0.5061030000000  0.5645320000000  0.4285510000000 1.0
C      1  0.4474990000000  0.5310520000000  0.5742910000000 1.0
C      1  0.4438910000000  0.4720700000000  0.4266070000000 1.0
C      1  0.4976790000000  0.4350600000000  0.5774900000000 1.0
C      1  0.5480910000000  0.4710290000000  0.4412440000000 1.0
C      1  0.5517020000000  0.5243070000000  0.5612720000000 1.0
C      1  0.4520300000000  0.5048630000000  0.4220640000000 1.0
C      1  0.4740150000000  0.4593840000000  0.5744960000000 1.0
C      1  0.5197390000000  0.4573700000000  0.4283460000000 1.0
C      1  0.5470120000000  0.4934580000000  0.5747980000000 1.0
C      1  0.5293320000000  0.5402170000000  0.4224870000000 1.0
C      1  0.4799190000000  0.5418060000000  0.5744140000000 1.0
C      1  0.4222870000000  0.5814740000000  0.5189390000000 1.0
C      1  0.3923260000000  0.4792560000000  0.4871640000000 1.0
C      1  0.4746360000000  0.4051090000000  0.5072600000000 1.0
C      1  0.5840970000000  0.4173240000000  0.4841810000000 1.0
C      1  0.6049930000000  0.5258490000000  0.5170240000000 1.0
C      1  0.5283640000000  0.6053050000000  0.4826270000000 1.0
C      1  0.5251290000000  0.5197280000000  0.5796130000000 1.0
C      1  0.4953630000000  0.5347150000000  0.4191880000000 1.0
C      1  0.4718720000000  0.5089070000000  0.5782910000000 1.0
C      1  0.4748540000000  0.4792650000000  0.4193510000000 1.0
C      1  0.5067900000000  0.4661000000000  0.5818230000000 1.0
C      1  0.5310030000000  0.4889410000000  0.4207200000000 1.0
C      1  0.5943820000000  0.4614780000000  0.5178600000000 1.0
C      1  0.5777230000000  0.5630460000000  0.4833330000000 1.0
C      1  0.4848340000000  0.5957480000000  0.5171980000000 1.0
C      1  0.4044330000000  0.5411730000000  0.4832540000000 1.0
C      1  0.4243340000000  0.4437660000000  0.5192810000000 1.0
C      1  0.5252220000000  0.3886600000000  0.4841350000000 1.0
C      1  0.6020680000000  0.5424980000000  0.4938660000000 1.0
C      1  0.5124220000000  0.6093570000000  0.5044440000000 1.0
C      1  0.4086770000000  0.5711470000000  0.4972960000000 1.0
C      1  0.3978790000000  0.4613690000000  0.5070470000000 1.0
C      1  0.4918180000000  0.3923890000000  0.4914510000000 1.0
C      1  0.5942050000000  0.4301850000000  0.5080110000000 1.0
C      1  0.4203120000000  0.5185060000000  0.5018300000000 1.0
C      1  0.4482170000000  0.4521010000000  0.4985750000000 1.0
C      1  0.5226550000000  0.4137400000000  0.5053060000000 1.0
C      1  0.5775600000000  0.4808170000000  0.4973740000000 1.0
C      1  0.5535770000000  0.5555030000000  0.5022950000000 1.0
C      1  0.4744930000000  0.5718160000000  0.4961690000000 1.0
C      1  0.4500110000000  0.5543090000000  0.4308950000000 1.0
C      1  0.4288940000000  0.4841410000000  0.5750230000000 1.0
C      1  0.4760300000000  0.4307450000000  0.4347330000000 1.0
C      1  0.5501000000000  0.4421630000000  0.5764740000000 1.0
C      1  0.5716440000000  0.5131720000000  0.4248450000000 1.0
C      1  0.5221830000000  0.5675020000000  0.5704870000000 1.0
C      1  0.5094660000000  0.5456700000000  0.5814200000000 1.0
C      1  0.4650520000000  0.5323340000000  0.4160940000000 1.0
C      1  0.4558490000000  0.4827220000000  0.5820800000000 1.0
C      1  0.4910530000000  0.4534520000000  0.4190360000000 1.0
C      1  0.5371350000000  0.4663720000000  0.5842990000000 1.0
C      1  0.5456320000000  0.5148800000000  0.4159460000000 1.0
C      1  0.4575510000000  0.6075430000000  0.4907850000000 1.0
C      1  0.3869950000000  0.5175230000000  0.5100260000000 1.0
C      1  0.4271460000000  0.4162490000000  0.4908130000000 1.0
C      1  0.5534160000000  0.4071480000000  0.5195930000000 1.0
C      1  0.6110640000000  0.4847760000000  0.4905420000000 1.0
C      1  0.5679150000000  0.5921000000000  0.5088600000000 1.0
C      1  0.4928940000000  0.4463980000000  0.4581010000000 1.0
C      1  0.5445210000000  0.4591970000000  0.5352580000000 1.0
C      1  0.5537210000000  0.5242690000000  0.4681570000000 1.0
C      1  0.5049100000000  0.5545720000000  0.5311700000000 1.0
C      1  0.4558560000000  0.5349620000000  0.4587100000000 1.0
C      1  0.4532240000000  0.4846680000000  0.5398820000000 1.0
C      1  0.4114740000000  0.4886430000000  0.5520010000000 1.0
C      1  0.4515270000000  0.4236570000000  0.4446640000000 1.0
C      1  0.5529890000000  0.4225930000000  0.5502380000000 1.0
C      1  0.5852770000000  0.5099660000000  0.4482860000000 1.0
C      1  0.5314450000000  0.5816290000000  0.5476280000000 1.0
C      1  0.4437630000000  0.5727290000000  0.4537350000000 1.0
C      1  0.4686850000000  0.5438060000000  0.5147470000000 1.0
C      1  0.4412500000000  0.5037040000000  0.4868390000000 1.0
C      1  0.4795950000000  0.4538880000000  0.5111890000000 1.0
C      1  0.5242570000000  0.4394120000000  0.4900540000000 1.0
C      1  0.5564040000000  0.4938320000000  0.5116500000000 1.0
C      1  0.5271990000000  0.5540800000000  0.4859060000000 1.0
C      1  0.5264540000000  0.4408230000000  0.4573640000000 1.0
C      1  0.5582830000000  0.4882940000000  0.5454000000000 1.0
C      1  0.5366460000000  0.5495220000000  0.4530120000000 1.0
C      1  0.4760170000000  0.5548690000000  0.5460830000000 1.0
C      1  0.4389990000000  0.5078760000000  0.4530530000000 1.0
C      1  0.4681220000000  0.4550970000000  0.5434420000000 1.0
C      1  0.5175680000000  0.5061620000000  0.5510640000000 1.0
C      1  0.5048400000000  0.5206860000000  0.4468210000000 1.0
C      1  0.4857210000000  0.5067050000000  0.5473830000000 1.0
C      1  0.4841310000000  0.4964700000000  0.4439930000000 1.0
C      1  0.5014450000000  0.4790630000000  0.5531450000000 1.0
C      1  0.5145980000000  0.4906130000000  0.4497610000000 1.0
C      1  0.5284350000000  0.4648470000000  0.5073160000000 1.0
C      1  0.5488180000000  0.5235420000000  0.4996880000000 1.0
C      1  0.5033910000000  0.5610220000000  0.5050380000000 1.0
C      1  0.4746840000000  0.5325900000000  0.4849900000000 1.0
C      1  0.4539140000000  0.4841440000000  0.5085010000000 1.0
C      1  0.4897540000000  0.4648220000000  0.4833170000000 1.0
C      1  0.5664150000000  0.4612200000000  0.4645140000000 1.0
C      1  0.5652730000000  0.5416550000000  0.5378620000000 1.0
C      1  0.4958840000000  0.5855530000000  0.4523830000000 1.0
C      1  0.4320030000000  0.5395410000000  0.5467280000000 1.0
C      1  0.4285670000000  0.4651320000000  0.4539000000000 1.0
C      1  0.4983430000000  0.4160730000000  0.5514790000000 1.0
C      1  0.5251280000000  0.4067540000000  0.5380470000000 1.0
C      1  0.5889500000000  0.4853340000000  0.4655470000000 1.0
C      1  0.5553510000000  0.5720240000000  0.5312400000000 1.0
C      1  0.4671380000000  0.5862320000000  0.4683240000000 1.0
C      1  0.4098030000000  0.5168650000000  0.5344780000000 1.0
C      1  0.4367430000000  0.4380240000000  0.4696980000000 1.0
C      1  0.4937610000000  0.5053210000000  0.4925160000000 1.0
END
