TITL C-2782234-8014-86 -4.8042561017205e-08 125000 -31.2525858947262 0 0 6 (D(inf)h) n - 1
REM
REM in /home/nfs/bkarasulu/CARBON/AIRSS/Generating-Clusters/REBO/Higher-Symm/SD-CG/HFTN-CG
REM
REM
REM
REM
REM
REM ./C.cell (12c818d87b63d06a65506943cc24bca4)
REM
REM compiler GCC version 9.2.1 20190827 (Red Hat 9.2.1-1)
REM options -cpp -mtune=generic -march=x86-64 -g -O0 -fpre-include=/usr/include/finclude/math-vector-fortran.h
REM seed 1070355000 -205439704 -1380946552 -1667668607 2017214598 -1500507564 859655236 -1536336611 725354851 986356662 523340641 1894091749 -999071411 -154104269 1803584362 -1041927468 553639477 -11479044 -570577233 596433049 201676993 -1465139209 1069044935 18916968 -1610667570 203794228 -61936106 312854931 46698980 -1926089534 -120516306 1005003020 1965379069
REM
CELL 1.54180   50.00000   50.00000   50.00000   90.00000   90.00000   90.00000
LATT -1
SFAC C  
C      1  0.4338470000000  0.5004180000000  0.4983870000000 1.0
C      1  0.5661530000000  0.5004180000000  0.4983870000000 1.0
C      1  0.5133150000000  0.5004180000000  0.4983870000000 1.0
C      1  0.4600540000000  0.5004180000000  0.4983870000000 1.0
C      1  0.5399460000000  0.5004180000000  0.4983870000000 1.0
C      1  0.4866850000000  0.5004180000000  0.4983870000000 1.0
END
