TITL C-2782235-7892-1170 0.000121670306366794 125000 -887.704419879609 0 0 151 (C1) n - 1
REM
REM in /home/nfs/bkarasulu/CARBON/AIRSS/Generating-Clusters/REBO/Higher-Symm/SD-CG/HFTN-CG
REM
REM
REM
REM
REM
REM ./C.cell (12c818d87b63d06a65506943cc24bca4)
REM
REM compiler GCC version 9.2.1 20190827 (Red Hat 9.2.1-1)
REM options -cpp -mtune=generic -march=x86-64 -g -O0 -fpre-include=/usr/include/finclude/math-vector-fortran.h
REM seed -605609662 -1913983409 -536183577 12969964 1133904132 -1859182715 -518253039 -1926564415 -166191924 -699805028 284681528 -1964924264 1279362454 1558342779 -1698024663 1824783861 -1478926651 -469663804 -512013709 -1190895259 230486879 -21794433 -1251287637 999593002 722972578 883186342 1448087717 -431638756 -1216256608 793634403 -956487045 1506246614 -1646201214
REM
CELL 1.54180   50.00000   50.00000   50.00000   90.00000   90.00000   90.00000
LATT -1
SFAC C  
C      1  0.4573660000000  0.5972750000000  0.5206030000000 1.0
C      1  0.4561910000000  0.4044190000000  0.4848090000000 1.0
C      1  0.5376530000000  0.5957820000000  0.4829810000000 1.0
C      1  0.5390170000000  0.4034790000000  0.5176900000000 1.0
C      1  0.4503160000000  0.5644620000000  0.4860380000000 1.0
C      1  0.4522710000000  0.4336830000000  0.5177140000000 1.0
C      1  0.5468470000000  0.5629720000000  0.5143890000000 1.0
C      1  0.5486310000000  0.4326180000000  0.4862380000000 1.0
C      1  0.5679570000000  0.4804620000000  0.5515280000000 1.0
C      1  0.5696930000000  0.5160230000000  0.4444330000000 1.0
C      1  0.4400910000000  0.4830530000000  0.4473170000000 1.0
C      1  0.4316870000000  0.5142590000000  0.5547180000000 1.0
C      1  0.5751440000000  0.5221610000000  0.4909730000000 1.0
C      1  0.5800930000000  0.4666900000000  0.5070370000000 1.0
C      1  0.4231490000000  0.5214010000000  0.5093300000000 1.0
C      1  0.4212400000000  0.4783310000000  0.4867210000000 1.0
C      1  0.4136180000000  0.4540690000000  0.5466590000000 1.0
C      1  0.4133930000000  0.5519230000000  0.4516060000000 1.0
C      1  0.5880200000000  0.4553370000000  0.4521160000000 1.0
C      1  0.5871770000000  0.5534010000000  0.5487080000000 1.0
C      1  0.4146140000000  0.4804960000000  0.5676500000000 1.0
C      1  0.4123470000000  0.5266740000000  0.4320680000000 1.0
C      1  0.5857000000000  0.4814420000000  0.4323310000000 1.0
C      1  0.5858910000000  0.5278950000000  0.5663860000000 1.0
C      1  0.5560190000000  0.4782620000000  0.4586270000000 1.0
C      1  0.5514720000000  0.5203590000000  0.5477620000000 1.0
C      1  0.4445860000000  0.4787840000000  0.5416640000000 1.0
C      1  0.4485620000000  0.5273660000000  0.4486390000000 1.0
C      1  0.5543260000000  0.4700330000000  0.4254760000000 1.0
C      1  0.5556510000000  0.5306790000000  0.5802220000000 1.0
C      1  0.4463630000000  0.4696420000000  0.5744950000000 1.0
C      1  0.4405180000000  0.5324660000000  0.4155090000000 1.0
C      1  0.5802290000000  0.5471530000000  0.4783920000000 1.0
C      1  0.5992380000000  0.4478370000000  0.5284830000000 1.0
C      1  0.4184140000000  0.5462650000000  0.5222000000000 1.0
C      1  0.4146870000000  0.4532280000000  0.4741720000000 1.0
C      1  0.4877530000000  0.4109970000000  0.5314920000000 1.0
C      1  0.4877830000000  0.5918230000000  0.4719610000000 1.0
C      1  0.5111140000000  0.4146690000000  0.4731910000000 1.0
C      1  0.5106460000000  0.5853080000000  0.5299250000000 1.0
C      1  0.4799530000000  0.5412060000000  0.4480800000000 1.0
C      1  0.4770040000000  0.4755730000000  0.5496500000000 1.0
C      1  0.5173000000000  0.5186850000000  0.5490190000000 1.0
C      1  0.5240530000000  0.4699240000000  0.4513530000000 1.0
C      1  0.5066020000000  0.5732180000000  0.5611460000000 1.0
C      1  0.5050560000000  0.4262070000000  0.4419410000000 1.0
C      1  0.4921060000000  0.5709050000000  0.4391710000000 1.0
C      1  0.4934320000000  0.4255690000000  0.5619710000000 1.0
C      1  0.5819280000000  0.5070400000000  0.5404570000000 1.0
C      1  0.5844430000000  0.4946740000000  0.4639080000000 1.0
C      1  0.4218630000000  0.5084140000000  0.4588110000000 1.0
C      1  0.4148780000000  0.4930350000000  0.5359590000000 1.0
C      1  0.5059130000000  0.4725470000000  0.3991940000000 1.0
C      1  0.5086910000000  0.5265880000000  0.6038890000000 1.0
C      1  0.4946440000000  0.4757350000000  0.5999840000000 1.0
C      1  0.4893670000000  0.5229400000000  0.3975260000000 1.0
C      1  0.5078410000000  0.5376260000000  0.5227760000000 1.0
C      1  0.5126870000000  0.4557000000000  0.4786770000000 1.0
C      1  0.4903240000000  0.5377500000000  0.4777870000000 1.0
C      1  0.4907580000000  0.4624280000000  0.5223810000000 1.0
C      1  0.4630700000000  0.5226360000000  0.5478910000000 1.0
C      1  0.4722850000000  0.4847780000000  0.4499210000000 1.0
C      1  0.5379230000000  0.5234680000000  0.4499660000000 1.0
C      1  0.5376160000000  0.4731000000000  0.5460750000000 1.0
C      1  0.4816500000000  0.5520970000000  0.5075110000000 1.0
C      1  0.4849740000000  0.4472640000000  0.4926210000000 1.0
C      1  0.5175730000000  0.5479460000000  0.4917360000000 1.0
C      1  0.5193290000000  0.4504570000000  0.5117570000000 1.0
C      1  0.5420640000000  0.4831630000000  0.5844930000000 1.0
C      1  0.5388080000000  0.5166610000000  0.4079370000000 1.0
C      1  0.4568070000000  0.4814630000000  0.4113040000000 1.0
C      1  0.4612380000000  0.5168640000000  0.5929840000000 1.0
C      1  0.5948140000000  0.5483550000000  0.5219570000000 1.0
C      1  0.6028480000000  0.4609580000000  0.4747510000000 1.0
C      1  0.4050790000000  0.5470390000000  0.4779570000000 1.0
C      1  0.4038200000000  0.4568500000000  0.5200690000000 1.0
C      1  0.5485660000000  0.4429490000000  0.5191310000000 1.0
C      1  0.5433650000000  0.5623880000000  0.4799290000000 1.0
C      1  0.4564720000000  0.4384360000000  0.4833850000000 1.0
C      1  0.4545570000000  0.5631610000000  0.5202790000000 1.0
C      1  0.5260080000000  0.4596750000000  0.4212230000000 1.0
C      1  0.5256630000000  0.5308710000000  0.5764140000000 1.0
C      1  0.4758240000000  0.4625040000000  0.5777650000000 1.0
C      1  0.4693970000000  0.5395960000000  0.4166960000000 1.0
C      1  0.4499510000000  0.4833010000000  0.4943360000000 1.0
C      1  0.4512870000000  0.5142270000000  0.5012800000000 1.0
C      1  0.5502820000000  0.4815570000000  0.5090020000000 1.0
C      1  0.5470920000000  0.5118720000000  0.4980040000000 1.0
C      1  0.5656350000000  0.5878930000000  0.5006720000000 1.0
C      1  0.5650340000000  0.4099010000000  0.5042300000000 1.0
C      1  0.4311390000000  0.5884970000000  0.5007630000000 1.0
C      1  0.4292260000000  0.4164300000000  0.5019810000000 1.0
C      1  0.4954670000000  0.4476080000000  0.4205090000000 1.0
C      1  0.5001880000000  0.5508100000000  0.5809600000000 1.0
C      1  0.5041210000000  0.4475240000000  0.5825270000000 1.0
C      1  0.5018330000000  0.5493220000000  0.4157160000000 1.0
C      1  0.5842260000000  0.4327810000000  0.5042530000000 1.0
C      1  0.5858360000000  0.5653250000000  0.4998600000000 1.0
C      1  0.4089750000000  0.4371370000000  0.4979930000000 1.0
C      1  0.4128340000000  0.5641590000000  0.5004210000000 1.0
C      1  0.4767200000000  0.4906120000000  0.4814790000000 1.0
C      1  0.4754690000000  0.5144850000000  0.5192170000000 1.0
C      1  0.5216890000000  0.4885220000000  0.5232900000000 1.0
C      1  0.5242410000000  0.5122010000000  0.4753480000000 1.0
C      1  0.5176680000000  0.5835580000000  0.4579240000000 1.0
C      1  0.5192740000000  0.4137820000000  0.5429610000000 1.0
C      1  0.4794020000000  0.5841760000000  0.5432870000000 1.0
C      1  0.4792530000000  0.4143080000000  0.4612930000000 1.0
C      1  0.5697230000000  0.5470260000000  0.4524640000000 1.0
C      1  0.5707410000000  0.4511080000000  0.5425080000000 1.0
C      1  0.4300310000000  0.5451700000000  0.5475740000000 1.0
C      1  0.4306510000000  0.4545310000000  0.4509410000000 1.0
C      1  0.5208250000000  0.4959270000000  0.5952620000000 1.0
C      1  0.5164070000000  0.5041810000000  0.3981830000000 1.0
C      1  0.4789710000000  0.4916460000000  0.3974940000000 1.0
C      1  0.4842140000000  0.5061170000000  0.6060950000000 1.0
C      1  0.4634310000000  0.5765190000000  0.4569200000000 1.0
C      1  0.4622840000000  0.4240990000000  0.5480890000000 1.0
C      1  0.5369780000000  0.5735950000000  0.5453070000000 1.0
C      1  0.5366320000000  0.4259220000000  0.4551520000000 1.0
C      1  0.5421510000000  0.5627500000000  0.4463790000000 1.0
C      1  0.5435690000000  0.4339160000000  0.5512710000000 1.0
C      1  0.4565360000000  0.5613480000000  0.5539570000000 1.0
C      1  0.4556100000000  0.4354390000000  0.4498000000000 1.0
C      1  0.4827680000000  0.4141880000000  0.5011160000000 1.0
C      1  0.4819090000000  0.5858500000000  0.5023460000000 1.0
C      1  0.5151630000000  0.4192600000000  0.5035690000000 1.0
C      1  0.5138710000000  0.5802370000000  0.4997990000000 1.0
C      1  0.5302160000000  0.5431320000000  0.4234070000000 1.0
C      1  0.5324440000000  0.4542420000000  0.5734780000000 1.0
C      1  0.4712970000000  0.5415150000000  0.5744650000000 1.0
C      1  0.4679060000000  0.4574820000000  0.4306610000000 1.0
C      1  0.4336800000000  0.5697080000000  0.4476640000000 1.0
C      1  0.4322840000000  0.4348420000000  0.5522780000000 1.0
C      1  0.5673570000000  0.5716550000000  0.5536860000000 1.0
C      1  0.5667710000000  0.4380540000000  0.4510330000000 1.0
C      1  0.4319050000000  0.5006010000000  0.4209430000000 1.0
C      1  0.4378500000000  0.5008910000000  0.5827710000000 1.0
C      1  0.5689890000000  0.4999700000000  0.5774810000000 1.0
C      1  0.5625240000000  0.5014860000000  0.4170840000000 1.0
C      1  0.5974180000000  0.4894100000000  0.4926230000000 1.0
C      1  0.5958090000000  0.5151750000000  0.5142190000000 1.0
C      1  0.4007040000000  0.4888330000000  0.5085510000000 1.0
C      1  0.4037920000000  0.5138390000000  0.4852710000000 1.0
C      1  0.5452110000000  0.4641180000000  0.4845120000000 1.0
C      1  0.5408100000000  0.5321790000000  0.5200940000000 1.0
C      1  0.4574430000000  0.4647970000000  0.5167350000000 1.0
C      1  0.4572770000000  0.5341420000000  0.4797350000000 1.0
C      1  0.5034600000000  0.4909730000000  0.4622430000000 1.0
C      1  0.4946970000000  0.4985800000000  0.5389310000000 1.0
C      1  0.5019930000000  0.5038240000000  0.5000880000000 1.0
END
