TITL C-2782225-7408-115 0.00131535230431178 125000 -318.82532432199 0 0 61 (C1) n - 1
REM
REM in /home/nfs/bkarasulu/CARBON/AIRSS/Generating-Clusters/REBO/Higher-Symm/SD-CG/HFTN-CG
REM
REM
REM
REM
REM
REM ./C.cell (12c818d87b63d06a65506943cc24bca4)
REM
REM compiler GCC version 9.2.1 20190827 (Red Hat 9.2.1-1)
REM options -cpp -mtune=generic -march=x86-64 -g -O0 -fpre-include=/usr/include/finclude/math-vector-fortran.h
REM seed 1642020420 1920227221 192106664 1217750222 -1639116623 1163885341 -1930335803 1352012604 -1397806201 -822416317 709678226 -1413059941 -714808948 -1430057586 1316125878 -749281710 1591838870 1390646074 -1721042339 1523965747 1830816981 -950580872 -269370049 -608345945 -1753248176 1354413756 -1952051007 -2126765284 1566009091 1026052123 195904851 1669302419 1175845606
REM
CELL 1.54180   50.00000   50.00000   50.00000   90.00000   90.00000   90.00000
LATT -1
SFAC C  
C      1  0.4784190000000  0.4464220000000  0.5435510000000 1.0
C      1  0.4696030000000  0.4505790000000  0.4574460000000 1.0
C      1  0.5496490000000  0.4525650000000  0.4900350000000 1.0
C      1  0.4825810000000  0.5470690000000  0.5483790000000 1.0
C      1  0.4701280000000  0.5481100000000  0.4584210000000 1.0
C      1  0.5490000000000  0.5502960000000  0.4943590000000 1.0
C      1  0.4446340000000  0.4456810000000  0.4729860000000 1.0
C      1  0.5511970000000  0.4358820000000  0.4641430000000 1.0
C      1  0.5038640000000  0.4456410000000  0.5580750000000 1.0
C      1  0.4435030000000  0.5538310000000  0.4708790000000 1.0
C      1  0.5469310000000  0.5535690000000  0.4648430000000 1.0
C      1  0.5064350000000  0.5623500000000  0.5607190000000 1.0
C      1  0.4272350000000  0.4892500000000  0.4635660000000 1.0
C      1  0.5706660000000  0.4819420000000  0.4496550000000 1.0
C      1  0.5057060000000  0.4862520000000  0.5785040000000 1.0
C      1  0.4226960000000  0.5197700000000  0.4673410000000 1.0
C      1  0.5684460000000  0.5121620000000  0.4549990000000 1.0
C      1  0.5088440000000  0.5153780000000  0.5833810000000 1.0
C      1  0.4540960000000  0.4570070000000  0.5217670000000 1.0
C      1  0.5019470000000  0.4543560000000  0.4469660000000 1.0
C      1  0.5437460000000  0.4600760000000  0.5233150000000 1.0
C      1  0.4544220000000  0.5416840000000  0.5292960000000 1.0
C      1  0.5015080000000  0.5373880000000  0.4503000000000 1.0
C      1  0.5416880000000  0.5443420000000  0.5272720000000 1.0
C      1  0.5186930000000  0.4807980000000  0.4336630000000 1.0
C      1  0.5490170000000  0.4863490000000  0.5447270000000 1.0
C      1  0.4345720000000  0.4850930000000  0.5189960000000 1.0
C      1  0.5165110000000  0.5109260000000  0.4346220000000 1.0
C      1  0.5472920000000  0.5166190000000  0.5462700000000 1.0
C      1  0.4326270000000  0.5160760000000  0.5219240000000 1.0
C      1  0.4731020000000  0.4826970000000  0.5289290000000 1.0
C      1  0.4926360000000  0.4820940000000  0.4639390000000 1.0
C      1  0.5404880000000  0.4876850000000  0.5057360000000 1.0
C      1  0.4704400000000  0.5125210000000  0.5333730000000 1.0
C      1  0.4858580000000  0.5124480000000  0.4658850000000 1.0
C      1  0.5329340000000  0.5172360000000  0.5090530000000 1.0
C      1  0.5182250000000  0.4499610000000  0.5030280000000 1.0
C      1  0.4850890000000  0.4474630000000  0.5106790000000 1.0
C      1  0.4952010000000  0.4452820000000  0.4791200000000 1.0
C      1  0.5170040000000  0.5536700000000  0.5056870000000 1.0
C      1  0.4843820000000  0.5496830000000  0.5144860000000 1.0
C      1  0.4943300000000  0.5490640000000  0.4818160000000 1.0
C      1  0.4548030000000  0.5174440000000  0.4587700000000 1.0
C      1  0.5586910000000  0.5178890000000  0.4871270000000 1.0
C      1  0.4837440000000  0.5156860000000  0.5621270000000 1.0
C      1  0.4600660000000  0.4835890000000  0.4561080000000 1.0
C      1  0.5615900000000  0.4837380000000  0.4820080000000 1.0
C      1  0.4820430000000  0.4791900000000  0.5591040000000 1.0
C      1  0.5433740000000  0.4653260000000  0.4515460000000 1.0
C      1  0.5208830000000  0.4715270000000  0.5540110000000 1.0
C      1  0.4391030000000  0.4722980000000  0.4881100000000 1.0
C      1  0.5395060000000  0.5258830000000  0.4531290000000 1.0
C      1  0.5197330000000  0.5324410000000  0.5584810000000 1.0
C      1  0.4378410000000  0.5322880000000  0.4935680000000 1.0
C      1  0.4674270000000  0.4848290000000  0.4963450000000 1.0
C      1  0.5233220000000  0.4776670000000  0.4730300000000 1.0
C      1  0.5139140000000  0.4865450000000  0.5261500000000 1.0
C      1  0.4654670000000  0.5179420000000  0.4995660000000 1.0
C      1  0.5186310000000  0.5104020000000  0.4742470000000 1.0
C      1  0.5096340000000  0.5197400000000  0.5313500000000 1.0
C      1  0.4956590000000  0.5038290000000  0.5037030000000 1.0
END
