TITL C-2782229-3092-921 0.000860790716471519 125000 -673.861801568713 0 0 117 (C1) n - 1
REM
REM in /home/nfs/bkarasulu/CARBON/AIRSS/Generating-Clusters/REBO/Higher-Symm/SD-CG/HFTN-CG
REM
REM
REM
REM
REM
REM ./C.cell (12c818d87b63d06a65506943cc24bca4)
REM
REM compiler GCC version 9.2.1 20190827 (Red Hat 9.2.1-1)
REM options -cpp -mtune=generic -march=x86-64 -g -O0 -fpre-include=/usr/include/finclude/math-vector-fortran.h
REM seed -1967226976 1048520334 24406958 -466604258 2000532335 1389901257 -1192600332 -1501110980 -430504216 1975954555 -1853213339 1655596914 -530177490 -187802103 -379348705 2055799875 -1090781444 -1923956464 1486396913 1221421037 -1991008310 -1765927091 1733963650 -1947844772 1056933902 794834794 -1813154592 436892075 -319169363 1586248097 1518040169 -323171613 -714646653
REM
CELL 1.54180   50.00000   50.00000   50.00000   90.00000   90.00000   90.00000
LATT -1
SFAC C  
C      1  0.5187590000000  0.4951930000000  0.4500320000000 1.0
C      1  0.4864110000000  0.5382700000000  0.4943990000000 1.0
C      1  0.5089920000000  0.5105380000000  0.5397280000000 1.0
C      1  0.4900140000000  0.4619240000000  0.5075510000000 1.0
C      1  0.4732100000000  0.4511270000000  0.5351330000000 1.0
C      1  0.5322550000000  0.4642180000000  0.4513800000000 1.0
C      1  0.4698660000000  0.5445460000000  0.4653200000000 1.0
C      1  0.5290120000000  0.5329180000000  0.5516240000000 1.0
C      1  0.5005860000000  0.4625930000000  0.6123220000000 1.0
C      1  0.4971560000000  0.3921220000000  0.4629380000000 1.0
C      1  0.5019960000000  0.5356830000000  0.3894370000000 1.0
C      1  0.5065660000000  0.6003590000000  0.5411370000000 1.0
C      1  0.4489480000000  0.5287270000000  0.5713310000000 1.0
C      1  0.5441930000000  0.4296960000000  0.5372730000000 1.0
C      1  0.4501900000000  0.4735220000000  0.4344990000000 1.0
C      1  0.5480850000000  0.5734370000000  0.4601860000000 1.0
C      1  0.5285390000000  0.5869720000000  0.4803930000000 1.0
C      1  0.4681350000000  0.5131100000000  0.5903750000000 1.0
C      1  0.5235460000000  0.4159470000000  0.5178100000000 1.0
C      1  0.4698810000000  0.4860780000000  0.4142670000000 1.0
C      1  0.4956290000000  0.4188390000000  0.5277410000000 1.0
C      1  0.4959680000000  0.4733570000000  0.4129630000000 1.0
C      1  0.5004720000000  0.5843660000000  0.4715290000000 1.0
C      1  0.4952820000000  0.5245650000000  0.5888500000000 1.0
C      1  0.5452870000000  0.5406570000000  0.5026300000000 1.0
C      1  0.4631070000000  0.4916230000000  0.5427670000000 1.0
C      1  0.5481550000000  0.4625040000000  0.4974870000000 1.0
C      1  0.4580040000000  0.5094850000000  0.4501780000000 1.0
C      1  0.3978110000000  0.5227150000000  0.5172430000000 1.0
C      1  0.5966020000000  0.4847050000000  0.5214620000000 1.0
C      1  0.3962710000000  0.4713880000000  0.4913250000000 1.0
C      1  0.5995600000000  0.5245580000000  0.4852130000000 1.0
C      1  0.4706250000000  0.4889440000000  0.5141710000000 1.0
C      1  0.5278640000000  0.4869590000000  0.4878810000000 1.0
C      1  0.4661620000000  0.5074740000000  0.4797080000000 1.0
C      1  0.5245780000000  0.5150050000000  0.5032830000000 1.0
C      1  0.4757470000000  0.4739960000000  0.4519200000000 1.0
C      1  0.5277370000000  0.5490920000000  0.4677110000000 1.0
C      1  0.4758680000000  0.5277740000000  0.5540310000000 1.0
C      1  0.5247750000000  0.4543400000000  0.5288050000000 1.0
C      1  0.5208490000000  0.4258190000000  0.4327520000000 1.0
C      1  0.4819380000000  0.5688970000000  0.4232940000000 1.0
C      1  0.5190650000000  0.5697450000000  0.5635930000000 1.0
C      1  0.4779890000000  0.4302260000000  0.5782500000000 1.0
C      1  0.4379780000000  0.5359780000000  0.5442660000000 1.0
C      1  0.5612910000000  0.4539660000000  0.5448950000000 1.0
C      1  0.4317260000000  0.4627890000000  0.4535690000000 1.0
C      1  0.5654950000000  0.5487920000000  0.4551860000000 1.0
C      1  0.5224190000000  0.4741010000000  0.6082200000000 1.0
C      1  0.4735250000000  0.3968640000000  0.4698770000000 1.0
C      1  0.5246130000000  0.5252340000000  0.3917690000000 1.0
C      1  0.4832730000000  0.5998240000000  0.5319400000000 1.0
C      1  0.5705550000000  0.5226820000000  0.5277120000000 1.0
C      1  0.4285840000000  0.4818210000000  0.5254630000000 1.0
C      1  0.5810810000000  0.4848140000000  0.4680950000000 1.0
C      1  0.4164530000000  0.5161860000000  0.4742910000000 1.0
C      1  0.4651760000000  0.4248180000000  0.4808200000000 1.0
C      1  0.5350800000000  0.5143370000000  0.4189710000000 1.0
C      1  0.4686180000000  0.5759650000000  0.5172180000000 1.0
C      1  0.5308750000000  0.4855050000000  0.5809210000000 1.0
C      1  0.4905340000000  0.5010500000000  0.4485890000000 1.0
C      1  0.5145360000000  0.5524260000000  0.4947370000000 1.0
C      1  0.4888200000000  0.4978560000000  0.5598540000000 1.0
C      1  0.5169320000000  0.4500830000000  0.4980530000000 1.0
C      1  0.4780330000000  0.5695960000000  0.4873500000000 1.0
C      1  0.5219170000000  0.5150010000000  0.5772720000000 1.0
C      1  0.4714800000000  0.4270520000000  0.5108410000000 1.0
C      1  0.5276650000000  0.4815600000000  0.4222120000000 1.0
C      1  0.5514490000000  0.5002160000000  0.5188050000000 1.0
C      1  0.4436700000000  0.4770820000000  0.4960280000000 1.0
C      1  0.5571730000000  0.5029860000000  0.4794980000000 1.0
C      1  0.4429080000000  0.5166520000000  0.4956570000000 1.0
C      1  0.5583760000000  0.5327620000000  0.4338520000000 1.0
C      1  0.4446150000000  0.5597670000000  0.5324910000000 1.0
C      1  0.5553750000000  0.4683540000000  0.5674030000000 1.0
C      1  0.4400400000000  0.4393830000000  0.4659010000000 1.0
C      1  0.5086880000000  0.4464760000000  0.4199160000000 1.0
C      1  0.4940340000000  0.5826300000000  0.4434900000000 1.0
C      1  0.5057480000000  0.5515460000000  0.5786910000000 1.0
C      1  0.4896090000000  0.4202450000000  0.5557690000000 1.0
C      1  0.5690100000000  0.5341840000000  0.4823250000000 1.0
C      1  0.4277140000000  0.5145450000000  0.5254920000000 1.0
C      1  0.5676380000000  0.4705630000000  0.5202460000000 1.0
C      1  0.4198860000000  0.4836960000000  0.4738890000000 1.0
C      1  0.4006940000000  0.4702580000000  0.5163500000000 1.0
C      1  0.6046860000000  0.4994040000000  0.4743360000000 1.0
C      1  0.3930660000000  0.5247920000000  0.4923420000000 1.0
C      1  0.5960910000000  0.5119310000000  0.5273640000000 1.0
C      1  0.5214010000000  0.4120110000000  0.4638500000000 1.0
C      1  0.4786970000000  0.5375900000000  0.4104140000000 1.0
C      1  0.5310020000000  0.5800090000000  0.5332110000000 1.0
C      1  0.4771740000000  0.4608360000000  0.5918890000000 1.0
C      1  0.5263760000000  0.4870260000000  0.5315410000000 1.0
C      1  0.4688430000000  0.4645220000000  0.4830270000000 1.0
C      1  0.5358090000000  0.5170090000000  0.4628370000000 1.0
C      1  0.4862340000000  0.5252200000000  0.5216290000000 1.0
C      1  0.4593630000000  0.4860730000000  0.5971610000000 1.0
C      1  0.5350750000000  0.4082810000000  0.4921430000000 1.0
C      1  0.4612340000000  0.5125150000000  0.4051400000000 1.0
C      1  0.5415130000000  0.5911390000000  0.5062590000000 1.0
C      1  0.4850320000000  0.4449330000000  0.4623060000000 1.0
C      1  0.5181900000000  0.5341020000000  0.4409010000000 1.0
C      1  0.4840180000000  0.5549360000000  0.5364890000000 1.0
C      1  0.5167980000000  0.4691980000000  0.5571170000000 1.0
C      1  0.4359640000000  0.5161000000000  0.3942890000000 1.0
C      1  0.5662830000000  0.6037990000000  0.5066900000000 1.0
C      1  0.4334530000000  0.4819070000000  0.6062410000000 1.0
C      1  0.5612880000000  0.3988730000000  0.4919260000000 1.0
C      1  0.4393670000000  0.5328200000000  0.4594730000000 1.0
C      1  0.5521830000000  0.5482780000000  0.5335340000000 1.0
C      1  0.4450090000000  0.4654620000000  0.5476720000000 1.0
C      1  0.5586370000000  0.4648590000000  0.4678690000000 1.0
C      1  0.4865310000000  0.4652590000000  0.5613400000000 1.0
C      1  0.5143070000000  0.4432940000000  0.4679350000000 1.0
C      1  0.4878460000000  0.5336260000000  0.4408530000000 1.0
C      1  0.5147510000000  0.5526340000000  0.5278250000000 1.0
C      1  0.4961260000000  0.4988060000000  0.4935120000000 1.0
END
