TITL C-2782239-8622-1095 0.00229532674725621 125000 -901.73825725262 0 0 157 (C1) n - 1
REM
REM in /home/nfs/bkarasulu/CARBON/AIRSS/Generating-Clusters/REBO/Higher-Symm/SD-CG/HFTN-CG
REM
REM
REM
REM
REM
REM ./C.cell (12c818d87b63d06a65506943cc24bca4)
REM
REM compiler GCC version 9.2.1 20190827 (Red Hat 9.2.1-1)
REM options -cpp -mtune=generic -march=x86-64 -g -O0 -fpre-include=/usr/include/finclude/math-vector-fortran.h
REM seed 1582484143 367657144 822005096 -1091017825 1714757083 1502420997 832634754 -202885233 1459366365 1528731267 722702920 -802473180 449343137 1500921218 596595662 1818783940 -963560632 -1109370549 1142512365 2063640161 746351738 -798275324 -1218678941 -1394673221 -1280402923 411256793 -1545013650 -236122126 569310093 -1540782834 -961866929 -1647064291 -491684987
REM
CELL 1.54180   50.00000   50.00000   50.00000   90.00000   90.00000   90.00000
LATT -1
SFAC C  
C      1  0.5087430000000  0.4434980000000  0.5849170000000 1.0
C      1  0.5841010000000  0.4409450000000  0.4949110000000 1.0
C      1  0.4944260000000  0.4320720000000  0.4169780000000 1.0
C      1  0.4034380000000  0.4516750000000  0.5071250000000 1.0
C      1  0.5512510000000  0.5205280000000  0.5818180000000 1.0
C      1  0.5826300000000  0.5236850000000  0.4474650000000 1.0
C      1  0.4493370000000  0.5187760000000  0.4170210000000 1.0
C      1  0.4185860000000  0.5204110000000  0.5522310000000 1.0
C      1  0.4771430000000  0.5836820000000  0.5571430000000 1.0
C      1  0.5539180000000  0.5849840000000  0.5237400000000 1.0
C      1  0.5225180000000  0.5855850000000  0.4412370000000 1.0
C      1  0.4423180000000  0.5856960000000  0.4745050000000 1.0
C      1  0.4338470000000  0.4608070000000  0.4326740000000 1.0
C      1  0.4369620000000  0.4621630000000  0.5674890000000 1.0
C      1  0.5708560000000  0.4619000000000  0.5728590000000 1.0
C      1  0.5697540000000  0.4659720000000  0.4336430000000 1.0
C      1  0.5536760000000  0.4662090000000  0.4954450000000 1.0
C      1  0.5129030000000  0.4536380000000  0.4449260000000 1.0
C      1  0.4534190000000  0.4453040000000  0.4915430000000 1.0
C      1  0.4861930000000  0.4534750000000  0.5525160000000 1.0
C      1  0.5104590000000  0.4547830000000  0.4768690000000 1.0
C      1  0.4809590000000  0.4563030000000  0.4937080000000 1.0
C      1  0.4951250000000  0.4507170000000  0.5234000000000 1.0
C      1  0.5252770000000  0.4519790000000  0.5077320000000 1.0
C      1  0.5560510000000  0.5527250000000  0.4794250000000 1.0
C      1  0.4807220000000  0.5529490000000  0.4365890000000 1.0
C      1  0.4442220000000  0.5517090000000  0.5178270000000 1.0
C      1  0.5202470000000  0.5512130000000  0.5610970000000 1.0
C      1  0.5013790000000  0.4953540000000  0.6062370000000 1.0
C      1  0.6054710000000  0.5001080000000  0.4977320000000 1.0
C      1  0.5002840000000  0.4917030000000  0.3951570000000 1.0
C      1  0.4051170000000  0.5026710000000  0.4971200000000 1.0
C      1  0.5562180000000  0.4368360000000  0.4783810000000 1.0
C      1  0.4749120000000  0.4232260000000  0.4347430000000 1.0
C      1  0.4302230000000  0.4400780000000  0.5151570000000 1.0
C      1  0.5221170000000  0.4315380000000  0.5633190000000 1.0
C      1  0.4349520000000  0.4960550000000  0.5695800000000 1.0
C      1  0.5698250000000  0.4964170000000  0.5663110000000 1.0
C      1  0.5649780000000  0.4990100000000  0.4314520000000 1.0
C      1  0.4330850000000  0.4954410000000  0.4361950000000 1.0
C      1  0.4883160000000  0.5471710000000  0.5007000000000 1.0
C      1  0.4918420000000  0.5208850000000  0.5205420000000 1.0
C      1  0.5190480000000  0.5219080000000  0.5033060000000 1.0
C      1  0.4999320000000  0.5294970000000  0.4772110000000 1.0
C      1  0.5227340000000  0.4217970000000  0.4486620000000 1.0
C      1  0.4355980000000  0.4168970000000  0.4607080000000 1.0
C      1  0.4624070000000  0.4200030000000  0.5496040000000 1.0
C      1  0.5593450000000  0.4259900000000  0.5357480000000 1.0
C      1  0.5130270000000  0.4849500000000  0.4449590000000 1.0
C      1  0.4563120000000  0.4953260000000  0.4898020000000 1.0
C      1  0.4944250000000  0.4925010000000  0.5532150000000 1.0
C      1  0.5482890000000  0.4983460000000  0.5185750000000 1.0
C      1  0.5204140000000  0.5726530000000  0.5059380000000 1.0
C      1  0.5088620000000  0.5700820000000  0.4752490000000 1.0
C      1  0.4784370000000  0.5755660000000  0.4874510000000 1.0
C      1  0.4938780000000  0.5671920000000  0.5249420000000 1.0
C      1  0.4143830000000  0.4329850000000  0.4735040000000 1.0
C      1  0.4715990000000  0.4252050000000  0.5759250000000 1.0
C      1  0.5810310000000  0.4403320000000  0.5251230000000 1.0
C      1  0.5267390000000  0.4292680000000  0.4165990000000 1.0
C      1  0.4864920000000  0.4865420000000  0.4798340000000 1.0
C      1  0.4841410000000  0.4818970000000  0.5245410000000 1.0
C      1  0.5183180000000  0.4831860000000  0.5225220000000 1.0
C      1  0.5179580000000  0.4857530000000  0.4881410000000 1.0
C      1  0.4300420000000  0.5095290000000  0.4787730000000 1.0
C      1  0.4875690000000  0.5090820000000  0.5791210000000 1.0
C      1  0.5763440000000  0.5112040000000  0.5114760000000 1.0
C      1  0.5129380000000  0.5079690000000  0.4219710000000 1.0
C      1  0.5862810000000  0.4728780000000  0.5025480000000 1.0
C      1  0.5060520000000  0.4629220000000  0.4125970000000 1.0
C      1  0.3921530000000  0.4724820000000  0.4951690000000 1.0
C      1  0.4994490000000  0.4625760000000  0.6005680000000 1.0
C      1  0.5872120000000  0.5475730000000  0.5236550000000 1.0
C      1  0.5249370000000  0.5437220000000  0.4088290000000 1.0
C      1  0.4138240000000  0.5455910000000  0.4748780000000 1.0
C      1  0.4739640000000  0.5442640000000  0.5921530000000 1.0
C      1  0.4959900000000  0.5423130000000  0.4107840000000 1.0
C      1  0.4170770000000  0.5431970000000  0.5031800000000 1.0
C      1  0.5040690000000  0.5439690000000  0.5886630000000 1.0
C      1  0.5833380000000  0.5467220000000  0.4948430000000 1.0
C      1  0.5364550000000  0.4159330000000  0.5208580000000 1.0
C      1  0.5144760000000  0.4089790000000  0.4753100000000 1.0
C      1  0.4568650000000  0.4053080000000  0.4793510000000 1.0
C      1  0.4842820000000  0.4123690000000  0.5263200000000 1.0
C      1  0.5974610000000  0.5186810000000  0.5373480000000 1.0
C      1  0.5405560000000  0.5138490000000  0.4035980000000 1.0
C      1  0.4020980000000  0.5172530000000  0.4602480000000 1.0
C      1  0.4602380000000  0.5133240000000  0.5974940000000 1.0
C      1  0.4472040000000  0.4299360000000  0.4378690000000 1.0
C      1  0.4403450000000  0.4379260000000  0.5442900000000 1.0
C      1  0.5508410000000  0.4370200000000  0.5610390000000 1.0
C      1  0.5507290000000  0.4410910000000  0.4462790000000 1.0
C      1  0.4761620000000  0.6072560000000  0.4953390000000 1.0
C      1  0.4941680000000  0.5987900000000  0.5206940000000 1.0
C      1  0.5246860000000  0.6063860000000  0.5115960000000 1.0
C      1  0.5071370000000  0.6028720000000  0.4836280000000 1.0
C      1  0.5344220000000  0.5308540000000  0.4761590000000 1.0
C      1  0.4778990000000  0.5281430000000  0.4567800000000 1.0
C      1  0.4598850000000  0.5285040000000  0.5272280000000 1.0
C      1  0.5207440000000  0.5287890000000  0.5369930000000 1.0
C      1  0.4546150000000  0.4916010000000  0.5189510000000 1.0
C      1  0.5233570000000  0.4826490000000  0.5568300000000 1.0
C      1  0.5480780000000  0.4933710000000  0.4791740000000 1.0
C      1  0.4827180000000  0.4913960000000  0.4479740000000 1.0
C      1  0.5728000000000  0.5299570000000  0.5578910000000 1.0
C      1  0.5598000000000  0.5325330000000  0.4245820000000 1.0
C      1  0.4275760000000  0.5291740000000  0.4409960000000 1.0
C      1  0.4408790000000  0.5299900000000  0.5750070000000 1.0
C      1  0.4799340000000  0.5181960000000  0.4016500000000 1.0
C      1  0.4053870000000  0.5211120000000  0.5221560000000 1.0
C      1  0.5211500000000  0.5201230000000  0.5977290000000 1.0
C      1  0.5961560000000  0.5247820000000  0.4786320000000 1.0
C      1  0.4550670000000  0.5602730000000  0.5687080000000 1.0
C      1  0.5664200000000  0.5609370000000  0.5449280000000 1.0
C      1  0.5444140000000  0.5618540000000  0.4300200000000 1.0
C      1  0.4331040000000  0.5605260000000  0.4531430000000 1.0
C      1  0.5829690000000  0.4661260000000  0.5417220000000 1.0
C      1  0.5452320000000  0.4553980000000  0.4149670000000 1.0
C      1  0.4382260000000  0.4562980000000  0.4664020000000 1.0
C      1  0.4658440000000  0.4579080000000  0.5795510000000 1.0
C      1  0.4706330000000  0.4810480000000  0.6016030000000 1.0
C      1  0.6025590000000  0.4870250000000  0.5292190000000 1.0
C      1  0.5324050000000  0.4809320000000  0.4001430000000 1.0
C      1  0.3814490000000  0.4954810000000  0.4737190000000 1.0
C      1  0.5241370000000  0.5288910000000  0.4457240000000 1.0
C      1  0.4518510000000  0.5311500000000  0.4726050000000 1.0
C      1  0.4758130000000  0.5287190000000  0.5557200000000 1.0
C      1  0.5512650000000  0.5304430000000  0.5242490000000 1.0
C      1  0.5375480000000  0.4165510000000  0.4926600000000 1.0
C      1  0.4840600000000  0.4088650000000  0.4601590000000 1.0
C      1  0.4544080000000  0.4171470000000  0.5105390000000 1.0
C      1  0.5128300000000  0.4181150000000  0.5382720000000 1.0
C      1  0.4527690000000  0.4838120000000  0.4588520000000 1.0
C      1  0.4606170000000  0.4990340000000  0.5514990000000 1.0
C      1  0.5523980000000  0.4807620000000  0.5432180000000 1.0
C      1  0.5398270000000  0.5006700000000  0.4504980000000 1.0
C      1  0.4565400000000  0.4694690000000  0.4122310000000 1.0
C      1  0.4169930000000  0.4702360000000  0.5432390000000 1.0
C      1  0.5516710000000  0.4724910000000  0.5955340000000 1.0
C      1  0.5876370000000  0.4752270000000  0.4555140000000 1.0
C      1  0.4516230000000  0.5565700000000  0.4883020000000 1.0
C      1  0.4908100000000  0.5535770000000  0.5522270000000 1.0
C      1  0.5471760000000  0.5559780000000  0.5091710000000 1.0
C      1  0.5095270000000  0.5551790000000  0.4481530000000 1.0
C      1  0.4913730000000  0.5905590000000  0.4444290000000 1.0
C      1  0.4444460000000  0.5903850000000  0.5081490000000 1.0
C      1  0.5083870000000  0.5891190000000  0.5566750000000 1.0
C      1  0.5534470000000  0.5907940000000  0.4906110000000 1.0
C      1  0.5493770000000  0.5770080000000  0.4604440000000 1.0
C      1  0.4625370000000  0.5770890000000  0.4481280000000 1.0
C      1  0.4499110000000  0.5755380000000  0.5382460000000 1.0
C      1  0.5369650000000  0.5766000000000  0.5521690000000 1.0
C      1  0.5343530000000  0.4919220000000  0.5841860000000 1.0
C      1  0.5776760000000  0.4983930000000  0.4692430000000 1.0
C      1  0.4695910000000  0.4929790000000  0.4203400000000 1.0
C      1  0.4249380000000  0.4945860000000  0.5309060000000 1.0
C      1  0.4876240000000  0.4032220000000  0.4941210000000 1.0
END
