TITL C-2782232-2968-1458 -0.000947285032071659 125000 -823.040156253485 0 0 128 (C2) n - 1
REM
REM in /home/nfs/bkarasulu/CARBON/AIRSS/Generating-Clusters/REBO/Higher-Symm/SD-CG/HFTN-CG
REM
REM
REM
REM
REM
REM ./C.cell (12c818d87b63d06a65506943cc24bca4)
REM
REM compiler GCC version 9.2.1 20190827 (Red Hat 9.2.1-1)
REM options -cpp -mtune=generic -march=x86-64 -g -O0 -fpre-include=/usr/include/finclude/math-vector-fortran.h
REM seed -1714530529 1162130370 120878407 -132246041 2054380949 961861421 -1252508722 -302964451 914150562 1965175927 -1535183840 1275145350 1389372435 581283869 712165302 79556017 1376615646 262754628 -1578146061 1784093932 1863248692 -1279476814 -1741919305 -2071807508 1872814041 -525338408 -1539352865 997510945 1103199216 -1451080604 359110085 -119648004 463046963
REM
CELL 1.54180   50.00000   50.00000   50.00000   90.00000   90.00000   90.00000
LATT -1
SFAC C  
C      1  0.5534640000000  0.4858630000000  0.5291610000000 1.0
C      1  0.5282680000000  0.5535070000000  0.4861790000000 1.0
C      1  0.4869930000000  0.5281600000000  0.5527530000000 1.0
C      1  0.4470950000000  0.4868960000000  0.4718910000000 1.0
C      1  0.5534620000000  0.5143530000000  0.4708130000000 1.0
C      1  0.4470970000000  0.5133180000000  0.5280890000000 1.0
C      1  0.4719530000000  0.5530910000000  0.5130490000000 1.0
C      1  0.5282700000000  0.4467090000000  0.5137960000000 1.0
C      1  0.4719530000000  0.4471240000000  0.4869300000000 1.0
C      1  0.5132280000000  0.5287060000000  0.4463940000000 1.0
C      1  0.4869900000000  0.4720550000000  0.4472240000000 1.0
C      1  0.5132310000000  0.4715100000000  0.5535820000000 1.0
C      1  0.5536960000000  0.5133860000000  0.5282540000000 1.0
C      1  0.5293960000000  0.4465910000000  0.4862810000000 1.0
C      1  0.4857300000000  0.4707220000000  0.5541670000000 1.0
C      1  0.4462150000000  0.5144020000000  0.4706570000000 1.0
C      1  0.5536950000000  0.4868300000000  0.4717200000000 1.0
C      1  0.4462170000000  0.4858130000000  0.5293230000000 1.0
C      1  0.4708490000000  0.4461490000000  0.5144400000000 1.0
C      1  0.5293960000000  0.5536250000000  0.5136940000000 1.0
C      1  0.4708480000000  0.5540660000000  0.4855390000000 1.0
C      1  0.5145380000000  0.4712650000000  0.4466350000000 1.0
C      1  0.4857260000000  0.5294930000000  0.4458110000000 1.0
C      1  0.5145410000000  0.5289500000000  0.5533400000000 1.0
C      1  0.5288910000000  0.5805110000000  0.5309690000000 1.0
C      1  0.5318080000000  0.5282390000000  0.5802540000000 1.0
C      1  0.5809740000000  0.5299670000000  0.5268620000000 1.0
C      1  0.4713930000000  0.5810970000000  0.4684930000000 1.0
C      1  0.5288900000000  0.4197050000000  0.4690060000000 1.0
C      1  0.4713960000000  0.4191180000000  0.5314850000000 1.0
C      1  0.4685890000000  0.5287640000000  0.4188700000000 1.0
C      1  0.5318040000000  0.4719770000000  0.4197210000000 1.0
C      1  0.4685940000000  0.4714520000000  0.5811080000000 1.0
C      1  0.4192230000000  0.5314840000000  0.4713400000000 1.0
C      1  0.5809730000000  0.4702490000000  0.4731100000000 1.0
C      1  0.4192250000000  0.4687300000000  0.5286410000000 1.0
C      1  0.5267920000000  0.4193930000000  0.5303750000000 1.0
C      1  0.5298650000000  0.4727660000000  0.5808660000000 1.0
C      1  0.5803640000000  0.4685270000000  0.5285850000000 1.0
C      1  0.4733780000000  0.4199410000000  0.4700830000000 1.0
C      1  0.5267900000000  0.5808230000000  0.4696000000000 1.0
C      1  0.4733780000000  0.5802740000000  0.5298950000000 1.0
C      1  0.4702480000000  0.4733070000000  0.4199470000000 1.0
C      1  0.5298600000000  0.5274500000000  0.4191080000000 1.0
C      1  0.4702520000000  0.5269080000000  0.5800310000000 1.0
C      1  0.4198720000000  0.4701000000000  0.4731840000000 1.0
C      1  0.5803620000000  0.5316890000000  0.4713870000000 1.0
C      1  0.4198730000000  0.5301150000000  0.5267970000000 1.0
C      1  0.3966210000000  0.5164740000000  0.4831970000000 1.0
C      1  0.4832020000000  0.3964830000000  0.5164170000000 1.0
C      1  0.5166960000000  0.4834140000000  0.3968620000000 1.0
C      1  0.6029060000000  0.5143500000000  0.5137920000000 1.0
C      1  0.3966230000000  0.4837400000000  0.5167850000000 1.0
C      1  0.6029050000000  0.4858660000000  0.4861790000000 1.0
C      1  0.5171010000000  0.3969200000000  0.4838550000000 1.0
C      1  0.4832000000000  0.6037330000000  0.4835610000000 1.0
C      1  0.5171000000000  0.6032960000000  0.5161200000000 1.0
C      1  0.4836060000000  0.4834290000000  0.6036960000000 1.0
C      1  0.5167020000000  0.5168010000000  0.6031140000000 1.0
C      1  0.4836000000000  0.5167860000000  0.3962820000000 1.0
C      1  0.3976390000000  0.4858640000000  0.4861120000000 1.0
C      1  0.4863280000000  0.6024960000000  0.5141920000000 1.0
C      1  0.5142410000000  0.5140850000000  0.3971720000000 1.0
C      1  0.6033080000000  0.4836240000000  0.5169790000000 1.0
C      1  0.3976400000000  0.5143500000000  0.5138710000000 1.0
C      1  0.6033070000000  0.5165930000000  0.4829920000000 1.0
C      1  0.5138640000000  0.6028670000000  0.4855230000000 1.0
C      1  0.4863280000000  0.3977190000000  0.4857850000000 1.0
C      1  0.5138660000000  0.3973490000000  0.5144520000000 1.0
C      1  0.4860110000000  0.5141090000000  0.6022930000000 1.0
C      1  0.5142470000000  0.4861310000000  0.6028040000000 1.0
C      1  0.4860060000000  0.4861070000000  0.3976850000000 1.0
C      1  0.4253520000000  0.5269400000000  0.5587030000000 1.0
C      1  0.5586490000000  0.4242350000000  0.5267660000000 1.0
C      1  0.5266380000000  0.5594000000000  0.4246360000000 1.0
C      1  0.5745850000000  0.5284950000000  0.4399620000000 1.0
C      1  0.4253490000000  0.4732750000000  0.4412770000000 1.0
C      1  0.5745890000000  0.4717210000000  0.5600100000000 1.0
C      1  0.4414250000000  0.4253090000000  0.4732320000000 1.0
C      1  0.5586460000000  0.5759810000000  0.4732070000000 1.0
C      1  0.4414250000000  0.5749060000000  0.5267470000000 1.0
C      1  0.4735410000000  0.5587560000000  0.5746360000000 1.0
C      1  0.5266430000000  0.4408160000000  0.5753390000000 1.0
C      1  0.4735380000000  0.4414590000000  0.4253420000000 1.0
C      1  0.4243490000000  0.4724140000000  0.5599970000000 1.0
C      1  0.5602790000000  0.5747580000000  0.5277590000000 1.0
C      1  0.5281950000000  0.4406620000000  0.4248220000000 1.0
C      1  0.5761500000000  0.4739330000000  0.4412940000000 1.0
C      1  0.4243450000000  0.5278010000000  0.4399840000000 1.0
C      1  0.5761530000000  0.5262830000000  0.5586790000000 1.0
C      1  0.4400810000000  0.5758470000000  0.4722040000000 1.0
C      1  0.5602780000000  0.4254580000000  0.4722140000000 1.0
C      1  0.4400840000000  0.4243680000000  0.5277760000000 1.0
C      1  0.4721730000000  0.4400330000000  0.5759080000000 1.0
C      1  0.5281980000000  0.5595540000000  0.5751530000000 1.0
C      1  0.4721680000000  0.5601820000000  0.4240710000000 1.0
C      1  0.5567780000000  0.4857200000000  0.5750320000000 1.0
C      1  0.5744590000000  0.5576730000000  0.4857280000000 1.0
C      1  0.4867750000000  0.5743400000000  0.5565990000000 1.0
C      1  0.4433640000000  0.4864930000000  0.4256250000000 1.0
C      1  0.5567730000000  0.5144970000000  0.4249410000000 1.0
C      1  0.4433680000000  0.5137220000000  0.5743550000000 1.0
C      1  0.4257050000000  0.5569270000000  0.5135440000000 1.0
C      1  0.5744610000000  0.4425430000000  0.5142440000000 1.0
C      1  0.4257050000000  0.4432880000000  0.4864370000000 1.0
C      1  0.5134830000000  0.5749800000000  0.4427850000000 1.0
C      1  0.4867720000000  0.4258760000000  0.4433780000000 1.0
C      1  0.5134870000000  0.4252360000000  0.5571910000000 1.0
C      1  0.5577360000000  0.5138130000000  0.5743920000000 1.0
C      1  0.5751900000000  0.4433950000000  0.4861490000000 1.0
C      1  0.4853680000000  0.4248750000000  0.5576530000000 1.0
C      1  0.4426090000000  0.5145890000000  0.4248880000000 1.0
C      1  0.5577320000000  0.4864030000000  0.4255820000000 1.0
C      1  0.4426140000000  0.4856250000000  0.5750920000000 1.0
C      1  0.4250750000000  0.4426730000000  0.5145380000000 1.0
C      1  0.5751910000000  0.5568220000000  0.5138240000000 1.0
C      1  0.4250740000000  0.5575420000000  0.4854420000000 1.0
C      1  0.5148730000000  0.4255250000000  0.4429370000000 1.0
C      1  0.4853640000000  0.5753410000000  0.4423250000000 1.0
C      1  0.5148760000000  0.5746900000000  0.5570380000000 1.0
C      1  0.4695600000000  0.4695040000000  0.5307360000000 1.0
C      1  0.5297350000000  0.5302800000000  0.4696280000000 1.0
C      1  0.5306240000000  0.4701530000000  0.4702120000000 1.0
C      1  0.4695570000000  0.5307110000000  0.4692420000000 1.0
C      1  0.5306260000000  0.5300630000000  0.5297630000000 1.0
C      1  0.4705490000000  0.5296410000000  0.5293780000000 1.0
C      1  0.4705470000000  0.4705740000000  0.4706000000000 1.0
C      1  0.5297370000000  0.4699360000000  0.5303470000000 1.0
END
