TITL C-2782225-7408-759 -0.00387431438730164 125000 -1007.35582416921 0 0 178 (C1) n - 1
REM
REM in /home/nfs/bkarasulu/CARBON/AIRSS/Generating-Clusters/REBO/Higher-Symm/SD-CG/HFTN-CG
REM
REM
REM
REM
REM
REM ./C.cell (12c818d87b63d06a65506943cc24bca4)
REM
REM compiler GCC version 9.2.1 20190827 (Red Hat 9.2.1-1)
REM options -cpp -mtune=generic -march=x86-64 -g -O0 -fpre-include=/usr/include/finclude/math-vector-fortran.h
REM seed -136814261 -873512108 -1091107554 -987349689 1187887871 -1662661369 904175115 -386036658 -765139854 398417858 2095296785 1808185399 1666669056 1705963684 -400686238 -1639469497 1973838665 2095247283 18123476 1423927649 182583222 -2076631142 1301278430 547154932 -569800665 -1016898159 -2029896245 995373781 -546772284 339346795 -1097926626 -1260050881 -487008341
REM
CELL 1.54180   50.00000   50.00000   50.00000   90.00000   90.00000   90.00000
LATT -1
SFAC C  
C      1  0.4172260000000  0.5560860000000  0.4880720000000 1.0
C      1  0.4173230000000  0.4865980000000  0.5646930000000 1.0
C      1  0.4173490000000  0.4631400000000  0.4549870000000 1.0
C      1  0.4164070000000  0.5601470000000  0.5173320000000 1.0
C      1  0.4138460000000  0.4898330000000  0.4360800000000 1.0
C      1  0.4204540000000  0.4638520000000  0.5461000000000 1.0
C      1  0.4988780000000  0.6037710000000  0.5110130000000 1.0
C      1  0.4970690000000  0.4255580000000  0.5876950000000 1.0
C      1  0.5016910000000  0.4584340000000  0.3957960000000 1.0
C      1  0.4945480000000  0.6053530000000  0.4775940000000 1.0
C      1  0.4985040000000  0.4302300000000  0.4136870000000 1.0
C      1  0.5021180000000  0.4545180000000  0.6005350000000 1.0
C      1  0.4232680000000  0.4147670000000  0.5063020000000 1.0
C      1  0.4207390000000  0.5218750000000  0.4351970000000 1.0
C      1  0.4232180000000  0.5554640000000  0.5655560000000 1.0
C      1  0.4226140000000  0.4214820000000  0.4819620000000 1.0
C      1  0.4249280000000  0.5356850000000  0.5811810000000 1.0
C      1  0.4221410000000  0.5483790000000  0.4332400000000 1.0
C      1  0.5417750000000  0.5497840000000  0.5626490000000 1.0
C      1  0.5384060000000  0.4377550000000  0.5131700000000 1.0
C      1  0.5404160000000  0.5197190000000  0.4306300000000 1.0
C      1  0.5374030000000  0.5466790000000  0.4493940000000 1.0
C      1  0.5432710000000  0.4427120000000  0.4817790000000 1.0
C      1  0.5322610000000  0.5170640000000  0.5598780000000 1.0
C      1  0.4499860000000  0.4998240000000  0.4746970000000 1.0
C      1  0.4483960000000  0.5339340000000  0.5262300000000 1.0
C      1  0.4439560000000  0.4601710000000  0.5141570000000 1.0
C      1  0.4428230000000  0.5087060000000  0.5435050000000 1.0
C      1  0.4432770000000  0.5264710000000  0.4945970000000 1.0
C      1  0.4496550000000  0.4668570000000  0.4831240000000 1.0
C      1  0.5284850000000  0.5022120000000  0.5292720000000 1.0
C      1  0.5388970000000  0.4747010000000  0.4764520000000 1.0
C      1  0.5350440000000  0.5338850000000  0.4795130000000 1.0
C      1  0.5395390000000  0.5007650000000  0.4575680000000 1.0
C      1  0.5331580000000  0.4696400000000  0.5240960000000 1.0
C      1  0.5405710000000  0.5426480000000  0.5309150000000 1.0
C      1  0.5124990000000  0.4150860000000  0.5491560000000 1.0
C      1  0.5134060000000  0.4991060000000  0.4004580000000 1.0
C      1  0.5250810000000  0.5843570000000  0.5506380000000 1.0
C      1  0.5197440000000  0.4137680000000  0.4433180000000 1.0
C      1  0.5227520000000  0.5068450000000  0.6072070000000 1.0
C      1  0.5166760000000  0.5878100000000  0.4471400000000 1.0
C      1  0.4716790000000  0.4508060000000  0.4419910000000 1.0
C      1  0.4779630000000  0.5691300000000  0.4772860000000 1.0
C      1  0.4702650000000  0.4831410000000  0.5726400000000 1.0
C      1  0.4727460000000  0.4548770000000  0.5579670000000 1.0
C      1  0.4684570000000  0.5721090000000  0.5099510000000 1.0
C      1  0.4791070000000  0.4800210000000  0.4266810000000 1.0
C      1  0.5626610000000  0.4567710000000  0.4497530000000 1.0
C      1  0.5726300000000  0.5681450000000  0.4841650000000 1.0
C      1  0.5604730000000  0.4756600000000  0.5648110000000 1.0
C      1  0.5614680000000  0.4464030000000  0.5470130000000 1.0
C      1  0.5811920000000  0.5626760000000  0.5167450000000 1.0
C      1  0.5677180000000  0.4858670000000  0.4321320000000 1.0
C      1  0.5380260000000  0.4767450000000  0.4256380000000 1.0
C      1  0.5307260000000  0.5665900000000  0.5153750000000 1.0
C      1  0.5320160000000  0.4487730000000  0.5578950000000 1.0
C      1  0.5265540000000  0.4785630000000  0.5685620000000 1.0
C      1  0.5425570000000  0.5740720000000  0.4867030000000 1.0
C      1  0.5294670000000  0.4523260000000  0.4451120000000 1.0
C      1  0.4707520000000  0.5525980000000  0.4500290000000 1.0
C      1  0.4772080000000  0.5254880000000  0.5738810000000 1.0
C      1  0.4728620000000  0.4247990000000  0.4771790000000 1.0
C      1  0.4773560000000  0.5504220000000  0.5536980000000 1.0
C      1  0.4703250000000  0.5260250000000  0.4347320000000 1.0
C      1  0.4726080000000  0.4282920000000  0.5093080000000 1.0
C      1  0.4856920000000  0.4812640000000  0.6091500000000 1.0
C      1  0.4815180000000  0.4079980000000  0.4330490000000 1.0
C      1  0.4740650000000  0.5988960000000  0.4512160000000 1.0
C      1  0.4806440000000  0.4821190000000  0.3868900000000 1.0
C      1  0.4793320000000  0.4074360000000  0.5700540000000 1.0
C      1  0.4797790000000  0.5980550000000  0.5386020000000 1.0
C      1  0.5041900000000  0.3951300000000  0.4860250000000 1.0
C      1  0.4949790000000  0.5645300000000  0.4107730000000 1.0
C      1  0.5006710000000  0.5398990000000  0.6046000000000 1.0
C      1  0.5020230000000  0.3893040000000  0.5196530000000 1.0
C      1  0.4967060000000  0.5687670000000  0.5867310000000 1.0
C      1  0.5025620000000  0.5366190000000  0.3927890000000 1.0
C      1  0.4421070000000  0.4429740000000  0.5501960000000 1.0
C      1  0.4448230000000  0.4812380000000  0.4249660000000 1.0
C      1  0.4389040000000  0.5811950000000  0.5245060000000 1.0
C      1  0.4383740000000  0.4437700000000  0.4402260000000 1.0
C      1  0.4397750000000  0.4854390000000  0.5875270000000 1.0
C      1  0.4331880000000  0.5735680000000  0.4728940000000 1.0
C      1  0.4694430000000  0.5846730000000  0.4225560000000 1.0
C      1  0.4833090000000  0.5107170000000  0.6104300000000 1.0
C      1  0.4805010000000  0.3890400000000  0.4612820000000 1.0
C      1  0.4745280000000  0.5872770000000  0.5678360000000 1.0
C      1  0.4791530000000  0.5123290000000  0.3849960000000 1.0
C      1  0.4799560000000  0.3919080000000  0.5459490000000 1.0
C      1  0.4590010000000  0.4321780000000  0.5776770000000 1.0
C      1  0.4613510000000  0.4604930000000  0.4047590000000 1.0
C      1  0.4589130000000  0.6046610000000  0.5122010000000 1.0
C      1  0.4594110000000  0.4293880000000  0.4183840000000 1.0
C      1  0.4615040000000  0.4606040000000  0.5962150000000 1.0
C      1  0.4561150000000  0.5952990000000  0.4800980000000 1.0
C      1  0.5094770000000  0.4634320000000  0.4835580000000 1.0
C      1  0.5026860000000  0.5386870000000  0.4696640000000 1.0
C      1  0.4982890000000  0.5084290000000  0.5409880000000 1.0
C      1  0.5017550000000  0.4607570000000  0.5144750000000 1.0
C      1  0.5078330000000  0.5363170000000  0.5270870000000 1.0
C      1  0.5099340000000  0.5113520000000  0.4549440000000 1.0
C      1  0.4629180000000  0.3942650000000  0.5196480000000 1.0
C      1  0.4644350000000  0.5340510000000  0.4039230000000 1.0
C      1  0.4591910000000  0.5601690000000  0.5819970000000 1.0
C      1  0.4646020000000  0.3943780000000  0.4899730000000 1.0
C      1  0.4614680000000  0.5356470000000  0.6024970000000 1.0
C      1  0.4558210000000  0.5621400000000  0.4044600000000 1.0
C      1  0.4979420000000  0.4856290000000  0.5604090000000 1.0
C      1  0.4991320000000  0.4590220000000  0.4538960000000 1.0
C      1  0.5109760000000  0.5675570000000  0.4810780000000 1.0
C      1  0.5087360000000  0.4853770000000  0.4373490000000 1.0
C      1  0.5027070000000  0.4559560000000  0.5458860000000 1.0
C      1  0.4976400000000  0.5638610000000  0.5116050000000 1.0
C      1  0.5292620000000  0.5615640000000  0.5872850000000 1.0
C      1  0.5297600000000  0.4047200000000  0.5149300000000 1.0
C      1  0.5358870000000  0.5314950000000  0.3984170000000 1.0
C      1  0.5266170000000  0.5548290000000  0.4186570000000 1.0
C      1  0.5354410000000  0.4091790000000  0.4832630000000 1.0
C      1  0.5317650000000  0.5490010000000  0.6152270000000 1.0
C      1  0.5960970000000  0.5451310000000  0.4847380000000 1.0
C      1  0.5914000000000  0.4898120000000  0.5593700000000 1.0
C      1  0.5887240000000  0.4554760000000  0.4719510000000 1.0
C      1  0.5975770000000  0.5352110000000  0.5151150000000 1.0
C      1  0.5886600000000  0.4857060000000  0.4576760000000 1.0
C      1  0.5884520000000  0.4643080000000  0.5393610000000 1.0
C      1  0.5029820000000  0.4209820000000  0.4640020000000 1.0
C      1  0.4986800000000  0.5685490000000  0.4431510000000 1.0
C      1  0.5080610000000  0.5185230000000  0.5801750000000 1.0
C      1  0.4963060000000  0.4220610000000  0.5258550000000 1.0
C      1  0.5058100000000  0.5667890000000  0.5551770000000 1.0
C      1  0.4967160000000  0.5170240000000  0.4196190000000 1.0
C      1  0.5292350000000  0.4287530000000  0.5826790000000 1.0
C      1  0.5347830000000  0.4665620000000  0.3948710000000 1.0
C      1  0.5325750000000  0.6003890000000  0.5149340000000 1.0
C      1  0.5309990000000  0.4389860000000  0.4145910000000 1.0
C      1  0.5353000000000  0.4597970000000  0.5960520000000 1.0
C      1  0.5280890000000  0.6044580000000  0.4814240000000 1.0
C      1  0.5616820000000  0.4188920000000  0.5302170000000 1.0
C      1  0.5683330000000  0.5143560000000  0.4143650000000 1.0
C      1  0.5703280000000  0.5627290000000  0.5480140000000 1.0
C      1  0.5663290000000  0.4256370000000  0.4641990000000 1.0
C      1  0.5596250000000  0.5076970000000  0.5746770000000 1.0
C      1  0.5623790000000  0.5677400000000  0.4526040000000 1.0
C      1  0.5725180000000  0.5000380000000  0.5355130000000 1.0
C      1  0.5685680000000  0.4741280000000  0.4900410000000 1.0
C      1  0.5670680000000  0.5290030000000  0.4902050000000 1.0
C      1  0.5664100000000  0.5033640000000  0.4739970000000 1.0
C      1  0.5639580000000  0.4744630000000  0.5187480000000 1.0
C      1  0.5652550000000  0.5265940000000  0.5225080000000 1.0
C      1  0.4713250000000  0.4750550000000  0.5154910000000 1.0
C      1  0.4831160000000  0.5039110000000  0.4683620000000 1.0
C      1  0.4780860000000  0.5291970000000  0.5138440000000 1.0
C      1  0.4815860000000  0.4776970000000  0.4844870000000 1.0
C      1  0.4699500000000  0.5006050000000  0.5293060000000 1.0
C      1  0.4746380000000  0.5300550000000  0.4833870000000 1.0
C      1  0.5458350000000  0.4910040000000  0.6009210000000 1.0
C      1  0.5481350000000  0.4186620000000  0.4363150000000 1.0
C      1  0.5440890000000  0.5945270000000  0.4528110000000 1.0
C      1  0.5454740000000  0.4991340000000  0.3936940000000 1.0
C      1  0.5411600000000  0.4103860000000  0.5561490000000 1.0
C      1  0.5516400000000  0.5888790000000  0.5408340000000 1.0
C      1  0.4452210000000  0.5138840000000  0.5734060000000 1.0
C      1  0.4458190000000  0.4393210000000  0.4701310000000 1.0
C      1  0.4411920000000  0.5627360000000  0.4480550000000 1.0
C      1  0.4486980000000  0.5073200000000  0.4441670000000 1.0
C      1  0.4440940000000  0.4292320000000  0.5228140000000 1.0
C      1  0.4457380000000  0.5586820000000  0.5443920000000 1.0
C      1  0.4120600000000  0.5235350000000  0.4825640000000 1.0
C      1  0.4134330000000  0.5009590000000  0.5335420000000 1.0
C      1  0.4080270000000  0.4727330000000  0.4843810000000 1.0
C      1  0.4097280000000  0.5286670000000  0.5161680000000 1.0
C      1  0.4066120000000  0.4986330000000  0.4678640000000 1.0
C      1  0.4145660000000  0.4733420000000  0.5141610000000 1.0
C      1  0.5723800000000  0.5435150000000  0.4306290000000 1.0
C      1  0.5662730000000  0.4143570000000  0.4967230000000 1.0
C      1  0.5778820000000  0.5337950000000  0.5645110000000 1.0
C      1  0.5321100000000  0.5150320000000  0.5034390000000 1.0
END
