TITL C-2782235-7892-311 -0.00436857304550937 125000 -282.336387194086 0 0 51 (C1) n - 1
REM
REM in /home/nfs/bkarasulu/CARBON/AIRSS/Generating-Clusters/REBO/Higher-Symm/SD-CG/HFTN-CG
REM
REM
REM
REM
REM
REM ./C.cell (12c818d87b63d06a65506943cc24bca4)
REM
REM compiler GCC version 9.2.1 20190827 (Red Hat 9.2.1-1)
REM options -cpp -mtune=generic -march=x86-64 -g -O0 -fpre-include=/usr/include/finclude/math-vector-fortran.h
REM seed 290851255 -601292622 -212723172 -1889929841 1674772369 953524234 -916728602 -280596920 1864962315 -950469574 -1834748165 493622442 -1917454781 -1330763495 1790537212 2121692838 -270836595 238772260 1059753880 2122919883 1259091904 1420794461 1670769864 958018220 228727169 -1530408341 -716208843 -1322249958 -422287253 227803447 -1413659321 1687211148 -2000347977
REM
CELL 1.54180   50.00000   50.00000   50.00000   90.00000   90.00000   90.00000
LATT -1
SFAC C  
C      1  0.4351990000000  0.5243520000000  0.4593690000000 1.0
C      1  0.5582000000000  0.5218040000000  0.5408490000000 1.0
C      1  0.4590730000000  0.5287410000000  0.4472350000000 1.0
C      1  0.5335550000000  0.5263480000000  0.5509820000000 1.0
C      1  0.5065190000000  0.5195760000000  0.4225530000000 1.0
C      1  0.4820060000000  0.5161820000000  0.5660000000000 1.0
C      1  0.4600570000000  0.4589320000000  0.4794840000000 1.0
C      1  0.5459740000000  0.4460590000000  0.5221220000000 1.0
C      1  0.5328120000000  0.4756040000000  0.5153530000000 1.0
C      1  0.4826880000000  0.4809140000000  0.4894800000000 1.0
C      1  0.5162110000000  0.5446580000000  0.5387920000000 1.0
C      1  0.4762970000000  0.5490440000000  0.4565940000000 1.0
C      1  0.5036880000000  0.5465330000000  0.4431190000000 1.0
C      1  0.4910330000000  0.5444610000000  0.5502650000000 1.0
C      1  0.4608520000000  0.5290690000000  0.5046460000000 1.0
C      1  0.5402770000000  0.5283930000000  0.4913010000000 1.0
C      1  0.4679670000000  0.4499120000000  0.5099670000000 1.0
C      1  0.5371960000000  0.4433830000000  0.4900970000000 1.0
C      1  0.4994340000000  0.5164950000000  0.4583260000000 1.0
C      1  0.4985850000000  0.5073890000000  0.5375130000000 1.0
C      1  0.4983970000000  0.4651490000000  0.5559380000000 1.0
C      1  0.5043110000000  0.4689820000000  0.4416890000000 1.0
C      1  0.5016120000000  0.5067050000000  0.4847230000000 1.0
C      1  0.5184450000000  0.5040660000000  0.5141510000000 1.0
C      1  0.5733390000000  0.4766050000000  0.4790800000000 1.0
C      1  0.4309200000000  0.4809960000000  0.5235350000000 1.0
C      1  0.5261360000000  0.4886170000000  0.5882080000000 1.0
C      1  0.4657050000000  0.4840840000000  0.4233340000000 1.0
C      1  0.5142390000000  0.4530910000000  0.5327310000000 1.0
C      1  0.4916360000000  0.4574260000000  0.4667770000000 1.0
C      1  0.5397960000000  0.4958750000000  0.4890420000000 1.0
C      1  0.4791690000000  0.5075160000000  0.5103740000000 1.0
C      1  0.5245070000000  0.5520140000000  0.5104030000000 1.0
C      1  0.4730850000000  0.5552040000000  0.4862620000000 1.0
C      1  0.4840500000000  0.4827840000000  0.5654780000000 1.0
C      1  0.5114570000000  0.4880020000000  0.4277230000000 1.0
C      1  0.4324630000000  0.4725270000000  0.4774660000000 1.0
C      1  0.5707550000000  0.4678470000000  0.5251210000000 1.0
C      1  0.5671190000000  0.5155060000000  0.5106730000000 1.0
C      1  0.4316150000000  0.5198710000000  0.4909420000000 1.0
C      1  0.4258860000000  0.4909560000000  0.4972540000000 1.0
C      1  0.5750940000000  0.4871480000000  0.5055380000000 1.0
C      1  0.4767200000000  0.5067230000000  0.4339760000000 1.0
C      1  0.5162730000000  0.5062980000000  0.5668650000000 1.0
C      1  0.5092360000000  0.4415620000000  0.4868430000000 1.0
C      1  0.4949610000000  0.4419910000000  0.5117210000000 1.0
C      1  0.5559720000000  0.4559210000000  0.4728500000000 1.0
C      1  0.4498310000000  0.4613080000000  0.5286900000000 1.0
C      1  0.5584660000000  0.5486210000000  0.5106510000000 1.0
C      1  0.4399440000000  0.5530040000000  0.4941350000000 1.0
C      1  0.5001860000000  0.5653420000000  0.4970370000000 1.0
END
