TITL C-2782231-7322-154 -0.00726541953756443 125000 -756.30743269363 0 0 133 (C1) n - 1
REM
REM in /home/nfs/bkarasulu/CARBON/AIRSS/Generating-Clusters/REBO/Higher-Symm/SD-CG/HFTN-CG
REM
REM
REM
REM
REM
REM ./C.cell (12c818d87b63d06a65506943cc24bca4)
REM
REM compiler GCC version 9.2.1 20190827 (Red Hat 9.2.1-1)
REM options -cpp -mtune=generic -march=x86-64 -g -O0 -fpre-include=/usr/include/finclude/math-vector-fortran.h
REM seed 795362861 -1867229459 564195649 2116520607 -135604217 -1491280020 1184467382 2010984430 -2131791443 2048222342 -1902733519 2141736060 -566071492 -1283616987 -1366679837 505065355 -1562501003 1850070935 1945999843 -921406574 -1597340505 -476027588 -1643504931 -432566429 305730889 317220573 1605401185 1934428870 -1386794172 1407080717 -1672632758 -1655006946 1723235916
REM
CELL 1.54180   50.00000   50.00000   50.00000   90.00000   90.00000   90.00000
LATT -1
SFAC C  
C      1  0.4171310000000  0.4818890000000  0.5074860000000 1.0
C      1  0.5836960000000  0.4804330000000  0.4933200000000 1.0
C      1  0.5481670000000  0.5483750000000  0.4203750000000 1.0
C      1  0.4567170000000  0.5513070000000  0.5834790000000 1.0
C      1  0.4297010000000  0.4515320000000  0.4721950000000 1.0
C      1  0.5707360000000  0.4462690000000  0.5389560000000 1.0
C      1  0.4877680000000  0.4927760000000  0.5107600000000 1.0
C      1  0.5231570000000  0.5005590000000  0.4938950000000 1.0
C      1  0.4486830000000  0.4367890000000  0.5040480000000 1.0
C      1  0.5405700000000  0.4440440000000  0.4941610000000 1.0
C      1  0.4547830000000  0.4727200000000  0.4812670000000 1.0
C      1  0.5480820000000  0.4675900000000  0.5251290000000 1.0
C      1  0.5512430000000  0.4197150000000  0.5478400000000 1.0
C      1  0.4468770000000  0.4296020000000  0.4520150000000 1.0
C      1  0.4481720000000  0.4909650000000  0.5071410000000 1.0
C      1  0.5539930000000  0.4753040000000  0.4960590000000 1.0
C      1  0.5197570000000  0.5342390000000  0.4328780000000 1.0
C      1  0.4785680000000  0.5376500000000  0.5609440000000 1.0
C      1  0.4970410000000  0.5446670000000  0.4131340000000 1.0
C      1  0.4977860000000  0.5535640000000  0.5804790000000 1.0
C      1  0.4771620000000  0.4411060000000  0.5688860000000 1.0
C      1  0.5247130000000  0.4444980000000  0.4270620000000 1.0
C      1  0.4447730000000  0.5212130000000  0.5728940000000 1.0
C      1  0.5563740000000  0.5193460000000  0.4319860000000 1.0
C      1  0.4997560000000  0.4378390000000  0.5299830000000 1.0
C      1  0.4969260000000  0.4413700000000  0.4670230000000 1.0
C      1  0.5807280000000  0.5699840000000  0.5200060000000 1.0
C      1  0.4285320000000  0.5650870000000  0.4828500000000 1.0
C      1  0.4181060000000  0.4503220000000  0.5085930000000 1.0
C      1  0.5984720000000  0.4524060000000  0.4827140000000 1.0
C      1  0.4592310000000  0.5575900000000  0.4353360000000 1.0
C      1  0.5396420000000  0.5480930000000  0.5636760000000 1.0
C      1  0.5313140000000  0.5350950000000  0.6169950000000 1.0
C      1  0.4495180000000  0.5249600000000  0.4150080000000 1.0
C      1  0.5230580000000  0.4637850000000  0.5661310000000 1.0
C      1  0.4798090000000  0.4682620000000  0.4330200000000 1.0
C      1  0.5623320000000  0.5818770000000  0.4970570000000 1.0
C      1  0.4413890000000  0.5798400000000  0.5050780000000 1.0
C      1  0.4964440000000  0.5625240000000  0.4693980000000 1.0
C      1  0.5027710000000  0.5505270000000  0.5190330000000 1.0
C      1  0.5349870000000  0.5320720000000  0.4922840000000 1.0
C      1  0.4579900000000  0.5204570000000  0.5018310000000 1.0
C      1  0.5625560000000  0.5588730000000  0.4719900000000 1.0
C      1  0.4328260000000  0.5586070000000  0.5310270000000 1.0
C      1  0.5382660000000  0.5088630000000  0.5568350000000 1.0
C      1  0.4620840000000  0.5037550000000  0.4379080000000 1.0
C      1  0.5847310000000  0.5075550000000  0.4738960000000 1.0
C      1  0.4178920000000  0.5084620000000  0.5287170000000 1.0
C      1  0.4838940000000  0.4858030000000  0.4811730000000 1.0
C      1  0.5163330000000  0.4886470000000  0.5244270000000 1.0
C      1  0.5586910000000  0.4838210000000  0.5969700000000 1.0
C      1  0.4335990000000  0.4683800000000  0.4073980000000 1.0
C      1  0.5343780000000  0.5240420000000  0.5259730000000 1.0
C      1  0.4612480000000  0.5156470000000  0.4680850000000 1.0
C      1  0.5311150000000  0.5914130000000  0.5047630000000 1.0
C      1  0.4679720000000  0.5901980000000  0.4978360000000 1.0
C      1  0.5820450000000  0.4832340000000  0.4508130000000 1.0
C      1  0.4201680000000  0.4842270000000  0.5504130000000 1.0
C      1  0.5389220000000  0.4300350000000  0.4471600000000 1.0
C      1  0.4627370000000  0.4282480000000  0.5481020000000 1.0
C      1  0.5389460000000  0.5766680000000  0.4586180000000 1.0
C      1  0.4585290000000  0.5736330000000  0.5405990000000 1.0
C      1  0.4356810000000  0.4189500000000  0.4813980000000 1.0
C      1  0.5551600000000  0.4278100000000  0.5145310000000 1.0
C      1  0.4671580000000  0.4529680000000  0.4587730000000 1.0
C      1  0.5309160000000  0.4458130000000  0.5406140000000 1.0
C      1  0.5686890000000  0.5298890000000  0.4590160000000 1.0
C      1  0.4300800000000  0.5313460000000  0.5459410000000 1.0
C      1  0.5885750000000  0.5177890000000  0.5062640000000 1.0
C      1  0.4127680000000  0.5200190000000  0.4969540000000 1.0
C      1  0.5195970000000  0.5593860000000  0.5477710000000 1.0
C      1  0.4832990000000  0.5684730000000  0.4421740000000 1.0
C      1  0.4820500000000  0.4313160000000  0.5063450000000 1.0
C      1  0.5104640000000  0.4333530000000  0.4918660000000 1.0
C      1  0.4734960000000  0.5287690000000  0.5302100000000 1.0
C      1  0.5139910000000  0.5356280000000  0.4657630000000 1.0
C      1  0.5087970000000  0.5142200000000  0.5720940000000 1.0
C      1  0.4951410000000  0.5030390000000  0.4291600000000 1.0
C      1  0.5278800000000  0.4064070000000  0.4907120000000 1.0
C      1  0.4674250000000  0.4019820000000  0.5001110000000 1.0
C      1  0.4477990000000  0.5459130000000  0.4715720000000 1.0
C      1  0.5561760000000  0.5506240000000  0.5275450000000 1.0
C      1  0.5765540000000  0.4785930000000  0.5480000000000 1.0
C      1  0.4248810000000  0.4809350000000  0.4563060000000 1.0
C      1  0.5820810000000  0.5474780000000  0.4973930000000 1.0
C      1  0.4147490000000  0.5500730000000  0.5045480000000 1.0
C      1  0.5823780000000  0.5114170000000  0.5394410000000 1.0
C      1  0.4215980000000  0.5141930000000  0.4640890000000 1.0
C      1  0.5349380000000  0.4018050000000  0.5236670000000 1.0
C      1  0.4615900000000  0.4023330000000  0.4666060000000 1.0
C      1  0.4467360000000  0.4766970000000  0.4336510000000 1.0
C      1  0.5490830000000  0.4822060000000  0.5677310000000 1.0
C      1  0.5147810000000  0.5349960000000  0.5954680000000 1.0
C      1  0.4788760000000  0.5235680000000  0.4078400000000 1.0
C      1  0.5126140000000  0.4115550000000  0.5474350000000 1.0
C      1  0.4844110000000  0.4181500000000  0.4471820000000 1.0
C      1  0.4645890000000  0.4048310000000  0.5305450000000 1.0
C      1  0.5358050000000  0.4056660000000  0.4633830000000 1.0
C      1  0.5159200000000  0.5878380000000  0.4774420000000 1.0
C      1  0.4811220000000  0.5762710000000  0.5211030000000 1.0
C      1  0.4497910000000  0.4504170000000  0.5326070000000 1.0
C      1  0.5512190000000  0.4507890000000  0.4647810000000 1.0
C      1  0.4938000000000  0.5110170000000  0.4608340000000 1.0
C      1  0.5037900000000  0.5160930000000  0.5390290000000 1.0
C      1  0.4964180000000  0.4407440000000  0.4272380000000 1.0
C      1  0.5051710000000  0.4350180000000  0.5692380000000 1.0
C      1  0.4039220000000  0.4912800000000  0.4806770000000 1.0
C      1  0.5957080000000  0.4876590000000  0.5212240000000 1.0
C      1  0.5272160000000  0.5017990000000  0.4253710000000 1.0
C      1  0.4757610000000  0.5056160000000  0.5719420000000 1.0
C      1  0.4688220000000  0.4724830000000  0.5758580000000 1.0
C      1  0.5386890000000  0.4714810000000  0.4154880000000 1.0
C      1  0.5110450000000  0.5875600000000  0.5313380000000 1.0
C      1  0.4853730000000  0.5996030000000  0.4792470000000 1.0
C      1  0.4672440000000  0.4759010000000  0.5305190000000 1.0
C      1  0.5305260000000  0.4772940000000  0.4715100000000 1.0
C      1  0.4674450000000  0.5754480000000  0.5673820000000 1.0
C      1  0.5332780000000  0.5721260000000  0.4314160000000 1.0
C      1  0.5420280000000  0.4691120000000  0.3873820000000 1.0
C      1  0.4960550000000  0.4763660000000  0.5900410000000 1.0
C      1  0.4397590000000  0.4894390000000  0.5708990000000 1.0
C      1  0.5641740000000  0.4889990000000  0.4297060000000 1.0
C      1  0.4998970000000  0.5823300000000  0.5635180000000 1.0
C      1  0.5055470000000  0.5727840000000  0.4222440000000 1.0
C      1  0.4358970000000  0.5339940000000  0.4433680000000 1.0
C      1  0.5632220000000  0.5303640000000  0.5524940000000 1.0
C      1  0.4203370000000  0.4586300000000  0.5398220000000 1.0
C      1  0.5798350000000  0.4574560000000  0.4609340000000 1.0
C      1  0.5315400000000  0.5600930000000  0.5097290000000 1.0
C      1  0.4773680000000  0.5458380000000  0.4880260000000 1.0
C      1  0.4981920000000  0.4683250000000  0.5424550000000 1.0
C      1  0.5022820000000  0.4719860000000  0.4587670000000 1.0
C      1  0.4975330000000  0.5226030000000  0.5002690000000 1.0
END
