TITL C-2782231-7322-277 0.000210407670099553 125000 -507.634183693246 0 0 86 (C1) n - 1
REM
REM in /home/nfs/bkarasulu/CARBON/AIRSS/Generating-Clusters/REBO/Higher-Symm/SD-CG/HFTN-CG
REM
REM
REM
REM
REM
REM ./C.cell (12c818d87b63d06a65506943cc24bca4)
REM
REM compiler GCC version 9.2.1 20190827 (Red Hat 9.2.1-1)
REM options -cpp -mtune=generic -march=x86-64 -g -O0 -fpre-include=/usr/include/finclude/math-vector-fortran.h
REM seed 255973936 1152780402 2022101172 1025163731 -754582091 -852240940 1062247345 -427867323 -1127426391 -1114605025 -594312860 1516572796 -1744612701 -1298830907 1655942315 -1301633442 753487873 25051050 1386715291 -1311429503 1814564993 794571445 -1772834441 -532313193 -68173779 1666576951 -260891221 -505243534 1734670162 995201739 -16769375 -1327372952 -2129573420
REM
CELL 1.54180   50.00000   50.00000   50.00000   90.00000   90.00000   90.00000
LATT -1
SFAC C  
C      1  0.4825520000000  0.5345030000000  0.5621980000000 1.0
C      1  0.4825270000000  0.4653450000000  0.4380460000000 1.0
C      1  0.5232580000000  0.5507570000000  0.4479520000000 1.0
C      1  0.5256340000000  0.4504160000000  0.5519000000000 1.0
C      1  0.5718400000000  0.5559650000000  0.4746100000000 1.0
C      1  0.5730170000000  0.4442310000000  0.5254160000000 1.0
C      1  0.4266980000000  0.5597140000000  0.5034820000000 1.0
C      1  0.4288890000000  0.4405920000000  0.4973230000000 1.0
C      1  0.4404090000000  0.5218800000000  0.4482200000000 1.0
C      1  0.4412760000000  0.4776590000000  0.5493180000000 1.0
C      1  0.5559820000000  0.5102390000000  0.5524010000000 1.0
C      1  0.5587640000000  0.4880540000000  0.4459370000000 1.0
C      1  0.4638030000000  0.4404040000000  0.5168010000000 1.0
C      1  0.4591920000000  0.5554700000000  0.4807190000000 1.0
C      1  0.5469030000000  0.4524000000000  0.4830360000000 1.0
C      1  0.5473500000000  0.5482250000000  0.5165170000000 1.0
C      1  0.5245760000000  0.5748210000000  0.4796970000000 1.0
C      1  0.5262600000000  0.4253270000000  0.5208300000000 1.0
C      1  0.4770110000000  0.5787630000000  0.5201650000000 1.0
C      1  0.4749680000000  0.4243440000000  0.4803090000000 1.0
C      1  0.5521980000000  0.4326740000000  0.5395270000000 1.0
C      1  0.5506730000000  0.5671250000000  0.4600930000000 1.0
C      1  0.4453050000000  0.4203550000000  0.4875790000000 1.0
C      1  0.4435730000000  0.5791860000000  0.5132450000000 1.0
C      1  0.5495480000000  0.4723290000000  0.5414980000000 1.0
C      1  0.5489020000000  0.5272640000000  0.4590220000000 1.0
C      1  0.4555520000000  0.4704020000000  0.4582340000000 1.0
C      1  0.4566730000000  0.5301850000000  0.5404180000000 1.0
C      1  0.5036470000000  0.4353730000000  0.5668800000000 1.0
C      1  0.5023710000000  0.5665950000000  0.4336740000000 1.0
C      1  0.5011750000000  0.4428320000000  0.4313320000000 1.0
C      1  0.5010780000000  0.5571680000000  0.5691600000000 1.0
C      1  0.4617510000000  0.5454480000000  0.4529400000000 1.0
C      1  0.4630980000000  0.4546220000000  0.5436540000000 1.0
C      1  0.5392000000000  0.5377230000000  0.5445430000000 1.0
C      1  0.5382290000000  0.4646270000000  0.4557200000000 1.0
C      1  0.4268000000000  0.4683360000000  0.5025250000000 1.0
C      1  0.4256810000000  0.5321300000000  0.4966080000000 1.0
C      1  0.5747670000000  0.4654540000000  0.5082960000000 1.0
C      1  0.5740600000000  0.5338420000000  0.4908600000000 1.0
C      1  0.5072080000000  0.5811550000000  0.5267910000000 1.0
C      1  0.5026700000000  0.4209940000000  0.4777740000000 1.0
C      1  0.4969500000000  0.5859710000000  0.4736270000000 1.0
C      1  0.5011710000000  0.4101590000000  0.5286350000000 1.0
C      1  0.5134410000000  0.4930640000000  0.5789230000000 1.0
C      1  0.5156240000000  0.5047550000000  0.4226610000000 1.0
C      1  0.4899810000000  0.4946970000000  0.4222630000000 1.0
C      1  0.4887700000000  0.5046510000000  0.5775850000000 1.0
C      1  0.5339650000000  0.5423960000000  0.4860990000000 1.0
C      1  0.5352370000000  0.4578120000000  0.5138690000000 1.0
C      1  0.4670650000000  0.5470490000000  0.5125380000000 1.0
C      1  0.4649570000000  0.4550340000000  0.4873460000000 1.0
C      1  0.5288780000000  0.5732100000000  0.5109060000000 1.0
C      1  0.5264970000000  0.4279200000000  0.4892640000000 1.0
C      1  0.4747090000000  0.5794370000000  0.4881360000000 1.0
C      1  0.4762280000000  0.4160380000000  0.5193840000000 1.0
C      1  0.4408490000000  0.4864580000000  0.4819580000000 1.0
C      1  0.4391950000000  0.5140880000000  0.5176110000000 1.0
C      1  0.5573450000000  0.4913970000000  0.5175470000000 1.0
C      1  0.5578390000000  0.5067960000000  0.4810460000000 1.0
C      1  0.5104470000000  0.5219890000000  0.4936220000000 1.0
C      1  0.5090670000000  0.4762540000000  0.5054290000000 1.0
C      1  0.4859300000000  0.5217350000000  0.5109580000000 1.0
C      1  0.4835940000000  0.4796580000000  0.4892410000000 1.0
C      1  0.4773190000000  0.5650800000000  0.4347450000000 1.0
C      1  0.4787530000000  0.4373740000000  0.5647590000000 1.0
C      1  0.5252140000000  0.5575550000000  0.5626600000000 1.0
C      1  0.5254720000000  0.4443370000000  0.4370670000000 1.0
C      1  0.5221750000000  0.4919770000000  0.4605990000000 1.0
C      1  0.5236730000000  0.5084760000000  0.5409940000000 1.0
C      1  0.4805190000000  0.4817280000000  0.5459330000000 1.0
C      1  0.4797240000000  0.5190640000000  0.4521530000000 1.0
C      1  0.5694580000000  0.4773040000000  0.4767890000000 1.0
C      1  0.5679090000000  0.5215750000000  0.5221290000000 1.0
C      1  0.4275970000000  0.4859100000000  0.5255160000000 1.0
C      1  0.4281870000000  0.5144730000000  0.4734350000000 1.0
C      1  0.4925960000000  0.5129080000000  0.5388450000000 1.0
C      1  0.4909860000000  0.4883000000000  0.4614740000000 1.0
C      1  0.5093790000000  0.5236390000000  0.4608590000000 1.0
C      1  0.5103230000000  0.4773400000000  0.5380020000000 1.0
C      1  0.4591150000000  0.5028140000000  0.5606180000000 1.0
C      1  0.4592440000000  0.4970890000000  0.4373150000000 1.0
C      1  0.5427330000000  0.5103740000000  0.4320730000000 1.0
C      1  0.5390130000000  0.4868550000000  0.5704570000000 1.0
C      1  0.5314830000000  0.4985030000000  0.4991630000000 1.0
C      1  0.4646560000000  0.5018320000000  0.5005150000000 1.0
END
