TITL C-2782226-7400-901 -0.000335376209035298 125000 -93.7223371190552 0 0 19 (C1) n - 1
REM
REM in /home/nfs/bkarasulu/CARBON/AIRSS/Generating-Clusters/REBO/Higher-Symm/SD-CG/HFTN-CG
REM
REM
REM
REM
REM
REM ./C.cell (12c818d87b63d06a65506943cc24bca4)
REM
REM compiler GCC version 9.2.1 20190827 (Red Hat 9.2.1-1)
REM options -cpp -mtune=generic -march=x86-64 -g -O0 -fpre-include=/usr/include/finclude/math-vector-fortran.h
REM seed 511057436 2141402554 529387738 668010988 -380849588 -262268876 144621039 1620329621 -603517339 -723952705 -40548113 912756035 -240774628 -505728406 1568565231 -902195221 84342729 -374868668 -1326011362 -1386998564 301442936 -1376260151 1535630219 1867538738 216785942 2035328761 -1636876844 -189344118 -164154618 539746105 1313437499 -1029422368 -1044932162
REM
CELL 1.54180   50.00000   50.00000   50.00000   90.00000   90.00000   90.00000
LATT -1
SFAC C  
C      1  0.4697250000000  0.5296920000000  0.5096990000000 1.0
C      1  0.5304870000000  0.5069960000000  0.4690630000000 1.0
C      1  0.5048060000000  0.4698180000000  0.5317830000000 1.0
C      1  0.5290950000000  0.4703830000000  0.5099200000000 1.0
C      1  0.4679690000000  0.4927670000000  0.4686530000000 1.0
C      1  0.5265580000000  0.5030930000000  0.5294930000000 1.0
C      1  0.4691650000000  0.5056990000000  0.5315610000000 1.0
C      1  0.5028520000000  0.5268260000000  0.5295820000000 1.0
C      1  0.5062320000000  0.5311290000000  0.4692180000000 1.0
C      1  0.4923150000000  0.4685820000000  0.4687400000000 1.0
C      1  0.4676210000000  0.4681550000000  0.4924280000000 1.0
C      1  0.5291700000000  0.5297860000000  0.4947250000000 1.0
C      1  0.5413070000000  0.4981800000000  0.4993370000000 1.0
C      1  0.4935360000000  0.4942400000000  0.5435670000000 1.0
C      1  0.4975130000000  0.5416750000000  0.4996510000000 1.0
C      1  0.4586570000000  0.4994610000000  0.5002620000000 1.0
C      1  0.4992730000000  0.4999150000000  0.4590250000000 1.0
C      1  0.4989400000000  0.4593370000000  0.5003900000000 1.0
C      1  0.5021470000000  0.5025050000000  0.5056290000000 1.0
END
