TITL C-2782232-2968-785 -0.000259221601143639 125000 -172.141043764162 0 0 31 (C1) n - 1
REM
REM in /home/nfs/bkarasulu/CARBON/AIRSS/Generating-Clusters/REBO/Higher-Symm/SD-CG/HFTN-CG
REM
REM
REM
REM
REM
REM ./C.cell (12c818d87b63d06a65506943cc24bca4)
REM
REM compiler GCC version 9.2.1 20190827 (Red Hat 9.2.1-1)
REM options -cpp -mtune=generic -march=x86-64 -g -O0 -fpre-include=/usr/include/finclude/math-vector-fortran.h
REM seed 1365778655 1483220711 16839233 941016249 906539675 -854073823 -563704926 244606064 -1924013777 2065840769 -1774356707 -644875866 -2095770737 1957490310 862924413 -1788078574 1527271697 -1589175016 -88515223 1753129018 -559930912 2108792102 -894827949 -65308598 261940657 89733423 -396995739 348814914 -933571479 723705546 2106258023 -615715635 -209468845
REM
CELL 1.54180   50.00000   50.00000   50.00000   90.00000   90.00000   90.00000
LATT -1
SFAC C  
C      1  0.5075150000000  0.4853020000000  0.5373050000000 1.0
C      1  0.5086800000000  0.4839480000000  0.4621280000000 1.0
C      1  0.5606780000000  0.4734690000000  0.4699590000000 1.0
C      1  0.5592610000000  0.4752510000000  0.5310220000000 1.0
C      1  0.4629590000000  0.5468870000000  0.5225920000000 1.0
C      1  0.4679230000000  0.5486580000000  0.4742580000000 1.0
C      1  0.4368720000000  0.5517550000000  0.5100430000000 1.0
C      1  0.4397540000000  0.5528840000000  0.4817160000000 1.0
C      1  0.5548940000000  0.5043500000000  0.4824860000000 1.0
C      1  0.5556270000000  0.5048870000000  0.5157030000000 1.0
C      1  0.5345700000000  0.4931470000000  0.5400020000000 1.0
C      1  0.5362310000000  0.4897080000000  0.4583940000000 1.0
C      1  0.5039700000000  0.4598240000000  0.5246440000000 1.0
C      1  0.5033510000000  0.4598190000000  0.4766290000000 1.0
C      1  0.4452930000000  0.4840020000000  0.4827870000000 1.0
C      1  0.4529450000000  0.4837020000000  0.5289010000000 1.0
C      1  0.5357330000000  0.5311710000000  0.5235370000000 1.0
C      1  0.5388750000000  0.5304980000000  0.4905250000000 1.0
C      1  0.4720550000000  0.5267500000000  0.5412030000000 1.0
C      1  0.4792300000000  0.5293330000000  0.4559240000000 1.0
C      1  0.5547300000000  0.4518320000000  0.5168020000000 1.0
C      1  0.5555120000000  0.4509700000000  0.4854280000000 1.0
C      1  0.4917110000000  0.5063160000000  0.4679560000000 1.0
C      1  0.4886450000000  0.5058810000000  0.5301920000000 1.0
C      1  0.5090050000000  0.5362110000000  0.5039310000000 1.0
C      1  0.4884370000000  0.5109880000000  0.4979870000000 1.0
C      1  0.5250590000000  0.4490090000000  0.5004060000000 1.0
C      1  0.4584950000000  0.4639900000000  0.5040820000000 1.0
C      1  0.4580860000000  0.5037480000000  0.5045980000000 1.0
C      1  0.4819470000000  0.5503450000000  0.5002860000000 1.0
C      1  0.4856730000000  0.4557630000000  0.5008880000000 1.0
END
