TITL C-2782235-7892-289 7.53277649199202 125000 -708.759517037388 0 0 122 (C1) n - 1
REM
REM in /home/nfs/bkarasulu/CARBON/AIRSS/Generating-Clusters/REBO/Higher-Symm/SD-CG/HFTN-CG
REM
REM
REM
REM
REM
REM ./C.cell (12c818d87b63d06a65506943cc24bca4)
REM
REM compiler GCC version 9.2.1 20190827 (Red Hat 9.2.1-1)
REM options -cpp -mtune=generic -march=x86-64 -g -O0 -fpre-include=/usr/include/finclude/math-vector-fortran.h
REM seed 26247650 458337563 40398381 1494769907 -2060798269 -333547959 -1217610291 -1118981383 1873714455 1348894100 -1523564938 845477575 102252889 -1695859068 -1336614644 -300322029 1502685645 569116056 1420151599 -968984630 -1648039662 -956054901 -199714816 -462312607 974822388 1178571732 1057564796 -1186974509 1820475988 1273830063 -1680539218 971089151 1221010705
REM
CELL 1.54180   50.00000   50.00000   50.00000   90.00000   90.00000   90.00000
LATT -1
SFAC C  
C      1  0.4732160000000  0.4824490000000  0.4042670000000 1.0
C      1  0.5137530000000  0.5681760000000  0.4903980000000 1.0
C      1  0.5919040000000  0.4708700000000  0.5001280000000 1.0
C      1  0.4765520000000  0.5632170000000  0.5447810000000 1.0
C      1  0.4344920000000  0.5165240000000  0.4357080000000 1.0
C      1  0.5221680000000  0.5981200000000  0.4891150000000 1.0
C      1  0.5656690000000  0.5311010000000  0.4594540000000 1.0
C      1  0.6047110000000  0.4807470000000  0.4772460000000 1.0
C      1  0.4098810000000  0.4844260000000  0.4749680000000 1.0
C      1  0.4392460000000  0.4660860000000  0.4364160000000 1.0
C      1  0.4928080000000  0.5387120000000  0.3950170000000 1.0
C      1  0.5661940000000  0.4495310000000  0.4951720000000 1.0
C      1  0.5362190000000  0.5491900000000  0.4812780000000 1.0
C      1  0.5808990000000  0.5138950000000  0.4425580000000 1.0
C      1  0.4187020000000  0.4380230000000  0.4989430000000 1.0
C      1  0.4888540000000  0.4330520000000  0.4637530000000 1.0
C      1  0.4906540000000  0.5001940000000  0.4834770000000 1.0
C      1  0.5371880000000  0.5060010000000  0.4710830000000 1.0
C      1  0.5170490000000  0.4522400000000  0.5924280000000 1.0
C      1  0.5222130000000  0.5130500000000  0.5866790000000 1.0
C      1  0.5164240000000  0.4651130000000  0.4302630000000 1.0
C      1  0.5037610000000  0.5956520000000  0.5174340000000 1.0
C      1  0.4174430000000  0.5485410000000  0.4617900000000 1.0
C      1  0.4846510000000  0.4528960000000  0.5888210000000 1.0
C      1  0.5855850000000  0.4871890000000  0.5228120000000 1.0
C      1  0.4156550000000  0.4645360000000  0.5118230000000 1.0
C      1  0.4879480000000  0.4139140000000  0.4366240000000 1.0
C      1  0.5581450000000  0.5774980000000  0.4635520000000 1.0
C      1  0.5481780000000  0.4845080000000  0.5542720000000 1.0
C      1  0.5783920000000  0.5525410000000  0.5170950000000 1.0
C      1  0.4814340000000  0.4118980000000  0.5156670000000 1.0
C      1  0.5632420000000  0.5689620000000  0.5349180000000 1.0
C      1  0.4771270000000  0.4406630000000  0.4266940000000 1.0
C      1  0.5148810000000  0.4516960000000  0.4614470000000 1.0
C      1  0.4690130000000  0.4480180000000  0.5260530000000 1.0
C      1  0.5199050000000  0.5693320000000  0.5585490000000 1.0
C      1  0.4341330000000  0.5330690000000  0.5000880000000 1.0
C      1  0.4254520000000  0.4654340000000  0.5426820000000 1.0
C      1  0.4153240000000  0.4503850000000  0.5691350000000 1.0
C      1  0.5081430000000  0.5292320000000  0.4851720000000 1.0
C      1  0.4620010000000  0.5721800000000  0.4961660000000 1.0
C      1  0.5110390000000  0.4236770000000  0.5272820000000 1.0
C      1  0.5695760000000  0.4705050000000  0.5390310000000 1.0
C      1  0.4344630000000  0.4904890000000  0.4532500000000 1.0
C      1  0.5651340000000  0.5244490000000  0.4928290000000 1.0
C      1  0.4850660000000  0.5214750000000  0.4367880000000 1.0
C      1  0.5343320000000  0.5159870000000  0.5031970000000 1.0
C      1  0.5467710000000  0.4889940000000  0.4207500000000 1.0
C      1  0.4696760000000  0.4247160000000  0.5448980000000 1.0
C      1  0.4636020000000  0.4348370000000  0.5717330000000 1.0
C      1  0.4944140000000  0.4847890000000  0.5919770000000 1.0
C      1  0.4964340000000  0.5324370000000  0.5275440000000 1.0
C      1  0.5046510000000  0.4775100000000  0.5252440000000 1.0
C      1  0.4571990000000  0.4987970000000  0.4773230000000 1.0
C      1  0.4513580000000  0.5294650000000  0.4168930000000 1.0
C      1  0.4435710000000  0.4335470000000  0.4813430000000 1.0
C      1  0.4687210000000  0.5037840000000  0.5872830000000 1.0
C      1  0.4469080000000  0.4882710000000  0.5761740000000 1.0
C      1  0.4923010000000  0.4938740000000  0.4498900000000 1.0
C      1  0.4846660000000  0.5535080000000  0.4803610000000 1.0
C      1  0.5108700000000  0.4017440000000  0.4523230000000 1.0
C      1  0.4782300000000  0.4642920000000  0.4517570000000 1.0
C      1  0.4405070000000  0.5588390000000  0.5072180000000 1.0
C      1  0.5468440000000  0.4432720000000  0.4696600000000 1.0
C      1  0.4913650000000  0.5921850000000  0.4645400000000 1.0
C      1  0.5087690000000  0.5775210000000  0.4427600000000 1.0
C      1  0.4788500000000  0.5202830000000  0.5522950000000 1.0
C      1  0.5477910000000  0.4620560000000  0.4415480000000 1.0
C      1  0.4319670000000  0.5029850000000  0.5545410000000 1.0
C      1  0.4926910000000  0.5278830000000  0.5826570000000 1.0
C      1  0.4922760000000  0.5631690000000  0.4170480000000 1.0
C      1  0.5044250000000  0.4502150000000  0.5443850000000 1.0
C      1  0.5605940000000  0.4461880000000  0.5270290000000 1.0
C      1  0.5118460000000  0.4282620000000  0.4959550000000 1.0
C      1  0.5554320000000  0.5162790000000  0.5774340000000 1.0
C      1  0.5399070000000  0.4328230000000  0.5404780000000 1.0
C      1  0.4468220000000  0.4727000000000  0.4097780000000 1.0
C      1  0.5229500000000  0.5939300000000  0.5422120000000 1.0
C      1  0.4952160000000  0.5573140000000  0.5657870000000 1.0
C      1  0.4373370000000  0.4758730000000  0.4902590000000 1.0
C      1  0.4638610000000  0.5541900000000  0.4279560000000 1.0
C      1  0.4493740000000  0.5269220000000  0.5507800000000 1.0
C      1  0.4582870000000  0.4975060000000  0.5250250000000 1.0
C      1  0.5251740000000  0.4827650000000  0.6025430000000 1.0
C      1  0.5521220000000  0.4866420000000  0.5863830000000 1.0
C      1  0.4552100000000  0.4716900000000  0.5404730000000 1.0
C      1  0.4940570000000  0.5629880000000  0.5178500000000 1.0
C      1  0.5279130000000  0.4433080000000  0.5673640000000 1.0
C      1  0.5583630000000  0.4811890000000  0.4651940000000 1.0
C      1  0.5868020000000  0.4904530000000  0.4583660000000 1.0
C      1  0.4814830000000  0.4678480000000  0.5582900000000 1.0
C      1  0.5196240000000  0.4112020000000  0.4767580000000 1.0
C      1  0.4401440000000  0.4428490000000  0.4504420000000 1.0
C      1  0.5413440000000  0.5508010000000  0.5468310000000 1.0
C      1  0.4436300000000  0.4584970000000  0.5775180000000 1.0
C      1  0.4911060000000  0.4547040000000  0.5025400000000 1.0
C      1  0.4917470000000  0.4637300000000  0.4141850000000 1.0
C      1  0.4864300000000  0.5027270000000  0.5170240000000 1.0
C      1  0.5238420000000  0.4938640000000  0.4448860000000 1.0
C      1  0.5096660000000  0.5436660000000  0.4385440000000 1.0
C      1  0.5267720000000  0.5260320000000  0.5325680000000 1.0
C      1  0.4097330000000  0.4920920000000  0.5310800000000 1.0
C      1  0.4403620000000  0.5271880000000  0.4679660000000 1.0
C      1  0.5350960000000  0.4832680000000  0.5228060000000 1.0
C      1  0.5330990000000  0.5339120000000  0.4523800000000 1.0
C      1  0.5675180000000  0.5581820000000  0.4876010000000 1.0
C      1  0.4763490000000  0.5123070000000  0.4057560000000 1.0
C      1  0.4679400000000  0.5421740000000  0.4577320000000 1.0
C      1  0.5616970000000  0.5269920000000  0.5519670000000 1.0
C      1  0.4498910000000  0.5540690000000  0.5457980000000 1.0
C      1  0.5127960000000  0.4741470000000  0.4841070000000 1.0
C      1  0.5432870000000  0.4744020000000  0.4944050000000 1.0
C      1  0.5513860000000  0.5953970000000  0.5353120000000 1.0
C      1  0.5249980000000  0.5051280000000  0.5542230000000 1.0
C      1  0.5676060000000  0.5065580000000  0.4181360000000 1.0
C      1  0.4825480000000  0.5929020000000  0.4908180000000 1.0
C      1  0.4964620000000  0.4953470000000  0.5600710000000 1.0
C      1  0.4730860000000  0.4214870000000  0.4890420000000 1.0
C      1  0.4326220000000  0.5113100000000  0.5182260000000 1.0
C      1  0.5390540000000  0.5830820000000  0.4489760000000 1.0
C      1  0.4651720000000  0.4598280000000  0.4811200000000 1.0
C      1  0.5785660000000  0.5188720000000  0.5235770000000 1.0
END
