TITL C-2782237-5345-473 0.000272308643249206 125000 -917.077997415105 0 0 158 (C1) n - 1
REM
REM in /home/nfs/bkarasulu/CARBON/AIRSS/Generating-Clusters/REBO/Higher-Symm/SD-CG/HFTN-CG
REM
REM
REM
REM
REM
REM ./C.cell (12c818d87b63d06a65506943cc24bca4)
REM
REM compiler GCC version 9.2.1 20190827 (Red Hat 9.2.1-1)
REM options -cpp -mtune=generic -march=x86-64 -g -O0 -fpre-include=/usr/include/finclude/math-vector-fortran.h
REM seed 234737359 356251126 1790644506 1637588458 1606149142 1803778991 1172019222 -1654820573 1518477070 1832452248 1087070784 -1228123471 252643434 -140348360 -482547194 -1060243248 467011342 965475226 -1796812325 -1199235982 1640195966 -186044263 1396352619 -1028995871 -463203296 1130938898 -2063277663 -611708278 2094871473 1528278173 1216381928 -2107460920 -1798824894
REM
CELL 1.54180   50.00000   50.00000   50.00000   90.00000   90.00000   90.00000
LATT -1
SFAC C  
C      1  0.4498630000000  0.5415140000000  0.4232220000000 1.0
C      1  0.4029580000000  0.5384500000000  0.5049340000000 1.0
C      1  0.4563100000000  0.5423740000000  0.5871120000000 1.0
C      1  0.5552270000000  0.5465280000000  0.5802000000000 1.0
C      1  0.6000720000000  0.5423160000000  0.4943760000000 1.0
C      1  0.5468960000000  0.5457200000000  0.4158880000000 1.0
C      1  0.4449050000000  0.4560000000000  0.4163650000000 1.0
C      1  0.4031430000000  0.4596270000000  0.5048010000000 1.0
C      1  0.4559860000000  0.4600790000000  0.5841600000000 1.0
C      1  0.5515970000000  0.4672300000000  0.5763940000000 1.0
C      1  0.5953900000000  0.4606420000000  0.4912120000000 1.0
C      1  0.5400070000000  0.4549550000000  0.4144170000000 1.0
C      1  0.4540100000000  0.4321760000000  0.5097760000000 1.0
C      1  0.4864840000000  0.4300360000000  0.5514050000000 1.0
C      1  0.5356540000000  0.4333340000000  0.5358720000000 1.0
C      1  0.5492700000000  0.4290020000000  0.4868010000000 1.0
C      1  0.5123320000000  0.4278680000000  0.4518440000000 1.0
C      1  0.4629050000000  0.4376480000000  0.4600320000000 1.0
C      1  0.4546600000000  0.5650500000000  0.5138510000000 1.0
C      1  0.4924130000000  0.5641030000000  0.5478530000000 1.0
C      1  0.5422890000000  0.5613190000000  0.5403640000000 1.0
C      1  0.5512960000000  0.5666310000000  0.4904690000000 1.0
C      1  0.5173310000000  0.5710460000000  0.4493440000000 1.0
C      1  0.4651740000000  0.5655170000000  0.4632900000000 1.0
C      1  0.5813800000000  0.4538850000000  0.4604250000000 1.0
C      1  0.5068610000000  0.4631780000000  0.4151530000000 1.0
C      1  0.4248090000000  0.4640460000000  0.4428510000000 1.0
C      1  0.4180000000000  0.4659070000000  0.5347800000000 1.0
C      1  0.4903640000000  0.4637040000000  0.5835460000000 1.0
C      1  0.5696960000000  0.4683130000000  0.5472660000000 1.0
C      1  0.5813160000000  0.5366970000000  0.4671610000000 1.0
C      1  0.5143720000000  0.5352730000000  0.4147210000000 1.0
C      1  0.4340680000000  0.5318370000000  0.4518150000000 1.0
C      1  0.4158600000000  0.5380120000000  0.5364360000000 1.0
C      1  0.4895460000000  0.5366810000000  0.5899950000000 1.0
C      1  0.5700180000000  0.5353920000000  0.5528770000000 1.0
C      1  0.5621640000000  0.4389040000000  0.4363390000000 1.0
C      1  0.4775140000000  0.4454840000000  0.4166860000000 1.0
C      1  0.4196280000000  0.4540950000000  0.4753280000000 1.0
C      1  0.4413840000000  0.4508970000000  0.5545960000000 1.0
C      1  0.5220680000000  0.4504660000000  0.5840110000000 1.0
C      1  0.5827660000000  0.4499280000000  0.5216380000000 1.0
C      1  0.5650070000000  0.5550430000000  0.4433820000000 1.0
C      1  0.4839020000000  0.5478890000000  0.4244070000000 1.0
C      1  0.4197850000000  0.5499110000000  0.4771520000000 1.0
C      1  0.4395330000000  0.5496690000000  0.5582780000000 1.0
C      1  0.5215350000000  0.5485190000000  0.5861740000000 1.0
C      1  0.5877300000000  0.5478830000000  0.5261070000000 1.0
C      1  0.4596580000000  0.5177270000000  0.5452340000000 1.0
C      1  0.5191630000000  0.5140030000000  0.5542320000000 1.0
C      1  0.5543760000000  0.5128920000000  0.5093560000000 1.0
C      1  0.5420210000000  0.5256830000000  0.4565200000000 1.0
C      1  0.4862570000000  0.5092200000000  0.4338060000000 1.0
C      1  0.4391920000000  0.5170650000000  0.4886210000000 1.0
C      1  0.4531090000000  0.4884630000000  0.5477130000000 1.0
C      1  0.5171420000000  0.4798100000000  0.5575290000000 1.0
C      1  0.5617280000000  0.4795380000000  0.5049200000000 1.0
C      1  0.5439950000000  0.4706220000000  0.4520140000000 1.0
C      1  0.4768650000000  0.4774170000000  0.4397800000000 1.0
C      1  0.4432190000000  0.4842900000000  0.4867510000000 1.0
C      1  0.5066230000000  0.5156450000000  0.3883730000000 1.0
C      1  0.4082010000000  0.5105890000000  0.4476260000000 1.0
C      1  0.3999790000000  0.5176340000000  0.5563980000000 1.0
C      1  0.4945100000000  0.5153050000000  0.6141080000000 1.0
C      1  0.5982140000000  0.5192570000000  0.5516410000000 1.0
C      1  0.5913830000000  0.5095850000000  0.4498020000000 1.0
C      1  0.4994370000000  0.4869780000000  0.3931240000000 1.0
C      1  0.3996490000000  0.4842980000000  0.4416910000000 1.0
C      1  0.4041040000000  0.4898730000000  0.5534720000000 1.0
C      1  0.4968740000000  0.4896010000000  0.6034850000000 1.0
C      1  0.5921220000000  0.4922290000000  0.5470070000000 1.0
C      1  0.5942390000000  0.4817290000000  0.4456410000000 1.0
C      1  0.4467180000000  0.5683350000000  0.4420870000000 1.0
C      1  0.4234510000000  0.5653680000000  0.5073380000000 1.0
C      1  0.4727080000000  0.5688250000000  0.5739020000000 1.0
C      1  0.5632000000000  0.5734700000000  0.5621970000000 1.0
C      1  0.5829940000000  0.5698320000000  0.4894580000000 1.0
C      1  0.5278500000000  0.5719580000000  0.4231340000000 1.0
C      1  0.4463780000000  0.4309090000000  0.4381800000000 1.0
C      1  0.4218500000000  0.4323150000000  0.5086330000000 1.0
C      1  0.4699990000000  0.4302690000000  0.5760860000000 1.0
C      1  0.5469940000000  0.4356420000000  0.5659090000000 1.0
C      1  0.5798440000000  0.4306100000000  0.4938080000000 1.0
C      1  0.5327470000000  0.4245590000000  0.4266140000000 1.0
C      1  0.4732830000000  0.5233230000000  0.5081550000000 1.0
C      1  0.4936240000000  0.5272710000000  0.5268150000000 1.0
C      1  0.5199550000000  0.5312520000000  0.5181870000000 1.0
C      1  0.5248050000000  0.5330630000000  0.4916850000000 1.0
C      1  0.5053750000000  0.5263570000000  0.4735380000000 1.0
C      1  0.4788190000000  0.5194950000000  0.4807430000000 1.0
C      1  0.4749150000000  0.4705870000000  0.5063850000000 1.0
C      1  0.4945240000000  0.4710550000000  0.5259050000000 1.0
C      1  0.5209480000000  0.4751600000000  0.5181040000000 1.0
C      1  0.5254780000000  0.4733080000000  0.4903410000000 1.0
C      1  0.5069780000000  0.4752060000000  0.4697030000000 1.0
C      1  0.4809820000000  0.4734470000000  0.4792680000000 1.0
C      1  0.4612190000000  0.5117230000000  0.4558340000000 1.0
C      1  0.4411820000000  0.5260480000000  0.5190990000000 1.0
C      1  0.4877460000000  0.5245830000000  0.5599430000000 1.0
C      1  0.5489970000000  0.5163010000000  0.5411380000000 1.0
C      1  0.5615570000000  0.5111880000000  0.4783950000000 1.0
C      1  0.5179920000000  0.5140660000000  0.4397120000000 1.0
C      1  0.4493900000000  0.4799530000000  0.4558940000000 1.0
C      1  0.4457030000000  0.4759290000000  0.5183700000000 1.0
C      1  0.4787960000000  0.4701020000000  0.5531860000000 1.0
C      1  0.5430320000000  0.4847940000000  0.5397260000000 1.0
C      1  0.5652800000000  0.4810480000000  0.4731940000000 1.0
C      1  0.5170510000000  0.4818770000000  0.4411800000000 1.0
C      1  0.4899630000000  0.4468300000000  0.4474510000000 1.0
C      1  0.4491500000000  0.4498820000000  0.4839720000000 1.0
C      1  0.4640570000000  0.4444370000000  0.5346360000000 1.0
C      1  0.5112790000000  0.4469830000000  0.5529560000000 1.0
C      1  0.5504570000000  0.4486030000000  0.5137460000000 1.0
C      1  0.5401060000000  0.4410480000000  0.4617750000000 1.0
C      1  0.4905210000000  0.5629630000000  0.4503660000000 1.0
C      1  0.4522600000000  0.5488020000000  0.4857370000000 1.0
C      1  0.4643140000000  0.5513980000000  0.5390800000000 1.0
C      1  0.5187340000000  0.5487150000000  0.5539990000000 1.0
C      1  0.5574060000000  0.5456720000000  0.5156840000000 1.0
C      1  0.5400900000000  0.5581340000000  0.4647240000000 1.0
C      1  0.4818280000000  0.3994180000000  0.4817600000000 1.0
C      1  0.4702450000000  0.4064770000000  0.5056290000000 1.0
C      1  0.4911980000000  0.4072770000000  0.5310540000000 1.0
C      1  0.5246660000000  0.4048790000000  0.5255590000000 1.0
C      1  0.5307370000000  0.4055180000000  0.4925540000000 1.0
C      1  0.5064950000000  0.4045920000000  0.4709660000000 1.0
C      1  0.4676760000000  0.6125310000000  0.4949470000000 1.0
C      1  0.4699380000000  0.5906390000000  0.5124960000000 1.0
C      1  0.4936360000000  0.5881100000000  0.5278680000000 1.0
C      1  0.5171890000000  0.5985080000000  0.5162710000000 1.0
C      1  0.5141420000000  0.6210120000000  0.4990920000000 1.0
C      1  0.4896510000000  0.6279170000000  0.4883110000000 1.0
C      1  0.4730270000000  0.4826580000000  0.4071630000000 1.0
C      1  0.3921340000000  0.4696250000000  0.4677270000000 1.0
C      1  0.4301950000000  0.4854170000000  0.5673660000000 1.0
C      1  0.5203390000000  0.4899100000000  0.5860900000000 1.0
C      1  0.5877580000000  0.4889440000000  0.5181580000000 1.0
C      1  0.5678050000000  0.4775010000000  0.4314580000000 1.0
C      1  0.4785290000000  0.5219890000000  0.4041680000000 1.0
C      1  0.4112220000000  0.5112930000000  0.4770970000000 1.0
C      1  0.4202060000000  0.5301840000000  0.5754080000000 1.0
C      1  0.5205380000000  0.5310460000000  0.6144900000000 1.0
C      1  0.6160360000000  0.5304260000000  0.5288160000000 1.0
C      1  0.5655180000000  0.5171150000000  0.4363010000000 1.0
C      1  0.5481910000000  0.5235660000000  0.6018790000000 1.0
C      1  0.6204700000000  0.5170020000000  0.5010630000000 1.0
C      1  0.5550490000000  0.5134900000000  0.4079240000000 1.0
C      1  0.4471360000000  0.5159530000000  0.4009610000000 1.0
C      1  0.3891240000000  0.5092960000000  0.4969330000000 1.0
C      1  0.4375200000000  0.5172170000000  0.5977500000000 1.0
C      1  0.5482260000000  0.4971370000000  0.5922380000000 1.0
C      1  0.6097590000000  0.4907720000000  0.4982710000000 1.0
C      1  0.5545660000000  0.4843340000000  0.4050000000000 1.0
C      1  0.4432730000000  0.4860840000000  0.4004890000000 1.0
C      1  0.3817460000000  0.4818850000000  0.4942320000000 1.0
C      1  0.4407900000000  0.4885560000000  0.5951520000000 1.0
C      1  0.5380140000000  0.5803240000000  0.5154100000000 1.0
C      1  0.5053280000000  0.4245280000000  0.5051550000000 1.0
END
