TITL C-2782240-8521-1337 0.000968456276535624 125000 -387.896685235523 0 0 67 (C1) n - 1
REM
REM in /home/nfs/bkarasulu/CARBON/AIRSS/Generating-Clusters/REBO/Higher-Symm/SD-CG/HFTN-CG
REM
REM
REM
REM
REM
REM ./C.cell (12c818d87b63d06a65506943cc24bca4)
REM
REM compiler GCC version 9.2.1 20190827 (Red Hat 9.2.1-1)
REM options -cpp -mtune=generic -march=x86-64 -g -O0 -fpre-include=/usr/include/finclude/math-vector-fortran.h
REM seed -616033309 1881028126 1416145672 344393356 1883960724 -151138502 -458251830 457333036 1430936500 -1477098706 2018182710 1653342399 -847047190 -441328790 -1935392771 1979903321 666403497 -2076598142 1988961709 1427919777 1742419014 -501123834 240645076 -605097781 -1816337438 785822720 23972335 102722270 2079005426 -926312269 -43012755 -739555726 134560219
REM
CELL 1.54180   50.00000   50.00000   50.00000   90.00000   90.00000   90.00000
LATT -1
SFAC C  
C      1  0.5281150000000  0.5572720000000  0.5334740000000 1.0
C      1  0.5440660000000  0.4701380000000  0.4522040000000 1.0
C      1  0.4875720000000  0.5044770000000  0.5587390000000 1.0
C      1  0.5564180000000  0.5008660000000  0.4507430000000 1.0
C      1  0.4873650000000  0.4513730000000  0.4808330000000 1.0
C      1  0.5086090000000  0.4549680000000  0.5029210000000 1.0
C      1  0.5467390000000  0.4462170000000  0.4748020000000 1.0
C      1  0.4787490000000  0.5044810000000  0.4224110000000 1.0
C      1  0.4564870000000  0.5144450000000  0.4360180000000 1.0
C      1  0.5081250000000  0.4944570000000  0.5783780000000 1.0
C      1  0.5434860000000  0.5589460000000  0.4680910000000 1.0
C      1  0.5235370000000  0.4945690000000  0.4427730000000 1.0
C      1  0.5041280000000  0.4168890000000  0.4920910000000 1.0
C      1  0.5242230000000  0.5235960000000  0.4881240000000 1.0
C      1  0.4294950000000  0.4910720000000  0.4820640000000 1.0
C      1  0.5410700000000  0.5199960000000  0.5388350000000 1.0
C      1  0.5140590000000  0.5232670000000  0.5820550000000 1.0
C      1  0.5589930000000  0.5470710000000  0.5287000000000 1.0
C      1  0.5307540000000  0.5451980000000  0.4459510000000 1.0
C      1  0.5278410000000  0.5464210000000  0.5027000000000 1.0
C      1  0.5054540000000  0.5805180000000  0.5342570000000 1.0
C      1  0.5261940000000  0.4344140000000  0.4524740000000 1.0
C      1  0.5616460000000  0.5120310000000  0.4802120000000 1.0
C      1  0.5069250000000  0.4721470000000  0.5234420000000 1.0
C      1  0.4628590000000  0.4563720000000  0.5507450000000 1.0
C      1  0.5729920000000  0.5523140000000  0.5064060000000 1.0
C      1  0.4793420000000  0.4118940000000  0.5491150000000 1.0
C      1  0.4386670000000  0.5069180000000  0.4609610000000 1.0
C      1  0.4357640000000  0.4631240000000  0.4824960000000 1.0
C      1  0.5015190000000  0.5904360000000  0.5064930000000 1.0
C      1  0.4394490000000  0.4770810000000  0.5445350000000 1.0
C      1  0.4845870000000  0.4709600000000  0.4559740000000 1.0
C      1  0.4450440000000  0.5250910000000  0.5506850000000 1.0
C      1  0.4858420000000  0.5131510000000  0.3976270000000 1.0
C      1  0.5233540000000  0.5207870000000  0.4597540000000 1.0
C      1  0.4315550000000  0.5033940000000  0.5374150000000 1.0
C      1  0.4878360000000  0.5658640000000  0.4366040000000 1.0
C      1  0.4528160000000  0.5468720000000  0.4895210000000 1.0
C      1  0.4838270000000  0.4388000000000  0.5568510000000 1.0
C      1  0.5634540000000  0.5432800000000  0.4813700000000 1.0
C      1  0.4888220000000  0.4908350000000  0.5337310000000 1.0
C      1  0.4954630000000  0.4871030000000  0.4374790000000 1.0
C      1  0.4872240000000  0.5670000000000  0.4863420000000 1.0
C      1  0.4767960000000  0.5485480000000  0.5129370000000 1.0
C      1  0.5208190000000  0.5730900000000  0.4856570000000 1.0
C      1  0.5522490000000  0.5061170000000  0.5106730000000 1.0
C      1  0.5564200000000  0.4779190000000  0.4831590000000 1.0
C      1  0.4778140000000  0.4176700000000  0.5000590000000 1.0
C      1  0.4743510000000  0.5608270000000  0.4595910000000 1.0
C      1  0.5320670000000  0.4335300000000  0.4990230000000 1.0
C      1  0.5234140000000  0.4746270000000  0.5633050000000 1.0
C      1  0.4599420000000  0.4441700000000  0.4937430000000 1.0
C      1  0.4534870000000  0.4616830000000  0.5182680000000 1.0
C      1  0.4717750000000  0.4038580000000  0.5239770000000 1.0
C      1  0.5012900000000  0.4347860000000  0.4564510000000 1.0
C      1  0.5479600000000  0.4237750000000  0.5195850000000 1.0
C      1  0.4521660000000  0.5379620000000  0.4597110000000 1.0
C      1  0.4726730000000  0.5289790000000  0.5569280000000 1.0
C      1  0.5127910000000  0.5581390000000  0.4284580000000 1.0
C      1  0.4551460000000  0.5225150000000  0.5113890000000 1.0
C      1  0.4895450000000  0.5511720000000  0.5411410000000 1.0
C      1  0.5170110000000  0.5360180000000  0.5547210000000 1.0
C      1  0.5392360000000  0.4861950000000  0.5423780000000 1.0
C      1  0.4284520000000  0.5047710000000  0.5071320000000 1.0
C      1  0.5097870000000  0.4496570000000  0.5613550000000 1.0
C      1  0.4649200000000  0.4928160000000  0.5180750000000 1.0
C      1  0.5494180000000  0.4750680000000  0.5158920000000 1.0
END
