TITL C-2782239-8622-353 0.0103829080853066 125000 -1105.73503496714 0 0 193 (C1) n - 1
REM
REM in /home/nfs/bkarasulu/CARBON/AIRSS/Generating-Clusters/REBO/Higher-Symm/SD-CG/HFTN-CG
REM
REM
REM
REM
REM
REM ./C.cell (12c818d87b63d06a65506943cc24bca4)
REM
REM compiler GCC version 9.2.1 20190827 (Red Hat 9.2.1-1)
REM options -cpp -mtune=generic -march=x86-64 -g -O0 -fpre-include=/usr/include/finclude/math-vector-fortran.h
REM seed 966147166 747585335 240371785 -1604954683 221429464 -2113015403 1190208331 1675478064 -1432321744 1797356051 10903828 504552374 1903905386 1670263722 1944484212 -1475752989 -7200982 -1761666787 -2006720776 1575411035 964585396 1253117684 523277487 1758845991 1521542231 1162079318 452481145 -1461350861 1962765695 -1435387833 192414804 -12478837 1781528686
REM
CELL 1.54180   50.00000   50.00000   50.00000   90.00000   90.00000   90.00000
LATT -1
SFAC C  
C      1  0.3836830000000  0.4586610000000  0.4633080000000 1.0
C      1  0.5250920000000  0.6097760000000  0.4564580000000 1.0
C      1  0.5786630000000  0.4172510000000  0.4705380000000 1.0
C      1  0.4801300000000  0.4430840000000  0.4197710000000 1.0
C      1  0.4590360000000  0.5457000000000  0.4156020000000 1.0
C      1  0.5574320000000  0.5155230000000  0.4131510000000 1.0
C      1  0.4669660000000  0.5065710000000  0.5692150000000 1.0
C      1  0.5177830000000  0.5138480000000  0.5719830000000 1.0
C      1  0.5119900000000  0.4838260000000  0.5722540000000 1.0
C      1  0.5106200000000  0.5304910000000  0.4241220000000 1.0
C      1  0.5167890000000  0.4768330000000  0.4227280000000 1.0
C      1  0.4690470000000  0.4954360000000  0.4248600000000 1.0
C      1  0.3884150000000  0.4859460000000  0.5084290000000 1.0
C      1  0.5526320000000  0.6028390000000  0.5086570000000 1.0
C      1  0.5635960000000  0.4091560000000  0.5098260000000 1.0
C      1  0.4637780000000  0.5006590000000  0.4940670000000 1.0
C      1  0.5148050000000  0.5326620000000  0.4945810000000 1.0
C      1  0.5205650000000  0.4718360000000  0.4932000000000 1.0
C      1  0.3962600000000  0.5344370000000  0.5356670000000 1.0
C      1  0.5831100000000  0.5598210000000  0.5391510000000 1.0
C      1  0.5208300000000  0.4002900000000  0.5360040000000 1.0
C      1  0.4708790000000  0.4227900000000  0.4853620000000 1.0
C      1  0.4436880000000  0.5633300000000  0.4792650000000 1.0
C      1  0.5826700000000  0.5161390000000  0.4794860000000 1.0
C      1  0.6052910000000  0.4870340000000  0.4641010000000 1.0
C      1  0.4341220000000  0.4219740000000  0.4696660000000 1.0
C      1  0.4595020000000  0.5972550000000  0.4657890000000 1.0
C      1  0.4366880000000  0.4143010000000  0.5200250000000 1.0
C      1  0.4559620000000  0.5959850000000  0.5186600000000 1.0
C      1  0.6087100000000  0.4883850000000  0.5172170000000 1.0
C      1  0.4355900000000  0.4282910000000  0.5588330000000 1.0
C      1  0.4770390000000  0.5879400000000  0.5629510000000 1.0
C      1  0.5964200000000  0.4790050000000  0.5643260000000 1.0
C      1  0.6061440000000  0.5615220000000  0.5259780000000 1.0
C      1  0.5030930000000  0.3810560000000  0.5228590000000 1.0
C      1  0.3909580000000  0.5616170000000  0.5246970000000 1.0
C      1  0.5807550000000  0.5683270000000  0.4838180000000 1.0
C      1  0.5165920000000  0.4012140000000  0.4911520000000 1.0
C      1  0.3997300000000  0.5330390000000  0.4840600000000 1.0
C      1  0.4983520000000  0.4550590000000  0.5215620000000 1.0
C      1  0.4558970000000  0.5326030000000  0.5162920000000 1.0
C      1  0.5461730000000  0.5220220000000  0.5167160000000 1.0
C      1  0.5463530000000  0.4011310000000  0.4874890000000 1.0
C      1  0.3900070000000  0.5044960000000  0.4862410000000 1.0
C      1  0.5657240000000  0.5944870000000  0.4829370000000 1.0
C      1  0.5617490000000  0.4972540000000  0.5716180000000 1.0
C      1  0.4736590000000  0.4506500000000  0.5736210000000 1.0
C      1  0.4712800000000  0.5380730000000  0.5684160000000 1.0
C      1  0.5955790000000  0.5110520000000  0.4420770000000 1.0
C      1  0.4604820000000  0.4135730000000  0.4483940000000 1.0
C      1  0.4433350000000  0.5780270000000  0.4425670000000 1.0
C      1  0.4522480000000  0.5153930000000  0.5416240000000 1.0
C      1  0.5280140000000  0.5307810000000  0.5441080000000 1.0
C      1  0.5195120000000  0.4617150000000  0.5474900000000 1.0
C      1  0.4088460000000  0.4977300000000  0.5714260000000 1.0
C      1  0.5423540000000  0.5735700000000  0.5681530000000 1.0
C      1  0.5464250000000  0.4239750000000  0.5717600000000 1.0
C      1  0.4434030000000  0.6005480000000  0.4926760000000 1.0
C      1  0.6162390000000  0.4980930000000  0.4905970000000 1.0
C      1  0.4379170000000  0.4026790000000  0.4936720000000 1.0
C      1  0.5987100000000  0.4632280000000  0.5277800000000 1.0
C      1  0.4177950000000  0.4353660000000  0.5239650000000 1.0
C      1  0.4837340000000  0.5973390000000  0.5247060000000 1.0
C      1  0.4463020000000  0.4762530000000  0.4541960000000 1.0
C      1  0.5028880000000  0.5588420000000  0.4595010000000 1.0
C      1  0.5483560000000  0.4643480000000  0.4602080000000 1.0
C      1  0.4264790000000  0.4717030000000  0.5638420000000 1.0
C      1  0.5160140000000  0.5622000000000  0.5507690000000 1.0
C      1  0.5512610000000  0.4534580000000  0.5580910000000 1.0
C      1  0.4691890000000  0.5008030000000  0.6026160000000 1.0
C      1  0.5139260000000  0.5231020000000  0.6033910000000 1.0
C      1  0.5111280000000  0.4719640000000  0.6034100000000 1.0
C      1  0.5144140000000  0.4215450000000  0.5837300000000 1.0
C      1  0.4232540000000  0.5266660000000  0.5827830000000 1.0
C      1  0.5595890000000  0.5484050000000  0.5840910000000 1.0
C      1  0.4702920000000  0.4529090000000  0.4920250000000 1.0
C      1  0.4726020000000  0.5553800000000  0.4869380000000 1.0
C      1  0.5611640000000  0.4945660000000  0.4829010000000 1.0
C      1  0.5044960000000  0.4301990000000  0.5052380000000 1.0
C      1  0.4279490000000  0.5357700000000  0.5025400000000 1.0
C      1  0.5613020000000  0.5448570000000  0.4965650000000 1.0
C      1  0.4555380000000  0.4756050000000  0.5759360000000 1.0
C      1  0.5010260000000  0.5424800000000  0.5711760000000 1.0
C      1  0.5427150000000  0.4757430000000  0.5796970000000 1.0
C      1  0.5064030000000  0.5891870000000  0.5359270000000 1.0
C      1  0.5813980000000  0.4487210000000  0.5430350000000 1.0
C      1  0.4128750000000  0.4562490000000  0.5414890000000 1.0
C      1  0.5111350000000  0.5259340000000  0.4554680000000 1.0
C      1  0.5183300000000  0.4766040000000  0.4538080000000 1.0
C      1  0.4735440000000  0.4965680000000  0.4557600000000 1.0
C      1  0.5179490000000  0.5666780000000  0.4094820000000 1.0
C      1  0.5450820000000  0.4528760000000  0.4087390000000 1.0
C      1  0.4356940000000  0.4859030000000  0.4055350000000 1.0
C      1  0.5150120000000  0.4915560000000  0.3924750000000 1.0
C      1  0.4826910000000  0.4910330000000  0.3947890000000 1.0
C      1  0.4988720000000  0.5196400000000  0.3946970000000 1.0
C      1  0.4916120000000  0.4838220000000  0.5043440000000 1.0
C      1  0.4861700000000  0.5231220000000  0.5058610000000 1.0
C      1  0.5259500000000  0.5033820000000  0.4993310000000 1.0
C      1  0.4722830000000  0.4459210000000  0.4527630000000 1.0
C      1  0.4655160000000  0.5518180000000  0.4478770000000 1.0
C      1  0.5626010000000  0.5006780000000  0.4421510000000 1.0
C      1  0.5539260000000  0.4393630000000  0.4795030000000 1.0
C      1  0.4236850000000  0.4882880000000  0.4723060000000 1.0
C      1  0.5260610000000  0.5783980000000  0.4697440000000 1.0
C      1  0.5388600000000  0.4537840000000  0.5135100000000 1.0
C      1  0.4351520000000  0.4933420000000  0.5102230000000 1.0
C      1  0.5267660000000  0.5566300000000  0.5124670000000 1.0
C      1  0.5050840000000  0.6108480000000  0.4795040000000 1.0
C      1  0.5960320000000  0.4415980000000  0.4775760000000 1.0
C      1  0.3974610000000  0.4310620000000  0.4731450000000 1.0
C      1  0.4743500000000  0.5581300000000  0.5208770000000 1.0
C      1  0.5567720000000  0.4833980000000  0.5147700000000 1.0
C      1  0.4663360000000  0.4611510000000  0.5249570000000 1.0
C      1  0.5031980000000  0.5108970000000  0.5311920000000 1.0
C      1  0.5270340000000  0.4883350000000  0.5294050000000 1.0
C      1  0.4738510000000  0.4936840000000  0.5320150000000 1.0
C      1  0.5640450000000  0.4193920000000  0.5425130000000 1.0
C      1  0.3965790000000  0.4856230000000  0.5415840000000 1.0
C      1  0.5402910000000  0.5913310000000  0.5385950000000 1.0
C      1  0.4460800000000  0.5160320000000  0.4175980000000 1.0
C      1  0.5393910000000  0.5414950000000  0.4178390000000 1.0
C      1  0.5133350000000  0.4452060000000  0.4194180000000 1.0
C      1  0.4616910000000  0.4090590000000  0.5354430000000 1.0
C      1  0.4394980000000  0.5792680000000  0.5362900000000 1.0
C      1  0.5993070000000  0.5127100000000  0.5320990000000 1.0
C      1  0.4363620000000  0.4980480000000  0.5931110000000 1.0
C      1  0.5273920000000  0.5515930000000  0.5904050000000 1.0
C      1  0.5323980000000  0.4470650000000  0.5937900000000 1.0
C      1  0.5217840000000  0.4409750000000  0.4787610000000 1.0
C      1  0.4381340000000  0.5162900000000  0.4779110000000 1.0
C      1  0.5380750000000  0.5480950000000  0.4750900000000 1.0
C      1  0.4855590000000  0.4075940000000  0.5190800000000 1.0
C      1  0.4233210000000  0.5604140000000  0.5224330000000 1.0
C      1  0.5787620000000  0.5260060000000  0.5186100000000 1.0
C      1  0.3940030000000  0.4876550000000  0.4577650000000 1.0
C      1  0.5554500000000  0.6010650000000  0.4558970000000 1.0
C      1  0.5537040000000  0.4069920000000  0.4562810000000 1.0
C      1  0.4761310000000  0.5640240000000  0.5485340000000 1.0
C      1  0.5708430000000  0.4872000000000  0.5434490000000 1.0
C      1  0.4553380000000  0.4460680000000  0.5492770000000 1.0
C      1  0.5211180000000  0.6116690000000  0.5064470000000 1.0
C      1  0.5917040000000  0.4266840000000  0.5069270000000 1.0
C      1  0.3921480000000  0.4557780000000  0.4962220000000 1.0
C      1  0.5502830000000  0.5542510000000  0.4461160000000 1.0
C      1  0.5192110000000  0.4320970000000  0.4495280000000 1.0
C      1  0.4304360000000  0.5178610000000  0.4463330000000 1.0
C      1  0.6066000000000  0.5554710000000  0.4983260000000 1.0
C      1  0.4917050000000  0.3778180000000  0.4933880000000 1.0
C      1  0.3956140000000  0.5652240000000  0.4943070000000 1.0
C      1  0.4655930000000  0.3897610000000  0.4893740000000 1.0
C      1  0.4186680000000  0.5820290000000  0.4891280000000 1.0
C      1  0.6101790000000  0.5284150000000  0.4904350000000 1.0
C      1  0.4443450000000  0.5509940000000  0.5775120000000 1.0
C      1  0.5773370000000  0.5211320000000  0.5824110000000 1.0
C      1  0.4829880000000  0.4245610000000  0.5799380000000 1.0
C      1  0.5356790000000  0.4295170000000  0.5301340000000 1.0
C      1  0.4155890000000  0.5075120000000  0.5279310000000 1.0
C      1  0.5505960000000  0.5620240000000  0.5308230000000 1.0
C      1  0.5471650000000  0.4296210000000  0.4338430000000 1.0
C      1  0.4159560000000  0.4926790000000  0.4333270000000 1.0
C      1  0.5396390000000  0.5816360000000  0.4324040000000 1.0
C      1  0.4200680000000  0.5510830000000  0.4642260000000 1.0
C      1  0.5836980000000  0.5421830000000  0.4638110000000 1.0
C      1  0.4937470000000  0.4101440000000  0.4700340000000 1.0
C      1  0.5444980000000  0.4869220000000  0.4052580000000 1.0
C      1  0.4642960000000  0.4666560000000  0.4071650000000 1.0
C      1  0.4888720000000  0.5488920000000  0.4055420000000 1.0
C      1  0.4393800000000  0.5746330000000  0.5644940000000 1.0
C      1  0.5981640000000  0.5099350000000  0.5616270000000 1.0
C      1  0.4682810000000  0.4058190000000  0.5635980000000 1.0
C      1  0.5690740000000  0.4485150000000  0.5053540000000 1.0
C      1  0.4220060000000  0.4674770000000  0.4974590000000 1.0
C      1  0.5208490000000  0.5806760000000  0.4997380000000 1.0
C      1  0.5760730000000  0.5368510000000  0.4325680000000 1.0
C      1  0.4925240000000  0.4158850000000  0.4369770000000 1.0
C      1  0.4290710000000  0.5488790000000  0.4323770000000 1.0
C      1  0.4410160000000  0.4391850000000  0.4405290000000 1.0
C      1  0.4764720000000  0.5830620000000  0.4393000000000 1.0
C      1  0.5883230000000  0.4788100000000  0.4351400000000 1.0
C      1  0.4789820000000  0.5282730000000  0.4668550000000 1.0
C      1  0.5359150000000  0.5030650000000  0.4613560000000 1.0
C      1  0.4881480000000  0.4691270000000  0.4676070000000 1.0
C      1  0.4874150000000  0.5839530000000  0.4774360000000 1.0
C      1  0.5802800000000  0.4683700000000  0.4725910000000 1.0
C      1  0.4422030000000  0.4533800000000  0.4779490000000 1.0
C      1  0.5595550000000  0.5408640000000  0.5531500000000 1.0
C      1  0.5117620000000  0.4283650000000  0.5525880000000 1.0
C      1  0.4248500000000  0.5282160000000  0.5512500000000 1.0
C      1  0.5062550000000  0.5824930000000  0.4352690000000 1.0
C      1  0.5662660000000  0.4579520000000  0.4338730000000 1.0
C      1  0.4305010000000  0.4633720000000  0.4281290000000 1.0
C      1  0.4969550000000  0.4988920000000  0.6108750000000 1.0
END
