TITL C-2782229-3092-767 0.0052864064211667 125000 -860.201744482427 0 0 147 (C1) n - 1
REM
REM in /home/nfs/bkarasulu/CARBON/AIRSS/Generating-Clusters/REBO/Higher-Symm/SD-CG/HFTN-CG
REM
REM
REM
REM
REM
REM ./C.cell (12c818d87b63d06a65506943cc24bca4)
REM
REM compiler GCC version 9.2.1 20190827 (Red Hat 9.2.1-1)
REM options -cpp -mtune=generic -march=x86-64 -g -O0 -fpre-include=/usr/include/finclude/math-vector-fortran.h
REM seed -436826949 1037744947 829564187 1031694356 -1208074553 1686411576 1675747006 -1000773498 1397686100 -482722836 -1215558920 -1079609451 1627669929 -730046490 -1082136316 1991186594 -953828312 200899718 -935647822 1024253921 63007959 -450396728 264826752 -243113445 -355640143 -1618739098 923646292 276365088 -1962415418 -1515078220 -1231352744 -988240003 -656617217
REM
CELL 1.54180   50.00000   50.00000   50.00000   90.00000   90.00000   90.00000
LATT -1
SFAC C  
C      1  0.5820760000000  0.4320180000000  0.5228250000000 1.0
C      1  0.4935450000000  0.4362780000000  0.5890650000000 1.0
C      1  0.4131250000000  0.4325050000000  0.5145550000000 1.0
C      1  0.4503800000000  0.4436730000000  0.4129850000000 1.0
C      1  0.5512360000000  0.4251010000000  0.4302260000000 1.0
C      1  0.6063340000000  0.4891990000000  0.5123110000000 1.0
C      1  0.5218340000000  0.4894850000000  0.5960640000000 1.0
C      1  0.4112570000000  0.4863820000000  0.5518990000000 1.0
C      1  0.4310380000000  0.4945580000000  0.4342380000000 1.0
C      1  0.5432730000000  0.4853530000000  0.4166170000000 1.0
C      1  0.4224930000000  0.5181430000000  0.5559650000000 1.0
C      1  0.4309410000000  0.5223100000000  0.4503250000000 1.0
C      1  0.5273500000000  0.5151170000000  0.4209690000000 1.0
C      1  0.6000930000000  0.5191420000000  0.5018790000000 1.0
C      1  0.5265540000000  0.5189350000000  0.5829070000000 1.0
C      1  0.4441910000000  0.5742270000000  0.4454820000000 1.0
C      1  0.5258300000000  0.5629890000000  0.4364510000000 1.0
C      1  0.5656710000000  0.5561600000000  0.5036210000000 1.0
C      1  0.5116370000000  0.5721270000000  0.5744510000000 1.0
C      1  0.4394950000000  0.5629430000000  0.5343080000000 1.0
C      1  0.4751260000000  0.4644890000000  0.4163460000000 1.0
C      1  0.5696250000000  0.4713160000000  0.4423930000000 1.0
C      1  0.5682140000000  0.4624310000000  0.5501610000000 1.0
C      1  0.4728890000000  0.4623590000000  0.5811290000000 1.0
C      1  0.4090480000000  0.4607850000000  0.4964020000000 1.0
C      1  0.5442370000000  0.4719320000000  0.5853960000000 1.0
C      1  0.4292810000000  0.4693060000000  0.5704580000000 1.0
C      1  0.4255530000000  0.4720510000000  0.4540510000000 1.0
C      1  0.5198160000000  0.4665950000000  0.4093010000000 1.0
C      1  0.5856680000000  0.4732630000000  0.4923040000000 1.0
C      1  0.5436440000000  0.4920210000000  0.5307520000000 1.0
C      1  0.4791310000000  0.4935530000000  0.5538100000000 1.0
C      1  0.4444660000000  0.4967900000000  0.5007740000000 1.0
C      1  0.4798220000000  0.4931860000000  0.4506850000000 1.0
C      1  0.5374820000000  0.4961280000000  0.4717670000000 1.0
C      1  0.4777950000000  0.5471640000000  0.4988920000000 1.0
C      1  0.4913450000000  0.5578490000000  0.4732190000000 1.0
C      1  0.5213690000000  0.5526160000000  0.4793850000000 1.0
C      1  0.5231280000000  0.5462650000000  0.5089840000000 1.0
C      1  0.4957260000000  0.5542850000000  0.5239100000000 1.0
C      1  0.5413210000000  0.4437280000000  0.5810560000000 1.0
C      1  0.4360630000000  0.4424570000000  0.5635940000000 1.0
C      1  0.4321120000000  0.4444030000000  0.4563070000000 1.0
C      1  0.5153370000000  0.4450810000000  0.4271670000000 1.0
C      1  0.5842400000000  0.4449630000000  0.4935690000000 1.0
C      1  0.4724340000000  0.4159220000000  0.4523890000000 1.0
C      1  0.5471090000000  0.4134910000000  0.4596180000000 1.0
C      1  0.5585540000000  0.4075690000000  0.5291680000000 1.0
C      1  0.4921190000000  0.4125410000000  0.5635930000000 1.0
C      1  0.4438790000000  0.4174330000000  0.5089470000000 1.0
C      1  0.4153080000000  0.5226470000000  0.5095190000000 1.0
C      1  0.4731960000000  0.5286770000000  0.4182950000000 1.0
C      1  0.5724580000000  0.5260860000000  0.4501040000000 1.0
C      1  0.5735530000000  0.5228300000000  0.5431920000000 1.0
C      1  0.4752470000000  0.5248290000000  0.5783860000000 1.0
C      1  0.5132280000000  0.4425240000000  0.5250580000000 1.0
C      1  0.4821740000000  0.4402910000000  0.5119340000000 1.0
C      1  0.4817720000000  0.4340240000000  0.4797340000000 1.0
C      1  0.5133740000000  0.4311120000000  0.4740970000000 1.0
C      1  0.5279860000000  0.4472370000000  0.4950420000000 1.0
C      1  0.4887000000000  0.4742230000000  0.4761920000000 1.0
C      1  0.5184760000000  0.4763870000000  0.4865830000000 1.0
C      1  0.5187280000000  0.4760750000000  0.5206090000000 1.0
C      1  0.4860070000000  0.4714320000000  0.5287820000000 1.0
C      1  0.4685240000000  0.4756940000000  0.4999160000000 1.0
C      1  0.4644690000000  0.5178960000000  0.5105630000000 1.0
C      1  0.4776570000000  0.5128100000000  0.4733290000000 1.0
C      1  0.5181650000000  0.5195440000000  0.4741390000000 1.0
C      1  0.5315690000000  0.5133790000000  0.5112150000000 1.0
C      1  0.5002730000000  0.5081750000000  0.5355370000000 1.0
C      1  0.5389370000000  0.5772820000000  0.5701760000000 1.0
C      1  0.4424540000000  0.5783000000000  0.5610800000000 1.0
C      1  0.4240120000000  0.5793310000000  0.4643560000000 1.0
C      1  0.5069290000000  0.5777690000000  0.4171590000000 1.0
C      1  0.5782940000000  0.5720940000000  0.4804270000000 1.0
C      1  0.4887240000000  0.4001380000000  0.4780180000000 1.0
C      1  0.5228470000000  0.4009960000000  0.4801770000000 1.0
C      1  0.5290320000000  0.4012960000000  0.5134050000000 1.0
C      1  0.5013860000000  0.4110220000000  0.5307700000000 1.0
C      1  0.4755860000000  0.4072840000000  0.5086490000000 1.0
C      1  0.4629080000000  0.5007250000000  0.4272960000000 1.0
C      1  0.5560070000000  0.4996740000000  0.4445930000000 1.0
C      1  0.5771740000000  0.4941670000000  0.5285390000000 1.0
C      1  0.4911620000000  0.4974050000000  0.5854800000000 1.0
C      1  0.4172430000000  0.4920540000000  0.5197520000000 1.0
C      1  0.4661110000000  0.5894330000000  0.5686670000000 1.0
C      1  0.4256110000000  0.5836750000000  0.4911150000000 1.0
C      1  0.4844880000000  0.5912570000000  0.4244600000000 1.0
C      1  0.5622830000000  0.5839180000000  0.4620170000000 1.0
C      1  0.5532150000000  0.5769210000000  0.5471110000000 1.0
C      1  0.4825200000000  0.5440260000000  0.4461550000000 1.0
C      1  0.5481500000000  0.5446640000000  0.4639990000000 1.0
C      1  0.5335880000000  0.5421370000000  0.5387470000000 1.0
C      1  0.4856300000000  0.5415540000000  0.5517410000000 1.0
C      1  0.4448910000000  0.5477120000000  0.4930100000000 1.0
C      1  0.4857750000000  0.4502070000000  0.5529080000000 1.0
C      1  0.4428960000000  0.4571230000000  0.5050730000000 1.0
C      1  0.4830470000000  0.4556550000000  0.4482740000000 1.0
C      1  0.5532250000000  0.4529380000000  0.4592410000000 1.0
C      1  0.5492000000000  0.4436250000000  0.5422200000000 1.0
C      1  0.4204960000000  0.5365050000000  0.5339150000000 1.0
C      1  0.4503400000000  0.5452150000000  0.4375210000000 1.0
C      1  0.5481870000000  0.5386120000000  0.4303170000000 1.0
C      1  0.5836030000000  0.5350290000000  0.5184720000000 1.0
C      1  0.5039240000000  0.5424570000000  0.5799230000000 1.0
C      1  0.4455720000000  0.5166350000000  0.5733040000000 1.0
C      1  0.4164300000000  0.5167860000000  0.4805000000000 1.0
C      1  0.4979670000000  0.5091790000000  0.4088380000000 1.0
C      1  0.5936020000000  0.5203890000000  0.4721850000000 1.0
C      1  0.5568700000000  0.5201280000000  0.5678730000000 1.0
C      1  0.4962310000000  0.4807690000000  0.4042350000000 1.0
C      1  0.5699550000000  0.4979090000000  0.4819170000000 1.0
C      1  0.5564280000000  0.4883990000000  0.5621440000000 1.0
C      1  0.4541410000000  0.4858810000000  0.5759240000000 1.0
C      1  0.4198410000000  0.4844190000000  0.4806520000000 1.0
C      1  0.5558560000000  0.4530880000000  0.4195230000000 1.0
C      1  0.5929610000000  0.4635190000000  0.5303140000000 1.0
C      1  0.4971440000000  0.4678620000000  0.6020740000000 1.0
C      1  0.4036530000000  0.4622240000000  0.5291490000000 1.0
C      1  0.4450280000000  0.4771690000000  0.4101000000000 1.0
C      1  0.4435550000000  0.5829780000000  0.5113660000000 1.0
C      1  0.4677090000000  0.5904230000000  0.4471740000000 1.0
C      1  0.5357180000000  0.5825470000000  0.4571990000000 1.0
C      1  0.5485500000000  0.5747940000000  0.5205530000000 1.0
C      1  0.4925800000000  0.5871870000000  0.5591790000000 1.0
C      1  0.4624130000000  0.4281900000000  0.5641630000000 1.0
C      1  0.4357700000000  0.4350690000000  0.4818510000000 1.0
C      1  0.4898690000000  0.4292530000000  0.4278400000000 1.0
C      1  0.5673760000000  0.4324550000000  0.4752700000000 1.0
C      1  0.5502590000000  0.4180190000000  0.5606450000000 1.0
C      1  0.4954800000000  0.5852010000000  0.5283560000000 1.0
C      1  0.4712560000000  0.5939740000000  0.5059290000000 1.0
C      1  0.4826620000000  0.5884590000000  0.4742460000000 1.0
C      1  0.5164270000000  0.5922340000000  0.4772130000000 1.0
C      1  0.5242200000000  0.5886520000000  0.5102160000000 1.0
C      1  0.5541070000000  0.5263000000000  0.4920210000000 1.0
C      1  0.5208430000000  0.5211470000000  0.5507610000000 1.0
C      1  0.4602820000000  0.5386860000000  0.5336530000000 1.0
C      1  0.4539150000000  0.5278680000000  0.4732870000000 1.0
C      1  0.5121950000000  0.5330660000000  0.4458290000000 1.0
C      1  0.4468250000000  0.4294410000000  0.4374270000000 1.0
C      1  0.5266760000000  0.4471010000000  0.4526310000000 1.0
C      1  0.5498050000000  0.4352860000000  0.5110830000000 1.0
C      1  0.5155740000000  0.4370120000000  0.5628390000000 1.0
C      1  0.4391790000000  0.4393860000000  0.5338460000000 1.0
C      1  0.4977500000000  0.5126890000000  0.5015190000000 1.0
C      1  0.5002360000000  0.6109660000000  0.5005510000000 1.0
END
