TITL C-2782231-7322-108 0.00158149780716385 125000 -726.609999356878 0 0 116 (C1) n - 1
REM
REM in /home/nfs/bkarasulu/CARBON/AIRSS/Generating-Clusters/REBO/Higher-Symm/SD-CG/HFTN-CG
REM
REM
REM
REM
REM
REM ./C.cell (12c818d87b63d06a65506943cc24bca4)
REM
REM compiler GCC version 9.2.1 20190827 (Red Hat 9.2.1-1)
REM options -cpp -mtune=generic -march=x86-64 -g -O0 -fpre-include=/usr/include/finclude/math-vector-fortran.h
REM seed -222191928 329333427 -141132274 -1158671088 -391915437 -20718592 1302140042 2036668093 1212131876 -2013044852 1096686127 -1721225381 219281085 -162120872 -1983517282 1155596247 1545502627 -2135389689 1219167514 -1995229521 929979775 1999742232 -2087848210 -2032266350 -1965939706 -23997169 -380239454 -533042328 -1981772041 1853626729 1582544479 -1518279391 -244947275
REM
CELL 1.54180   50.00000   50.00000   50.00000   90.00000   90.00000   90.00000
LATT -1
SFAC C  
C      1  0.4514100000000  0.5679710000000  0.5356750000000 1.0
C      1  0.5479080000000  0.5675960000000  0.5343460000000 1.0
C      1  0.5772260000000  0.4741580000000  0.5340360000000 1.0
C      1  0.4990390000000  0.4202380000000  0.5345170000000 1.0
C      1  0.4227720000000  0.4768200000000  0.5337240000000 1.0
C      1  0.4752230000000  0.5733340000000  0.5513060000000 1.0
C      1  0.5583790000000  0.5442400000000  0.5487240000000 1.0
C      1  0.5617740000000  0.4555170000000  0.5501750000000 1.0
C      1  0.4766570000000  0.4291850000000  0.5506610000000 1.0
C      1  0.4253170000000  0.5007710000000  0.5494820000000 1.0
C      1  0.4835780000000  0.4813060000000  0.5490310000000 1.0
C      1  0.4768500000000  0.5126310000000  0.5466180000000 1.0
C      1  0.5024660000000  0.5325310000000  0.5391640000000 1.0
C      1  0.5332150000000  0.5013540000000  0.5462210000000 1.0
C      1  0.5141430000000  0.4751010000000  0.5457990000000 1.0
C      1  0.5248260000000  0.5004690000000  0.5858610000000 1.0
C      1  0.5074910000000  0.4774180000000  0.5879320000000 1.0
C      1  0.4800390000000  0.4867710000000  0.5884710000000 1.0
C      1  0.4805310000000  0.5155320000000  0.5878760000000 1.0
C      1  0.5079310000000  0.5238480000000  0.5865010000000 1.0
C      1  0.5739180000000  0.4319380000000  0.4622670000000 1.0
C      1  0.4562430000000  0.4170890000000  0.4629440000000 1.0
C      1  0.4015910000000  0.5163830000000  0.4616650000000 1.0
C      1  0.4810680000000  0.5962640000000  0.4630750000000 1.0
C      1  0.5859880000000  0.5494250000000  0.4625350000000 1.0
C      1  0.5154390000000  0.4472740000000  0.5741700000000 1.0
C      1  0.4547380000000  0.4698840000000  0.5737360000000 1.0
C      1  0.4562120000000  0.5336940000000  0.5730400000000 1.0
C      1  0.5161370000000  0.5517610000000  0.5711500000000 1.0
C      1  0.5554070000000  0.4976120000000  0.5721390000000 1.0
C      1  0.5227520000000  0.4425710000000  0.4444190000000 1.0
C      1  0.4535880000000  0.4648360000000  0.4452180000000 1.0
C      1  0.4532660000000  0.5297520000000  0.4511930000000 1.0
C      1  0.5137340000000  0.5545820000000  0.4508880000000 1.0
C      1  0.5600850000000  0.5038730000000  0.4483250000000 1.0
C      1  0.5252750000000  0.5186540000000  0.4809580000000 1.0
C      1  0.5248500000000  0.4849360000000  0.4817800000000 1.0
C      1  0.4950970000000  0.4695300000000  0.4796270000000 1.0
C      1  0.4698750000000  0.4889870000000  0.4828510000000 1.0
C      1  0.4940880000000  0.5131520000000  0.4888850000000 1.0
C      1  0.5087690000000  0.5224120000000  0.4527770000000 1.0
C      1  0.5286150000000  0.4949170000000  0.4496040000000 1.0
C      1  0.5073770000000  0.4700770000000  0.4494460000000 1.0
C      1  0.4791620000000  0.4840090000000  0.4442310000000 1.0
C      1  0.4803270000000  0.5126650000000  0.4515020000000 1.0
C      1  0.5770080000000  0.5272620000000  0.5344600000000 1.0
C      1  0.5495820000000  0.4342940000000  0.5349480000000 1.0
C      1  0.4532390000000  0.4349350000000  0.5353250000000 1.0
C      1  0.4205820000000  0.5253200000000  0.5354860000000 1.0
C      1  0.4971910000000  0.5847910000000  0.5362230000000 1.0
C      1  0.4845340000000  0.5475970000000  0.5644320000000 1.0
C      1  0.5366800000000  0.5302160000000  0.5597000000000 1.0
C      1  0.5402300000000  0.4683240000000  0.5671130000000 1.0
C      1  0.4836030000000  0.4529400000000  0.5675930000000 1.0
C      1  0.4508340000000  0.5012700000000  0.5653870000000 1.0
C      1  0.5803030000000  0.5418650000000  0.5090990000000 1.0
C      1  0.5632040000000  0.4362780000000  0.5086860000000 1.0
C      1  0.4597900000000  0.4268130000000  0.5085370000000 1.0
C      1  0.4095910000000  0.5161500000000  0.5094700000000 1.0
C      1  0.4853040000000  0.5901050000000  0.5099060000000 1.0
C      1  0.5281240000000  0.5305690000000  0.5187610000000 1.0
C      1  0.5408490000000  0.4850210000000  0.5177890000000 1.0
C      1  0.5095050000000  0.4575870000000  0.5209920000000 1.0
C      1  0.4631080000000  0.4846610000000  0.5217530000000 1.0
C      1  0.4755140000000  0.5322750000000  0.5186190000000 1.0
C      1  0.5817540000000  0.4752570000000  0.4820450000000 1.0
C      1  0.5009310000000  0.4171550000000  0.4818080000000 1.0
C      1  0.4199020000000  0.4767120000000  0.4809230000000 1.0
C      1  0.4503190000000  0.5652880000000  0.4842070000000 1.0
C      1  0.5465830000000  0.5687670000000  0.4833790000000 1.0
C      1  0.4566760000000  0.5126970000000  0.5023760000000 1.0
C      1  0.5023980000000  0.5440840000000  0.5009690000000 1.0
C      1  0.5489440000000  0.5106470000000  0.5005750000000 1.0
C      1  0.5314170000000  0.4583630000000  0.4986100000000 1.0
C      1  0.4820530000000  0.4600080000000  0.5079360000000 1.0
C      1  0.4738920000000  0.5063440000000  0.4116460000000 1.0
C      1  0.4958750000000  0.5260120000000  0.4143260000000 1.0
C      1  0.5229450000000  0.5128970000000  0.4143680000000 1.0
C      1  0.5208780000000  0.4833050000000  0.4122270000000 1.0
C      1  0.4902650000000  0.4771570000000  0.4124710000000 1.0
C      1  0.5422680000000  0.5504840000000  0.4400940000000 1.0
C      1  0.5624100000000  0.4741150000000  0.4382660000000 1.0
C      1  0.4942730000000  0.4309480000000  0.4365980000000 1.0
C      1  0.4334640000000  0.4867500000000  0.4358550000000 1.0
C      1  0.4654790000000  0.5556790000000  0.4404760000000 1.0
C      1  0.4130640000000  0.5293520000000  0.4843340000000 1.0
C      1  0.4986080000000  0.5908390000000  0.4847550000000 1.0
C      1  0.5874260000000  0.5307190000000  0.4838920000000 1.0
C      1  0.5557970000000  0.4259760000000  0.4833320000000 1.0
C      1  0.4488390000000  0.4345890000000  0.4839850000000 1.0
C      1  0.4474890000000  0.4640400000000  0.4764870000000 1.0
C      1  0.4427300000000  0.5348450000000  0.4807090000000 1.0
C      1  0.5149560000000  0.5655590000000  0.4806900000000 1.0
C      1  0.5720190000000  0.5046430000000  0.4785020000000 1.0
C      1  0.5266890000000  0.4333030000000  0.4760920000000 1.0
C      1  0.5786440000000  0.4622860000000  0.5074220000000 1.0
C      1  0.4884090000000  0.4175370000000  0.5073730000000 1.0
C      1  0.4134350000000  0.4862090000000  0.5072860000000 1.0
C      1  0.4580150000000  0.5772080000000  0.5088280000000 1.0
C      1  0.5602450000000  0.5645230000000  0.5079830000000 1.0
C      1  0.4610900000000  0.5762920000000  0.4596020000000 1.0
C      1  0.5604190000000  0.5614650000000  0.4590210000000 1.0
C      1  0.5778800000000  0.4597370000000  0.4578110000000 1.0
C      1  0.4842230000000  0.4153870000000  0.4582420000000 1.0
C      1  0.4129740000000  0.4907540000000  0.4562900000000 1.0
C      1  0.5757420000000  0.5006720000000  0.5451120000000 1.0
C      1  0.5235870000000  0.4286710000000  0.5467070000000 1.0
C      1  0.4389320000000  0.4568340000000  0.5465140000000 1.0
C      1  0.4375760000000  0.5455640000000  0.5470930000000 1.0
C      1  0.5222210000000  0.5741590000000  0.5462320000000 1.0
C      1  0.5451880000000  0.5246920000000  0.4288720000000 1.0
C      1  0.5387840000000  0.4646080000000  0.4256020000000 1.0
C      1  0.4761600000000  0.4497790000000  0.4246460000000 1.0
C      1  0.4491670000000  0.5090150000000  0.4269030000000 1.0
C      1  0.4911090000000  0.5499260000000  0.4297930000000 1.0
C      1  0.4936260000000  0.4971350000000  0.5139630000000 1.0
END
