TITL C-2782234-8014-1091 0.00161879815562554 125000 -315.538523529583 0 0 59 (C1) n - 1
REM
REM in /home/nfs/bkarasulu/CARBON/AIRSS/Generating-Clusters/REBO/Higher-Symm/SD-CG/HFTN-CG
REM
REM
REM
REM
REM
REM ./C.cell (12c818d87b63d06a65506943cc24bca4)
REM
REM compiler GCC version 9.2.1 20190827 (Red Hat 9.2.1-1)
REM options -cpp -mtune=generic -march=x86-64 -g -O0 -fpre-include=/usr/include/finclude/math-vector-fortran.h
REM seed -644912508 627917686 -397234657 -185326717 -217768687 -558081468 -106273913 -829831805 -505933318 -158208876 1051502006 -1793354093 -1698455662 -1519705784 875221565 970819042 -2069583202 -1426652464 -2000711492 1092928427 -2110385113 1612753337 946674967 999502315 -1001566795 -1402034224 841180536 -2038328185 -763765477 -542532161 -196606327 1729890354 1918279471
REM
CELL 1.54180   50.00000   50.00000   50.00000   90.00000   90.00000   90.00000
LATT -1
SFAC C  
C      1  0.4495400000000  0.5006740000000  0.5060120000000 1.0
C      1  0.5436370000000  0.4950610000000  0.5022600000000 1.0
C      1  0.5063400000000  0.4345590000000  0.5119520000000 1.0
C      1  0.4850890000000  0.4447130000000  0.4631860000000 1.0
C      1  0.5228560000000  0.5635250000000  0.4851840000000 1.0
C      1  0.4760580000000  0.5753780000000  0.5064700000000 1.0
C      1  0.4424940000000  0.5156310000000  0.4361930000000 1.0
C      1  0.5663700000000  0.5299980000000  0.5590110000000 1.0
C      1  0.4842710000000  0.4451640000000  0.5329130000000 1.0
C      1  0.5179950000000  0.4481570000000  0.4623910000000 1.0
C      1  0.5195400000000  0.5046920000000  0.4175230000000 1.0
C      1  0.4924890000000  0.4853960000000  0.5971610000000 1.0
C      1  0.5092610000000  0.5489140000000  0.5405140000000 1.0
C      1  0.4842480000000  0.5434020000000  0.4573710000000 1.0
C      1  0.5022600000000  0.4754570000000  0.5739790000000 1.0
C      1  0.5047690000000  0.4836680000000  0.4278300000000 1.0
C      1  0.4994330000000  0.4829300000000  0.4572230000000 1.0
C      1  0.4993750000000  0.4809310000000  0.5421420000000 1.0
C      1  0.5048680000000  0.4676290000000  0.4871480000000 1.0
C      1  0.4902010000000  0.4709900000000  0.5115730000000 1.0
C      1  0.5436810000000  0.4382710000000  0.4613810000000 1.0
C      1  0.4638230000000  0.4294940000000  0.5551010000000 1.0
C      1  0.4947450000000  0.4632990000000  0.4119840000000 1.0
C      1  0.5205150000000  0.4547450000000  0.5632380000000 1.0
C      1  0.4581710000000  0.5727520000000  0.5325240000000 1.0
C      1  0.5401980000000  0.5527330000000  0.4615000000000 1.0
C      1  0.5400930000000  0.5277960000000  0.4802080000000 1.0
C      1  0.4591350000000  0.5442370000000  0.5244000000000 1.0
C      1  0.4674160000000  0.4730120000000  0.4631460000000 1.0
C      1  0.5226790000000  0.4578740000000  0.5305460000000 1.0
C      1  0.5065990000000  0.5681020000000  0.5147600000000 1.0
C      1  0.4908960000000  0.5660810000000  0.4782390000000 1.0
C      1  0.4473290000000  0.5890000000000  0.5512570000000 1.0
C      1  0.5495600000000  0.5603970000000  0.4386980000000 1.0
C      1  0.5661320000000  0.4812000000000  0.5441550000000 1.0
C      1  0.4278820000000  0.4776610000000  0.4625540000000 1.0
C      1  0.4404000000000  0.4507830000000  0.5066310000000 1.0
C      1  0.5655140000000  0.4495610000000  0.5040560000000 1.0
C      1  0.4586750000000  0.5544410000000  0.4857350000000 1.0
C      1  0.5379010000000  0.5537890000000  0.5133710000000 1.0
C      1  0.4894440000000  0.5214640000000  0.5367380000000 1.0
C      1  0.5022880000000  0.5199190000000  0.4712420000000 1.0
C      1  0.5636930000000  0.4379910000000  0.4797900000000 1.0
C      1  0.4518940000000  0.4392510000000  0.5275280000000 1.0
C      1  0.5424710000000  0.5416100000000  0.5449290000000 1.0
C      1  0.4511210000000  0.5371770000000  0.4570100000000 1.0
C      1  0.5539810000000  0.5238310000000  0.5109970000000 1.0
C      1  0.4425660000000  0.5290770000000  0.5025400000000 1.0
C      1  0.5223410000000  0.5174970000000  0.5339340000000 1.0
C      1  0.4702140000000  0.5175030000000  0.4764340000000 1.0
C      1  0.5491080000000  0.4703700000000  0.5201940000000 1.0
C      1  0.4452930000000  0.4754500000000  0.4891920000000 1.0
C      1  0.4455780000000  0.4891370000000  0.4422330000000 1.0
C      1  0.5730180000000  0.5037340000000  0.5571060000000 1.0
C      1  0.4731580000000  0.4954970000000  0.5253050000000 1.0
C      1  0.5255910000000  0.4969770000000  0.4744610000000 1.0
C      1  0.4821800000000  0.5283540000000  0.5046210000000 1.0
C      1  0.5148920000000  0.5228670000000  0.5028640000000 1.0
C      1  0.4949970000000  0.4282010000000  0.4880160000000 1.0
END
