TITL C-2782231-7322-1228 -0.157147491906582 125000 -955.024174227192 0 0 165 (Ci) n - 1
REM
REM in /home/nfs/bkarasulu/CARBON/AIRSS/Generating-Clusters/REBO/Higher-Symm/SD-CG/HFTN-CG
REM
REM
REM
REM
REM
REM ./C.cell (12c818d87b63d06a65506943cc24bca4)
REM
REM compiler GCC version 9.2.1 20190827 (Red Hat 9.2.1-1)
REM options -cpp -mtune=generic -march=x86-64 -g -O0 -fpre-include=/usr/include/finclude/math-vector-fortran.h
REM seed -1968733816 -1969498959 1919832492 1827937420 -214372874 -1376036999 -1921655421 -939299918 -732634689 -646593659 1213090745 63684105 596430674 226258313 -2050044938 1903874457 383305893 -1902586849 25470864 941820424 1641683663 1294773105 1724503840 734297562 -934322356 -1610025139 -988517228 -1270386911 -1568085902 -2079429998 -2052725977 1636277403 -1242965354
REM
CELL 1.54180   50.00000   50.00000   50.00000   90.00000   90.00000   90.00000
LATT -1
SFAC C  
C      1  0.4409480000000  0.5629160000000  0.5691810000000 1.0
C      1  0.5592600000000  0.4375270000000  0.4311180000000 1.0
C      1  0.5339170000000  0.5997830000000  0.4766470000000 1.0
C      1  0.4662910000000  0.4006600000000  0.5236520000000 1.0
C      1  0.5172190000000  0.4174060000000  0.5094600000000 1.0
C      1  0.4829890000000  0.5830370000000  0.4908390000000 1.0
C      1  0.5498100000000  0.5824910000000  0.4589760000000 1.0
C      1  0.4503980000000  0.4179520000000  0.5413230000000 1.0
C      1  0.5270130000000  0.4130000000000  0.5473760000000 1.0
C      1  0.4731940000000  0.5874430000000  0.4529230000000 1.0
C      1  0.4881950000000  0.4279300000000  0.4296360000000 1.0
C      1  0.5120120000000  0.5725130000000  0.5706630000000 1.0
C      1  0.4826580000000  0.5124460000000  0.4262190000000 1.0
C      1  0.5175500000000  0.4879970000000  0.5740810000000 1.0
C      1  0.5400610000000  0.5521960000000  0.4923880000000 1.0
C      1  0.4601470000000  0.4482470000000  0.5079110000000 1.0
C      1  0.4834600000000  0.4527960000000  0.5897960000000 1.0
C      1  0.5167480000000  0.5476460000000  0.4105030000000 1.0
C      1  0.5447740000000  0.5012170000000  0.4012980000000 1.0
C      1  0.4554330000000  0.4992260000000  0.5990020000000 1.0
C      1  0.5117020000000  0.5614700000000  0.5258070000000 1.0
C      1  0.4885050000000  0.4389730000000  0.4744920000000 1.0
C      1  0.5706450000000  0.4946030000000  0.5432350000000 1.0
C      1  0.4295630000000  0.5058400000000  0.4570640000000 1.0
C      1  0.6042280000000  0.5503140000000  0.4911260000000 1.0
C      1  0.3959800000000  0.4501290000000  0.5091740000000 1.0
C      1  0.5401510000000  0.4341460000000  0.5240240000000 1.0
C      1  0.4600570000000  0.5662970000000  0.4762750000000 1.0
C      1  0.5691320000000  0.5074700000000  0.4146110000000 1.0
C      1  0.4310760000000  0.4929730000000  0.5856890000000 1.0
C      1  0.4129270000000  0.5542390000000  0.4831070000000 1.0
C      1  0.5872800000000  0.4462040000000  0.5171920000000 1.0
C      1  0.4621010000000  0.5589240000000  0.4371060000000 1.0
C      1  0.5381070000000  0.4415190000000  0.5631930000000 1.0
C      1  0.5101380000000  0.4484580000000  0.5467200000000 1.0
C      1  0.4900700000000  0.5519850000000  0.4535790000000 1.0
C      1  0.5378240000000  0.5672730000000  0.5554240000000 1.0
C      1  0.4623840000000  0.4331700000000  0.4448750000000 1.0
C      1  0.6030760000000  0.5023450000000  0.5352690000000 1.0
C      1  0.3971320000000  0.4980980000000  0.4650300000000 1.0
C      1  0.4323350000000  0.4743640000000  0.5661440000000 1.0
C      1  0.5678720000000  0.5260790000000  0.4341550000000 1.0
C      1  0.5717390000000  0.5237820000000  0.5703570000000 1.0
C      1  0.4284690000000  0.4766610000000  0.4299420000000 1.0
C      1  0.4890350000000  0.5564150000000  0.5881300000000 1.0
C      1  0.5111730000000  0.4440280000000  0.4121700000000 1.0
C      1  0.5947090000000  0.5555780000000  0.5433240000000 1.0
C      1  0.4054980000000  0.4448650000000  0.4569750000000 1.0
C      1  0.4013540000000  0.5260340000000  0.4801150000000 1.0
C      1  0.5988540000000  0.4744090000000  0.5201840000000 1.0
C      1  0.4181730000000  0.4604960000000  0.5403690000000 1.0
C      1  0.5820340000000  0.5399470000000  0.4599300000000 1.0
C      1  0.5190290000000  0.5336350000000  0.5756650000000 1.0
C      1  0.4811780000000  0.4668070000000  0.4246350000000 1.0
C      1  0.5662140000000  0.4858400000000  0.4512630000000 1.0
C      1  0.4339930000000  0.5146030000000  0.5490370000000 1.0
C      1  0.4549480000000  0.4844660000000  0.4113840000000 1.0
C      1  0.5452600000000  0.5159770000000  0.5889160000000 1.0
C      1  0.5750010000000  0.4790620000000  0.4985670000000 1.0
C      1  0.4252070000000  0.5213810000000  0.5017320000000 1.0
C      1  0.5899280000000  0.4583230000000  0.4672520000000 1.0
C      1  0.4102800000000  0.5421200000000  0.5330480000000 1.0
C      1  0.5161500000000  0.5334410000000  0.6096170000000 1.0
C      1  0.4840580000000  0.4670020000000  0.3906820000000 1.0
C      1  0.5769950000000  0.4395280000000  0.4882180000000 1.0
C      1  0.4232120000000  0.5609140000000  0.5120810000000 1.0
C      1  0.5301500000000  0.4025220000000  0.4862930000000 1.0
C      1  0.4700580000000  0.5979210000000  0.5140070000000 1.0
C      1  0.4694180000000  0.5205150000000  0.5158220000000 1.0
C      1  0.5307890000000  0.4799280000000  0.4844770000000 1.0
C      1  0.5953150000000  0.5300370000000  0.5533910000000 1.0
C      1  0.4048930000000  0.4704060000000  0.4469080000000 1.0
C      1  0.5667900000000  0.4915480000000  0.5809680000000 1.0
C      1  0.4334180000000  0.5088950000000  0.4193320000000 1.0
C      1  0.4264400000000  0.4305110000000  0.5312110000000 1.0
C      1  0.5737670000000  0.5699320000000  0.4690880000000 1.0
C      1  0.5802410000000  0.5757830000000  0.5292220000000 1.0
C      1  0.4199660000000  0.4246600000000  0.4710770000000 1.0
C      1  0.5314320000000  0.4880060000000  0.5254700000000 1.0
C      1  0.4687760000000  0.5124370000000  0.4748290000000 1.0
C      1  0.4004460000000  0.4813690000000  0.5225880000000 1.0
C      1  0.5997620000000  0.5190730000000  0.4777110000000 1.0
C      1  0.5445110000000  0.4387510000000  0.4775010000000 1.0
C      1  0.4556970000000  0.5616920000000  0.5227990000000 1.0
C      1  0.4222530000000  0.5445010000000  0.5611580000000 1.0
C      1  0.5779550000000  0.4559420000000  0.4391410000000 1.0
C      1  0.5071640000000  0.4884160000000  0.4036310000000 1.0
C      1  0.4930440000000  0.5120270000000  0.5966680000000 1.0
C      1  0.5103010000000  0.3996060000000  0.4657960000000 1.0
C      1  0.4899070000000  0.6008360000000  0.5345040000000 1.0
C      1  0.4951230000000  0.5114750000000  0.5327760000000 1.0
C      1  0.5050850000000  0.4889680000000  0.4675240000000 1.0
C      1  0.4667760000000  0.4344520000000  0.5662840000000 1.0
C      1  0.5334320000000  0.5659910000000  0.4340150000000 1.0
C      1  0.6024660000000  0.5245290000000  0.5111700000000 1.0
C      1  0.3977420000000  0.4759140000000  0.4891300000000 1.0
C      1  0.5339280000000  0.5369990000000  0.5211140000000 1.0
C      1  0.4662800000000  0.4634430000000  0.4791850000000 1.0
C      1  0.4835390000000  0.5503810000000  0.5137760000000 1.0
C      1  0.5166690000000  0.4500620000000  0.4865230000000 1.0
C      1  0.5219120000000  0.4999080000000  0.6045680000000 1.0
C      1  0.4782960000000  0.5005350000000  0.3957310000000 1.0
C      1  0.4583910000000  0.5271900000000  0.5628090000000 1.0
C      1  0.5418170000000  0.4732530000000  0.4374900000000 1.0
C      1  0.4671290000000  0.5309150000000  0.5941850000000 1.0
C      1  0.5330780000000  0.4695280000000  0.4061140000000 1.0
C      1  0.4379620000000  0.5349730000000  0.4407970000000 1.0
C      1  0.5622450000000  0.4654700000000  0.5595020000000 1.0
C      1  0.5373660000000  0.5355820000000  0.4423070000000 1.0
C      1  0.4628410000000  0.4648610000000  0.5579920000000 1.0
C      1  0.4485030000000  0.4675940000000  0.5304420000000 1.0
C      1  0.5517050000000  0.5328490000000  0.4698570000000 1.0
C      1  0.4952990000000  0.5274490000000  0.4714650000000 1.0
C      1  0.5049090000000  0.4729940000000  0.5288340000000 1.0
C      1  0.5537300000000  0.5018970000000  0.5080770000000 1.0
C      1  0.4464770000000  0.4985460000000  0.4922230000000 1.0
C      1  0.5121720000000  0.4566540000000  0.5784460000000 1.0
C      1  0.4880360000000  0.5437890000000  0.4218530000000 1.0
C      1  0.4703480000000  0.5575980000000  0.5528040000000 1.0
C      1  0.5298590000000  0.4428450000000  0.4474950000000 1.0
C      1  0.4564380000000  0.4672440000000  0.4474080000000 1.0
C      1  0.5437700000000  0.5331980000000  0.5528920000000 1.0
C      1  0.5525590000000  0.5822740000000  0.5334140000000 1.0
C      1  0.4476490000000  0.4181690000000  0.4668850000000 1.0
C      1  0.5130780000000  0.5674950000000  0.4862950000000 1.0
C      1  0.4871290000000  0.4329480000000  0.5140040000000 1.0
C      1  0.4993210000000  0.3994840000000  0.5321850000000 1.0
C      1  0.5008870000000  0.6009590000000  0.4681140000000 1.0
C      1  0.4721990000000  0.4756530000000  0.6010870000000 1.0
C      1  0.5280080000000  0.5247900000000  0.3992120000000 1.0
C      1  0.4400860000000  0.5902630000000  0.5167040000000 1.0
C      1  0.5601220000000  0.4101800000000  0.4835950000000 1.0
C      1  0.4327630000000  0.5579400000000  0.4634380000000 1.0
C      1  0.5674440000000  0.4425030000000  0.5368610000000 1.0
C      1  0.5141200000000  0.4150940000000  0.4416290000000 1.0
C      1  0.4860880000000  0.5853480000000  0.5586700000000 1.0
C      1  0.4852950000000  0.4095540000000  0.4765580000000 1.0
C      1  0.5149130000000  0.5908890000000  0.5237410000000 1.0
C      1  0.5712640000000  0.5477850000000  0.5022850000000 1.0
C      1  0.4289440000000  0.4526570000000  0.4980140000000 1.0
C      1  0.4290900000000  0.4780640000000  0.4776500000000 1.0
C      1  0.5711170000000  0.5223790000000  0.5226500000000 1.0
C      1  0.4618070000000  0.4031250000000  0.4940570000000 1.0
C      1  0.5384010000000  0.5973180000000  0.5062420000000 1.0
C      1  0.4998200000000  0.4593150000000  0.4515260000000 1.0
C      1  0.5003880000000  0.5411280000000  0.5487740000000 1.0
C      1  0.4884520000000  0.4801840000000  0.5567020000000 1.0
C      1  0.5117560000000  0.5202590000000  0.4435970000000 1.0
C      1  0.5111960000000  0.5736920000000  0.4541440000000 1.0
C      1  0.4890120000000  0.4267500000000  0.5461550000000 1.0
C      1  0.4846950000000  0.5091220000000  0.5657340000000 1.0
C      1  0.5155130000000  0.4913200000000  0.4345660000000 1.0
C      1  0.5469240000000  0.4627390000000  0.5092380000000 1.0
C      1  0.4532840000000  0.5377040000000  0.4910610000000 1.0
C      1  0.5073800000000  0.5310810000000  0.5005190000000 1.0
C      1  0.4928270000000  0.4693610000000  0.4997800000000 1.0
C      1  0.4124280000000  0.4227450000000  0.5018690000000 1.0
C      1  0.5877800000000  0.5776980000000  0.4984300000000 1.0
C      1  0.4478410000000  0.4973780000000  0.5243040000000 1.0
C      1  0.5523660000000  0.5030640000000  0.4759950000000 1.0
C      1  0.5380760000000  0.4990500000000  0.5535160000000 1.0
C      1  0.4621310000000  0.5013920000000  0.4467830000000 1.0
C      1  0.4097270000000  0.5092200000000  0.5267830000000 1.0
C      1  0.5904810000000  0.4912230000000  0.4735160000000 1.0
C      1  0.5001040000000  0.5002210000000  0.5001500000000 1.0
END
