TITL C-2782229-3092-605 0.00128510017411749 125000 -438.264103102988 0 0 73 (C1) n - 1
REM
REM in /home/nfs/bkarasulu/CARBON/AIRSS/Generating-Clusters/REBO/Higher-Symm/SD-CG/HFTN-CG
REM
REM
REM
REM
REM
REM ./C.cell (12c818d87b63d06a65506943cc24bca4)
REM
REM compiler GCC version 9.2.1 20190827 (Red Hat 9.2.1-1)
REM options -cpp -mtune=generic -march=x86-64 -g -O0 -fpre-include=/usr/include/finclude/math-vector-fortran.h
REM seed -1138464378 -1837072362 -1728074763 -2121239224 -1045514591 -874328403 1491228008 -1133130670 -1072133488 -698979559 149996452 -225635307 1687193319 785589228 -891523309 -1535270149 -439773313 1912585359 -2029370519 -386708354 -1651195925 1784371062 509758666 209826625 -993596962 -1899253345 2139304868 -120493891 -931316237 -557517782 -1913889173 -910754052 475014594
REM
CELL 1.54180   50.00000   50.00000   50.00000   90.00000   90.00000   90.00000
LATT -1
SFAC C  
C      1  0.5268100000000  0.5170840000000  0.4639100000000 1.0
C      1  0.4913000000000  0.5488070000000  0.4912010000000 1.0
C      1  0.4777130000000  0.4966330000000  0.4777880000000 1.0
C      1  0.4915310000000  0.4606600000000  0.4675950000000 1.0
C      1  0.5378630000000  0.4794930000000  0.4568340000000 1.0
C      1  0.5548340000000  0.4999740000000  0.5447990000000 1.0
C      1  0.5061970000000  0.5478050000000  0.5175280000000 1.0
C      1  0.4331670000000  0.5311610000000  0.5463370000000 1.0
C      1  0.4392780000000  0.4581130000000  0.5655770000000 1.0
C      1  0.5132720000000  0.4396270000000  0.5588660000000 1.0
C      1  0.4284060000000  0.5048000000000  0.4446030000000 1.0
C      1  0.4441720000000  0.4216890000000  0.4479440000000 1.0
C      1  0.5749830000000  0.4333070000000  0.4362270000000 1.0
C      1  0.5906200000000  0.5188010000000  0.4338970000000 1.0
C      1  0.5002840000000  0.6098400000000  0.4680050000000 1.0
C      1  0.5451960000000  0.5231010000000  0.5569550000000 1.0
C      1  0.4883210000000  0.5467920000000  0.5436060000000 1.0
C      1  0.4301800000000  0.5132040000000  0.5679260000000 1.0
C      1  0.4617890000000  0.4481260000000  0.5792110000000 1.0
C      1  0.5338770000000  0.4553430000000  0.5692550000000 1.0
C      1  0.4966790000000  0.5452580000000  0.5701780000000 1.0
C      1  0.4474090000000  0.5166120000000  0.5902480000000 1.0
C      1  0.4700360000000  0.4620210000000  0.6025160000000 1.0
C      1  0.5294520000000  0.4667490000000  0.5949270000000 1.0
C      1  0.5433080000000  0.5229910000000  0.5851790000000 1.0
C      1  0.4623380000000  0.4208740000000  0.4682470000000 1.0
C      1  0.5800660000000  0.4541720000000  0.4531820000000 1.0
C      1  0.5784770000000  0.5205280000000  0.4582590000000 1.0
C      1  0.4815500000000  0.5982680000000  0.4840870000000 1.0
C      1  0.4300170000000  0.4873360000000  0.4655220000000 1.0
C      1  0.5365380000000  0.5031680000000  0.4347500000000 1.0
C      1  0.5093800000000  0.5420570000000  0.4631580000000 1.0
C      1  0.4748220000000  0.5264020000000  0.4749160000000 1.0
C      1  0.4683850000000  0.4770820000000  0.4514520000000 1.0
C      1  0.5177850000000  0.4561060000000  0.4515260000000 1.0
C      1  0.5677870000000  0.4751110000000  0.4960280000000 1.0
C      1  0.5562230000000  0.5433410000000  0.4946590000000 1.0
C      1  0.4450750000000  0.5675210000000  0.4992820000000 1.0
C      1  0.4420210000000  0.4725730000000  0.5102010000000 1.0
C      1  0.4893690000000  0.4303580000000  0.5078400000000 1.0
C      1  0.4493680000000  0.4833290000000  0.4858630000000 1.0
C      1  0.4813830000000  0.4363130000000  0.4819560000000 1.0
C      1  0.5641580000000  0.4714230000000  0.4687000000000 1.0
C      1  0.5556240000000  0.5249830000000  0.4737110000000 1.0
C      1  0.4715590000000  0.5730800000000  0.4909040000000 1.0
C      1  0.4500890000000  0.4675750000000  0.4347980000000 1.0
C      1  0.5263370000000  0.4351620000000  0.4369380000000 1.0
C      1  0.5501780000000  0.5077710000000  0.4123460000000 1.0
C      1  0.5138410000000  0.5696450000000  0.4452580000000 1.0
C      1  0.4686220000000  0.5349620000000  0.4480980000000 1.0
C      1  0.4842930000000  0.4857910000000  0.6076020000000 1.0
C      1  0.5136180000000  0.4873940000000  0.6060590000000 1.0
C      1  0.5206150000000  0.5150220000000  0.5997630000000 1.0
C      1  0.4960590000000  0.5291630000000  0.5932860000000 1.0
C      1  0.4733230000000  0.5120830000000  0.6002000000000 1.0
C      1  0.5500880000000  0.4242520000000  0.4290120000000 1.0
C      1  0.5769180000000  0.5139830000000  0.4104670000000 1.0
C      1  0.5155060000000  0.5956140000000  0.4502400000000 1.0
C      1  0.4449720000000  0.5250570000000  0.4367680000000 1.0
C      1  0.4380710000000  0.4431360000000  0.4319000000000 1.0
C      1  0.5300170000000  0.5408080000000  0.5416080000000 1.0
C      1  0.4615810000000  0.5433090000000  0.5394430000000 1.0
C      1  0.4242210000000  0.4862940000000  0.5612010000000 1.0
C      1  0.4818030000000  0.4363870000000  0.5636160000000 1.0
C      1  0.5502300000000  0.4688800000000  0.5509490000000 1.0
C      1  0.5387280000000  0.5515740000000  0.5138050000000 1.0
C      1  0.4372520000000  0.5513730000000  0.5207340000000 1.0
C      1  0.4330960000000  0.4685840000000  0.5356150000000 1.0
C      1  0.4944260000000  0.4296670000000  0.5345750000000 1.0
C      1  0.5633960000000  0.4782420000000  0.5227070000000 1.0
C      1  0.4944700000000  0.5420330000000  0.4059520000000 1.0
C      1  0.5098610000000  0.4890690000000  0.4735870000000 1.0
C      1  0.4934170000000  0.5464470000000  0.4330940000000 1.0
END
