TITL C-2782238-9940-1331 -0.00155203047303136 125000 -673.165241956896 0 0 115 (C1) n - 1
REM
REM in /home/nfs/bkarasulu/CARBON/AIRSS/Generating-Clusters/REBO/Higher-Symm/SD-CG/HFTN-CG
REM
REM
REM
REM
REM
REM ./C.cell (12c818d87b63d06a65506943cc24bca4)
REM
REM compiler GCC version 9.2.1 20190827 (Red Hat 9.2.1-1)
REM options -cpp -mtune=generic -march=x86-64 -g -O0 -fpre-include=/usr/include/finclude/math-vector-fortran.h
REM seed -553443351 -2027686575 1446039853 -214894734 -60810861 -1725133424 613761536 -1159242513 994188981 472184286 1782838875 -1709013208 -1080303593 -1577600524 1496472133 -1355572363 -1019073101 -1455158362 -1695797568 1480127876 213228878 -574222823 -1546118541 889292186 174327317 1003380997 -1040827204 1250539034 1972238184 -1495496271 665228673 -24647322 -1934727759
REM
CELL 1.54180   50.00000   50.00000   50.00000   90.00000   90.00000   90.00000
LATT -1
SFAC C  
C      1  0.4417340000000  0.5639080000000  0.5242040000000 1.0
C      1  0.4426170000000  0.4514330000000  0.5390090000000 1.0
C      1  0.4406470000000  0.4915090000000  0.4370940000000 1.0
C      1  0.4786380000000  0.4104570000000  0.4882390000000 1.0
C      1  0.4740600000000  0.5545930000000  0.4217450000000 1.0
C      1  0.4751310000000  0.5404450000000  0.5857810000000 1.0
C      1  0.4703590000000  0.5705190000000  0.4482250000000 1.0
C      1  0.4710300000000  0.5097770000000  0.5841380000000 1.0
C      1  0.4742640000000  0.4245050000000  0.4613610000000 1.0
C      1  0.5478480000000  0.4068930000000  0.4761480000000 1.0
C      1  0.5455960000000  0.5623290000000  0.4388210000000 1.0
C      1  0.5459120000000  0.5210080000000  0.5873550000000 1.0
C      1  0.4908920000000  0.4670370000000  0.5005570000000 1.0
C      1  0.4814820000000  0.5181320000000  0.4740770000000 1.0
C      1  0.4880470000000  0.5177400000000  0.5250050000000 1.0
C      1  0.5323480000000  0.4345400000000  0.5623860000000 1.0
C      1  0.5263430000000  0.4695930000000  0.4191960000000 1.0
C      1  0.5338960000000  0.5883310000000  0.5228810000000 1.0
C      1  0.5444700000000  0.5045060000000  0.5292950000000 1.0
C      1  0.5450230000000  0.4760830000000  0.4887070000000 1.0
C      1  0.5397940000000  0.5272040000000  0.4813470000000 1.0
C      1  0.5221990000000  0.5225820000000  0.4191450000000 1.0
C      1  0.5237290000000  0.5608510000000  0.5666690000000 1.0
C      1  0.5235460000000  0.4126330000000  0.5172780000000 1.0
C      1  0.5693340000000  0.5205030000000  0.4479530000000 1.0
C      1  0.5689850000000  0.5364670000000  0.5464130000000 1.0
C      1  0.5699000000000  0.4396210000000  0.5068590000000 1.0
C      1  0.5546330000000  0.5618920000000  0.5219780000000 1.0
C      1  0.5509560000000  0.4501910000000  0.5399340000000 1.0
C      1  0.5449430000000  0.4917480000000  0.4358810000000 1.0
C      1  0.5112610000000  0.4966510000000  0.4107510000000 1.0
C      1  0.5124510000000  0.5836640000000  0.5475110000000 1.0
C      1  0.5100480000000  0.4178150000000  0.5449870000000 1.0
C      1  0.5056880000000  0.4136770000000  0.4946200000000 1.0
C      1  0.4999620000000  0.5432710000000  0.4221770000000 1.0
C      1  0.5017210000000  0.5452780000000  0.5780060000000 1.0
C      1  0.5348910000000  0.4706570000000  0.5613620000000 1.0
C      1  0.5547820000000  0.4604080000000  0.4365190000000 1.0
C      1  0.5345220000000  0.5688970000000  0.4947300000000 1.0
C      1  0.5416390000000  0.4760350000000  0.5197420000000 1.0
C      1  0.5426880000000  0.4989820000000  0.4685780000000 1.0
C      1  0.5435950000000  0.5309640000000  0.5116260000000 1.0
C      1  0.5106880000000  0.5224790000000  0.4660350000000 1.0
C      1  0.5160750000000  0.5198590000000  0.5378440000000 1.0
C      1  0.5195200000000  0.4577370000000  0.4923690000000 1.0
C      1  0.4848020000000  0.5876840000000  0.4951380000000 1.0
C      1  0.4843560000000  0.4606470000000  0.5762850000000 1.0
C      1  0.4861310000000  0.4525640000000  0.4356760000000 1.0
C      1  0.5156410000000  0.4950770000000  0.4503660000000 1.0
C      1  0.5226950000000  0.5503550000000  0.5280940000000 1.0
C      1  0.5199080000000  0.4514960000000  0.5258050000000 1.0
C      1  0.4946680000000  0.4753240000000  0.4533620000000 1.0
C      1  0.4992300000000  0.5696330000000  0.5200160000000 1.0
C      1  0.4981570000000  0.4489560000000  0.5485210000000 1.0
C      1  0.4828380000000  0.4945530000000  0.4087500000000 1.0
C      1  0.4795160000000  0.5920730000000  0.5461140000000 1.0
C      1  0.4770570000000  0.4156180000000  0.5529220000000 1.0
C      1  0.4699650000000  0.4492320000000  0.4852350000000 1.0
C      1  0.4612300000000  0.5405870000000  0.4618420000000 1.0
C      1  0.4659150000000  0.5163560000000  0.5507980000000 1.0
C      1  0.4643630000000  0.5884700000000  0.5176090000000 1.0
C      1  0.4626800000000  0.4423320000000  0.5650210000000 1.0
C      1  0.4665950000000  0.4728280000000  0.4250880000000 1.0
C      1  0.4541550000000  0.5537660000000  0.5735240000000 1.0
C      1  0.4570190000000  0.4159950000000  0.5044230000000 1.0
C      1  0.4521620000000  0.5377980000000  0.4175100000000 1.0
C      1  0.4433130000000  0.4954380000000  0.5844510000000 1.0
C      1  0.4480890000000  0.4246890000000  0.4452120000000 1.0
C      1  0.4418100000000  0.5768930000000  0.4605150000000 1.0
C      1  0.5090110000000  0.5583470000000  0.4832430000000 1.0
C      1  0.5097070000000  0.4858490000000  0.5577370000000 1.0
C      1  0.5255080000000  0.4441350000000  0.4417190000000 1.0
C      1  0.4391640000000  0.4818990000000  0.5634320000000 1.0
C      1  0.4353530000000  0.4465020000000  0.4471500000000 1.0
C      1  0.4370320000000  0.5660530000000  0.4828700000000 1.0
C      1  0.4423840000000  0.4469760000000  0.5050350000000 1.0
C      1  0.4382610000000  0.5244570000000  0.4454960000000 1.0
C      1  0.4420860000000  0.5381340000000  0.5465250000000 1.0
C      1  0.5786400000000  0.4664040000000  0.5077240000000 1.0
C      1  0.5809230000000  0.5097920000000  0.4723650000000 1.0
C      1  0.5803140000000  0.5209950000000  0.5234890000000 1.0
C      1  0.5499270000000  0.4183260000000  0.5032680000000 1.0
C      1  0.5474420000000  0.5333920000000  0.4333250000000 1.0
C      1  0.5483190000000  0.5424070000000  0.5670690000000 1.0
C      1  0.4930560000000  0.5818570000000  0.4647100000000 1.0
C      1  0.4930020000000  0.4890820000000  0.5870210000000 1.0
C      1  0.4993480000000  0.4228670000000  0.4419360000000 1.0
C      1  0.5246610000000  0.5783490000000  0.4523960000000 1.0
C      1  0.5247810000000  0.5005020000000  0.5918280000000 1.0
C      1  0.5264350000000  0.4071010000000  0.4555240000000 1.0
C      1  0.4319060000000  0.5354450000000  0.5081020000000 1.0
C      1  0.4320300000000  0.4803190000000  0.5243500000000 1.0
C      1  0.4288690000000  0.4936830000000  0.4691400000000 1.0
C      1  0.4299110000000  0.5114600000000  0.5299940000000 1.0
C      1  0.4226070000000  0.4729010000000  0.4953200000000 1.0
C      1  0.4282650000000  0.5247490000000  0.4780310000000 1.0
C      1  0.4597990000000  0.5450910000000  0.4939650000000 1.0
C      1  0.4615380000000  0.4866240000000  0.5384750000000 1.0
C      1  0.4476610000000  0.4665100000000  0.4672100000000 1.0
C      1  0.4726040000000  0.4863360000000  0.4707660000000 1.0
C      1  0.4871080000000  0.5434560000000  0.5049310000000 1.0
C      1  0.4888390000000  0.4757130000000  0.5325970000000 1.0
C      1  0.5773980000000  0.4597430000000  0.4537190000000 1.0
C      1  0.5624660000000  0.5526000000000  0.4842400000000 1.0
C      1  0.5633000000000  0.4836680000000  0.5575320000000 1.0
C      1  0.5764130000000  0.4798020000000  0.4782650000000 1.0
C      1  0.5796790000000  0.5285160000000  0.4947430000000 1.0
C      1  0.5775800000000  0.4899860000000  0.5293330000000 1.0
C      1  0.4562990000000  0.5090980000000  0.4133640000000 1.0
C      1  0.4551670000000  0.5751270000000  0.5535060000000 1.0
C      1  0.4550560000000  0.4210690000000  0.5327150000000 1.0
C      1  0.5194470000000  0.4349100000000  0.4739820000000 1.0
C      1  0.5099380000000  0.5487040000000  0.4503720000000 1.0
C      1  0.5113530000000  0.5185440000000  0.5675950000000 1.0
C      1  0.4817420000000  0.4992780000000  0.5011090000000 1.0
END
