TITL C-2782225-7408-855 -0.0205138394628265 125000 -96.6432085263471 0 0 18 (C1) n - 1
REM
REM in /home/nfs/bkarasulu/CARBON/AIRSS/Generating-Clusters/REBO/Higher-Symm/SD-CG/HFTN-CG
REM
REM
REM
REM
REM
REM ./C.cell (12c818d87b63d06a65506943cc24bca4)
REM
REM compiler GCC version 9.2.1 20190827 (Red Hat 9.2.1-1)
REM options -cpp -mtune=generic -march=x86-64 -g -O0 -fpre-include=/usr/include/finclude/math-vector-fortran.h
REM seed -1099997667 722921012 -2021360039 18604331 -991504306 1149344917 61411272 -2049485392 603235864 2014714075 -1362736167 252069923 1601724518 1999527350 -600629611 1025493057 -1871266789 -859466634 -1624720966 1530684485 1388342921 -1144260865 -953264374 -544599416 1907410830 -1902856766 -664225772 1628465251 1936327757 -1283808014 -571010979 -708642170 1785088334
REM
CELL 1.54180   50.00000   50.00000   50.00000   90.00000   90.00000   90.00000
LATT -1
SFAC C  
C      1  0.4503250000000  0.4678340000000  0.4847520000000 1.0
C      1  0.4502800000000  0.5124740000000  0.4658200000000 1.0
C      1  0.4459930000000  0.5370330000000  0.5123340000000 1.0
C      1  0.4460470000000  0.4841960000000  0.5347440000000 1.0
C      1  0.5437690000000  0.5328710000000  0.4871910000000 1.0
C      1  0.5409360000000  0.4881820000000  0.4682660000000 1.0
C      1  0.5437680000000  0.4688650000000  0.5134580000000 1.0
C      1  0.5466010000000  0.5135540000000  0.5323830000000 1.0
C      1  0.4575810000000  0.5120510000000  0.5268980000000 1.0
C      1  0.4620610000000  0.4768510000000  0.5089990000000 1.0
C      1  0.4447480000000  0.4853730000000  0.4640280000000 1.0
C      1  0.4620140000000  0.5236580000000  0.4891480000000 1.0
C      1  0.5530960000000  0.4863810000000  0.5331390000000 1.0
C      1  0.5299430000000  0.5228160000000  0.5105720000000 1.0
C      1  0.5489160000000  0.5149040000000  0.4664100000000 1.0
C      1  0.5272210000000  0.4798680000000  0.4923850000000 1.0
C      1  0.4821060000000  0.5027930000000  0.5050100000000 1.0
C      1  0.5108710000000  0.5018950000000  0.5028240000000 1.0
END
