TITL C-2782237-5345-488 -46.6667210663329 125000 -941.26756358463 0 0 162 (C1) n - 1
REM
REM in /home/nfs/bkarasulu/CARBON/AIRSS/Generating-Clusters/REBO/Higher-Symm/SD-CG/HFTN-CG
REM
REM
REM
REM
REM
REM ./C.cell (12c818d87b63d06a65506943cc24bca4)
REM
REM compiler GCC version 9.2.1 20190827 (Red Hat 9.2.1-1)
REM options -cpp -mtune=generic -march=x86-64 -g -O0 -fpre-include=/usr/include/finclude/math-vector-fortran.h
REM seed -101609861 2126296823 1768066031 1475043384 685361219 1998652705 -1459972837 115981198 -673087769 902174100 -666529786 2046320047 1235689310 -357709139 -1918817085 30800168 -185349134 1584856528 -1157966288 -1798804440 -68222977 111393114 1024288304 1657740433 22293123 265253597 1656745681 -870202378 -1780123602 -1384295839 -1703602544 -213762142 1296518881
REM
CELL 1.54180   50.00000   50.00000   50.00000   90.00000   90.00000   90.00000
LATT -1
SFAC C  
C      1  0.3980870000000  0.5197740000000  0.4782320000000 1.0
C      1  0.4000980000000  0.4731630000000  0.5157020000000 1.0
C      1  0.5882120000000  0.4700340000000  0.5288370000000 1.0
C      1  0.5952860000000  0.5306320000000  0.4710520000000 1.0
C      1  0.4702320000000  0.4926610000000  0.5849020000000 1.0
C      1  0.4646020000000  0.5085660000000  0.4137730000000 1.0
C      1  0.4571260000000  0.5493100000000  0.5048160000000 1.0
C      1  0.4575120000000  0.4450900000000  0.4900180000000 1.0
C      1  0.5761230000000  0.4820280000000  0.4454460000000 1.0
C      1  0.5763710000000  0.5168940000000  0.5562080000000 1.0
C      1  0.5178580000000  0.3999620000000  0.4900480000000 1.0
C      1  0.5195210000000  0.6010270000000  0.5104210000000 1.0
C      1  0.4087620000000  0.4719430000000  0.4566460000000 1.0
C      1  0.4149580000000  0.5301260000000  0.5456770000000 1.0
C      1  0.4865030000000  0.5127240000000  0.5134410000000 1.0
C      1  0.4947730000000  0.4877790000000  0.4921630000000 1.0
C      1  0.4996900000000  0.5334830000000  0.5976960000000 1.0
C      1  0.4975280000000  0.4693310000000  0.4054910000000 1.0
C      1  0.5548060000000  0.5016180000000  0.5767530000000 1.0
C      1  0.5543910000000  0.4980740000000  0.4273040000000 1.0
C      1  0.4893310000000  0.5985870000000  0.4651680000000 1.0
C      1  0.4874090000000  0.4054740000000  0.5334210000000 1.0
C      1  0.4419580000000  0.5852460000000  0.4964710000000 1.0
C      1  0.4364230000000  0.4138730000000  0.5175510000000 1.0
C      1  0.4276630000000  0.4237650000000  0.5451350000000 1.0
C      1  0.4311720000000  0.5734940000000  0.4662380000000 1.0
C      1  0.4888510000000  0.5883670000000  0.5453460000000 1.0
C      1  0.4877940000000  0.4152130000000  0.4550860000000 1.0
C      1  0.5265020000000  0.4593830000000  0.5920660000000 1.0
C      1  0.5262820000000  0.5391840000000  0.4113920000000 1.0
C      1  0.5001560000000  0.4642820000000  0.5243000000000 1.0
C      1  0.5011130000000  0.5358630000000  0.4782920000000 1.0
C      1  0.5143620000000  0.4140790000000  0.5179550000000 1.0
C      1  0.5145970000000  0.5875620000000  0.4823820000000 1.0
C      1  0.4259280000000  0.5554070000000  0.5011400000000 1.0
C      1  0.4285050000000  0.4366450000000  0.4959320000000 1.0
C      1  0.4087780000000  0.5501110000000  0.4745730000000 1.0
C      1  0.4156510000000  0.4473550000000  0.5236660000000 1.0
C      1  0.5115320000000  0.5221670000000  0.3906240000000 1.0
C      1  0.5135480000000  0.4791300000000  0.6122050000000 1.0
C      1  0.4606640000000  0.4083320000000  0.4746050000000 1.0
C      1  0.4653400000000  0.5986260000000  0.5258180000000 1.0
C      1  0.4434970000000  0.4301430000000  0.5672170000000 1.0
C      1  0.4418280000000  0.5700610000000  0.4407610000000 1.0
C      1  0.4683010000000  0.4412900000000  0.5736630000000 1.0
C      1  0.4654300000000  0.5607560000000  0.4299000000000 1.0
C      1  0.4521470000000  0.5127400000000  0.5764430000000 1.0
C      1  0.4447370000000  0.4907520000000  0.4208750000000 1.0
C      1  0.4332930000000  0.4687560000000  0.4357450000000 1.0
C      1  0.4383420000000  0.5329430000000  0.5619740000000 1.0
C      1  0.5826350000000  0.4767810000000  0.4787310000000 1.0
C      1  0.5838250000000  0.5215790000000  0.5230950000000 1.0
C      1  0.4995470000000  0.5517000000000  0.5765500000000 1.0
C      1  0.4980600000000  0.4513000000000  0.4262240000000 1.0
C      1  0.4732620000000  0.4535780000000  0.5177980000000 1.0
C      1  0.4709240000000  0.5483430000000  0.4777440000000 1.0
C      1  0.5681240000000  0.4510490000000  0.4362430000000 1.0
C      1  0.5691060000000  0.5480400000000  0.5635450000000 1.0
C      1  0.5291900000000  0.5539180000000  0.5381990000000 1.0
C      1  0.5288400000000  0.4453780000000  0.4619040000000 1.0
C      1  0.5268600000000  0.5429660000000  0.4970320000000 1.0
C      1  0.5292120000000  0.4561710000000  0.5084010000000 1.0
C      1  0.5278800000000  0.4869900000000  0.4940970000000 1.0
C      1  0.5193360000000  0.5131110000000  0.5107670000000 1.0
C      1  0.5102660000000  0.4388430000000  0.5403690000000 1.0
C      1  0.5089550000000  0.5619790000000  0.4609760000000 1.0
C      1  0.5525080000000  0.4527050000000  0.5332420000000 1.0
C      1  0.5476340000000  0.5435950000000  0.4695330000000 1.0
C      1  0.4887420000000  0.5139410000000  0.5565480000000 1.0
C      1  0.4893790000000  0.4947120000000  0.4419440000000 1.0
C      1  0.5140890000000  0.4026340000000  0.5556780000000 1.0
C      1  0.5164320000000  0.5969950000000  0.4439680000000 1.0
C      1  0.4653550000000  0.4833410000000  0.4542110000000 1.0
C      1  0.4617730000000  0.5080950000000  0.5365120000000 1.0
C      1  0.4432590000000  0.5168360000000  0.4784750000000 1.0
C      1  0.4527070000000  0.4783220000000  0.5114530000000 1.0
C      1  0.4498980000000  0.4466600000000  0.4427860000000 1.0
C      1  0.4498880000000  0.5579060000000  0.5540570000000 1.0
C      1  0.5157230000000  0.5935040000000  0.5386780000000 1.0
C      1  0.5143950000000  0.4079160000000  0.4616590000000 1.0
C      1  0.4028940000000  0.5034730000000  0.4553810000000 1.0
C      1  0.4087880000000  0.5007350000000  0.5337530000000 1.0
C      1  0.4895890000000  0.5021600000000  0.6047340000000 1.0
C      1  0.4865160000000  0.4995740000000  0.3959070000000 1.0
C      1  0.5674570000000  0.5665780000000  0.5412800000000 1.0
C      1  0.5667650000000  0.4319180000000  0.4584500000000 1.0
C      1  0.4690190000000  0.4305310000000  0.5352320000000 1.0
C      1  0.4713920000000  0.5741860000000  0.4670430000000 1.0
C      1  0.4363870000000  0.4923500000000  0.5460440000000 1.0
C      1  0.4190010000000  0.5183250000000  0.4341830000000 1.0
C      1  0.5488420000000  0.4042050000000  0.5010570000000 1.0
C      1  0.5497600000000  0.5943110000000  0.4995640000000 1.0
C      1  0.5179640000000  0.4894270000000  0.3870790000000 1.0
C      1  0.5198930000000  0.5124040000000  0.6156220000000 1.0
C      1  0.4804790000000  0.5603480000000  0.5553150000000 1.0
C      1  0.4792350000000  0.4462330000000  0.4491700000000 1.0
C      1  0.5466930000000  0.4655110000000  0.4666620000000 1.0
C      1  0.5465940000000  0.5336990000000  0.5312290000000 1.0
C      1  0.4758520000000  0.5307710000000  0.4311670000000 1.0
C      1  0.4788020000000  0.4676280000000  0.5746580000000 1.0
C      1  0.4843710000000  0.4237490000000  0.4937430000000 1.0
C      1  0.4795930000000  0.5750840000000  0.5061780000000 1.0
C      1  0.4378350000000  0.5791870000000  0.5304030000000 1.0
C      1  0.4376670000000  0.4259900000000  0.4587090000000 1.0
C      1  0.5368750000000  0.4786180000000  0.4103480000000 1.0
C      1  0.5385010000000  0.5229910000000  0.5924180000000 1.0
C      1  0.5479280000000  0.4107990000000  0.4669850000000 1.0
C      1  0.5489230000000  0.5883010000000  0.5337300000000 1.0
C      1  0.4639330000000  0.4015570000000  0.5084500000000 1.0
C      1  0.4696280000000  0.6046220000000  0.4923980000000 1.0
C      1  0.5232760000000  0.4412650000000  0.4342280000000 1.0
C      1  0.5251700000000  0.5588820000000  0.5662900000000 1.0
C      1  0.5807210000000  0.4433250000000  0.5159220000000 1.0
C      1  0.5778010000000  0.5526610000000  0.4831380000000 1.0
C      1  0.5808280000000  0.5515350000000  0.5166170000000 1.0
C      1  0.5812310000000  0.4463880000000  0.4828780000000 1.0
C      1  0.4926040000000  0.4261190000000  0.5670530000000 1.0
C      1  0.4927140000000  0.5744420000000  0.4334750000000 1.0
C      1  0.5165260000000  0.5104480000000  0.5697240000000 1.0
C      1  0.5150490000000  0.4942200000000  0.4314420000000 1.0
C      1  0.5412380000000  0.4042350000000  0.5345390000000 1.0
C      1  0.5426670000000  0.5949280000000  0.4661070000000 1.0
C      1  0.4792130000000  0.5201310000000  0.4613510000000 1.0
C      1  0.4972280000000  0.4885840000000  0.5425940000000 1.0
C      1  0.5101430000000  0.4397250000000  0.4854960000000 1.0
C      1  0.5063770000000  0.5606310000000  0.5179110000000 1.0
C      1  0.5544670000000  0.4713550000000  0.5846830000000 1.0
C      1  0.5543840000000  0.5279470000000  0.4177100000000 1.0
C      1  0.5246330000000  0.5691660000000  0.4249270000000 1.0
C      1  0.5240710000000  0.4292130000000  0.5764750000000 1.0
C      1  0.5338370000000  0.5144100000000  0.4491400000000 1.0
C      1  0.5356180000000  0.4878070000000  0.5535300000000 1.0
C      1  0.4208020000000  0.5199070000000  0.4076270000000 1.0
C      1  0.4392660000000  0.4698420000000  0.5691990000000 1.0
C      1  0.4074540000000  0.5100810000000  0.5027730000000 1.0
C      1  0.3962420000000  0.4746930000000  0.4880160000000 1.0
C      1  0.5452120000000  0.4511300000000  0.4191610000000 1.0
C      1  0.5472290000000  0.5495830000000  0.5814550000000 1.0
C      1  0.5494380000000  0.4985300000000  0.4739740000000 1.0
C      1  0.5454710000000  0.5001870000000  0.5272430000000 1.0
C      1  0.5689570000000  0.4867580000000  0.5086110000000 1.0
C      1  0.5746200000000  0.5137950000000  0.4910980000000 1.0
C      1  0.5481120000000  0.4284450000000  0.5554080000000 1.0
C      1  0.5475910000000  0.5692730000000  0.4475780000000 1.0
C      1  0.4136860000000  0.5547040000000  0.5302090000000 1.0
C      1  0.4121550000000  0.4406340000000  0.4694980000000 1.0
C      1  0.5087340000000  0.5355410000000  0.4392900000000 1.0
C      1  0.5111400000000  0.4649260000000  0.5626990000000 1.0
C      1  0.4399690000000  0.5096690000000  0.5103470000000 1.0
C      1  0.4543460000000  0.4893910000000  0.4793300000000 1.0
C      1  0.5541460000000  0.4350900000000  0.4977540000000 1.0
C      1  0.5535190000000  0.5633050000000  0.5033790000000 1.0
C      1  0.5873540000000  0.5143530000000  0.4426690000000 1.0
C      1  0.5862040000000  0.4841620000000  0.5594260000000 1.0
C      1  0.4398580000000  0.4610950000000  0.5379480000000 1.0
C      1  0.4307480000000  0.5319220000000  0.4588780000000 1.0
C      1  0.5681340000000  0.4554280000000  0.5619660000000 1.0
C      1  0.5679110000000  0.5423390000000  0.4422300000000 1.0
C      1  0.4858530000000  0.4607120000000  0.4794290000000 1.0
C      1  0.4802360000000  0.5417920000000  0.5274910000000 1.0
C      1  0.6037430000000  0.4984840000000  0.4683710000000 1.0
C      1  0.6035240000000  0.4988500000000  0.5338380000000 1.0
END
