TITL C-2782227-3064-855 0.000650235549148872 125000 -268.950955999409 0 0 48 (C1) n - 1
REM
REM in /home/nfs/bkarasulu/CARBON/AIRSS/Generating-Clusters/REBO/Higher-Symm/SD-CG/HFTN-CG
REM
REM
REM
REM
REM
REM ./C.cell (12c818d87b63d06a65506943cc24bca4)
REM
REM compiler GCC version 9.2.1 20190827 (Red Hat 9.2.1-1)
REM options -cpp -mtune=generic -march=x86-64 -g -O0 -fpre-include=/usr/include/finclude/math-vector-fortran.h
REM seed -1243781925 -441265834 -1074172225 -1555772729 -201768731 248905939 998064639 2049193563 687283559 148490482 -1782091275 -1039238267 -1860593591 -1996036488 -1181386879 2025722404 15801904 289145337 -1034927576 -60250798 -1616176554 -1622443952 -1484416155 -530447420 -2074655455 1962292636 -1847089373 1244437816 -2114208296 966079614 374714278 1674318159 178641664
REM
CELL 1.54180   50.00000   50.00000   50.00000   90.00000   90.00000   90.00000
LATT -1
SFAC C  
C      1  0.5037990000000  0.5466420000000  0.5694230000000 1.0
C      1  0.5216170000000  0.5498760000000  0.4700380000000 1.0
C      1  0.5466910000000  0.5140170000000  0.5543210000000 1.0
C      1  0.5226860000000  0.5733020000000  0.4900760000000 1.0
C      1  0.4588580000000  0.4695360000000  0.4422900000000 1.0
C      1  0.4866720000000  0.5199300000000  0.5801120000000 1.0
C      1  0.5129870000000  0.4385050000000  0.4868240000000 1.0
C      1  0.5404940000000  0.4577360000000  0.4928460000000 1.0
C      1  0.4680420000000  0.4937610000000  0.5279180000000 1.0
C      1  0.4913640000000  0.4371860000000  0.5060050000000 1.0
C      1  0.4411590000000  0.5180850000000  0.4470300000000 1.0
C      1  0.5429420000000  0.4712350000000  0.5241210000000 1.0
C      1  0.5565210000000  0.4861720000000  0.4831570000000 1.0
C      1  0.4577770000000  0.4968040000000  0.4351430000000 1.0
C      1  0.5074130000000  0.5082490000000  0.5592180000000 1.0
C      1  0.4843800000000  0.4568510000000  0.4398470000000 1.0
C      1  0.5051390000000  0.4414750000000  0.4597990000000 1.0
C      1  0.4580080000000  0.5361860000000  0.4662700000000 1.0
C      1  0.4751450000000  0.5363970000000  0.4959840000000 1.0
C      1  0.4783270000000  0.4713100000000  0.4765820000000 1.0
C      1  0.5046760000000  0.4766930000000  0.4786700000000 1.0
C      1  0.5138630000000  0.4723510000000  0.5080000000000 1.0
C      1  0.5065520000000  0.4512590000000  0.5583860000000 1.0
C      1  0.5075260000000  0.5727340000000  0.5102960000000 1.0
C      1  0.5148150000000  0.5269530000000  0.5319050000000 1.0
C      1  0.5316750000000  0.4947260000000  0.4407650000000 1.0
C      1  0.4685480000000  0.5140580000000  0.5519460000000 1.0
C      1  0.5076520000000  0.4808750000000  0.5563930000000 1.0
C      1  0.4963110000000  0.4386200000000  0.5343500000000 1.0
C      1  0.5097230000000  0.5098680000000  0.4555410000000 1.0
C      1  0.5492000000000  0.4896360000000  0.5424320000000 1.0
C      1  0.4814440000000  0.5419910000000  0.5477610000000 1.0
C      1  0.4809360000000  0.5177840000000  0.4457690000000 1.0
C      1  0.4269880000000  0.5276010000000  0.5106060000000 1.0
C      1  0.4639170000000  0.4505230000000  0.4982300000000 1.0
C      1  0.4540850000000  0.5144350000000  0.5052130000000 1.0
C      1  0.4498410000000  0.4813430000000  0.5023910000000 1.0
C      1  0.5555930000000  0.5043290000000  0.5058050000000 1.0
C      1  0.4906570000000  0.5431770000000  0.4663370000000 1.0
C      1  0.4922430000000  0.4747450000000  0.5294780000000 1.0
C      1  0.5315840000000  0.5397970000000  0.5588120000000 1.0
C      1  0.4454270000000  0.4646780000000  0.4727430000000 1.0
C      1  0.5145900000000  0.4710560000000  0.4475180000000 1.0
C      1  0.5498010000000  0.5318670000000  0.4637680000000 1.0
C      1  0.5301630000000  0.5162810000000  0.5084230000000 1.0
C      1  0.5173840000000  0.5192090000000  0.4833410000000 1.0
C      1  0.4918870000000  0.5472160000000  0.5189110000000 1.0
C      1  0.5529010000000  0.5029370000000  0.4592050000000 1.0
END
