TITL C-2782238-9940-1222 -0.0134827808981028 125000 -262.848232754223 0 0 49 (C1) n - 1
REM
REM in /home/nfs/bkarasulu/CARBON/AIRSS/Generating-Clusters/REBO/Higher-Symm/SD-CG/HFTN-CG
REM
REM
REM
REM
REM
REM ./C.cell (12c818d87b63d06a65506943cc24bca4)
REM
REM compiler GCC version 9.2.1 20190827 (Red Hat 9.2.1-1)
REM options -cpp -mtune=generic -march=x86-64 -g -O0 -fpre-include=/usr/include/finclude/math-vector-fortran.h
REM seed 1272835262 1022337503 -1214572432 -1351021683 1838497376 1953043900 -585781064 -854648671 -1385601405 1512249800 964400607 1807755625 744487662 1570184276 1072115451 -1858024157 -1034034775 -1477985743 -1186962995 582837951 -837509505 -581395794 1248540649 335653656 -482097901 -2049311762 907799513 1461832866 -791222195 319473588 -1443970678 -456840246 1124082457
REM
CELL 1.54180   50.00000   50.00000   50.00000   90.00000   90.00000   90.00000
LATT -1
SFAC C  
C      1  0.4433890000000  0.5132470000000  0.4656910000000 1.0
C      1  0.4921060000000  0.5337390000000  0.4660670000000 1.0
C      1  0.5458090000000  0.5111080000000  0.4691590000000 1.0
C      1  0.5343340000000  0.4613180000000  0.4673290000000 1.0
C      1  0.4745820000000  0.4690260000000  0.4624190000000 1.0
C      1  0.4506200000000  0.4892480000000  0.5407790000000 1.0
C      1  0.4910820000000  0.4466360000000  0.5373860000000 1.0
C      1  0.5467370000000  0.4791040000000  0.5437770000000 1.0
C      1  0.5347370000000  0.5426470000000  0.5379340000000 1.0
C      1  0.4740820000000  0.5464200000000  0.5428270000000 1.0
C      1  0.4791660000000  0.4745130000000  0.5488190000000 1.0
C      1  0.4702850000000  0.5132070000000  0.5490420000000 1.0
C      1  0.5035860000000  0.5342280000000  0.5441040000000 1.0
C      1  0.5358650000000  0.5106950000000  0.5434730000000 1.0
C      1  0.5175470000000  0.4674930000000  0.5408870000000 1.0
C      1  0.4643920000000  0.5375790000000  0.4579610000000 1.0
C      1  0.4467890000000  0.4864810000000  0.4542790000000 1.0
C      1  0.5027610000000  0.4642490000000  0.4568120000000 1.0
C      1  0.5539470000000  0.4817260000000  0.4582680000000 1.0
C      1  0.5223350000000  0.5249790000000  0.4568650000000 1.0
C      1  0.5109440000000  0.5622020000000  0.5248610000000 1.0
C      1  0.5672990000000  0.5030380000000  0.5321680000000 1.0
C      1  0.5201220000000  0.4370930000000  0.5248570000000 1.0
C      1  0.4544330000000  0.4563800000000  0.5328920000000 1.0
C      1  0.4433670000000  0.5332390000000  0.5409910000000 1.0
C      1  0.5141030000000  0.4363550000000  0.4735670000000 1.0
C      1  0.5738040000000  0.4964420000000  0.4816420000000 1.0
C      1  0.5169420000000  0.5542760000000  0.4737170000000 1.0
C      1  0.4365670000000  0.5453460000000  0.4758650000000 1.0
C      1  0.4430890000000  0.4564560000000  0.4687020000000 1.0
C      1  0.5226140000000  0.5274740000000  0.5096980000000 1.0
C      1  0.5392200000000  0.4837260000000  0.5115410000000 1.0
C      1  0.4955370000000  0.4630570000000  0.5078080000000 1.0
C      1  0.4471900000000  0.4875150000000  0.5094750000000 1.0
C      1  0.4695610000000  0.5350280000000  0.5112480000000 1.0
C      1  0.5223730000000  0.4666270000000  0.4979850000000 1.0
C      1  0.5406070000000  0.5090040000000  0.4998840000000 1.0
C      1  0.4961380000000  0.5309350000000  0.4983920000000 1.0
C      1  0.4464440000000  0.5137690000000  0.4977510000000 1.0
C      1  0.4708320000000  0.4692700000000  0.4940350000000 1.0
C      1  0.4362380000000  0.5435820000000  0.5093750000000 1.0
C      1  0.4409650000000  0.4548120000000  0.5016770000000 1.0
C      1  0.5142070000000  0.5666900000000  0.4979080000000 1.0
C      1  0.5181620000000  0.4268930000000  0.4992080000000 1.0
C      1  0.5790800000000  0.5006270000000  0.5079170000000 1.0
C      1  0.5029590000000  0.4996360000000  0.5500820000000 1.0
C      1  0.5211370000000  0.4909500000000  0.4441130000000 1.0
C      1  0.5215270000000  0.4917300000000  0.4168030000000 1.0
C      1  0.5077470000000  0.4983080000000  0.5830380000000 1.0
END
