TITL C-2782238-9940-588 0.0427646567297474 125000 -1111.60035930958 0 0 187 (C1) n - 1
REM
REM in /home/nfs/bkarasulu/CARBON/AIRSS/Generating-Clusters/REBO/Higher-Symm/SD-CG/HFTN-CG
REM
REM
REM
REM
REM
REM ./C.cell (12c818d87b63d06a65506943cc24bca4)
REM
REM compiler GCC version 9.2.1 20190827 (Red Hat 9.2.1-1)
REM options -cpp -mtune=generic -march=x86-64 -g -O0 -fpre-include=/usr/include/finclude/math-vector-fortran.h
REM seed 1533052192 373713235 -58316799 -512276628 1887409812 147988397 355315266 -108091473 -258417060 -541092592 558457274 1638367129 1382228681 -1809414263 -875858268 1476569744 571597309 -1893242531 1915470878 932236622 1873243189 -1814027805 -572098377 -742604869 -875566369 -57214050 -1323501200 -1657278310 -1499039647 -1804769917 -698975500 379698264 628870404
REM
CELL 1.54180   50.00000   50.00000   50.00000   90.00000   90.00000   90.00000
LATT -1
SFAC C  
C      1  0.4193090000000  0.4497710000000  0.4891520000000 1.0
C      1  0.4542760000000  0.4626170000000  0.4137040000000 1.0
C      1  0.5184660000000  0.4567280000000  0.4143520000000 1.0
C      1  0.5787970000000  0.4459320000000  0.4570900000000 1.0
C      1  0.5847130000000  0.4453170000000  0.5464830000000 1.0
C      1  0.5250590000000  0.4524190000000  0.5938920000000 1.0
C      1  0.4525110000000  0.4364900000000  0.5659670000000 1.0
C      1  0.3875990000000  0.5344900000000  0.5333380000000 1.0
C      1  0.3990690000000  0.5289190000000  0.4363930000000 1.0
C      1  0.4958540000000  0.5296360000000  0.3952460000000 1.0
C      1  0.5794880000000  0.5273990000000  0.4209670000000 1.0
C      1  0.6105430000000  0.5125250000000  0.5089230000000 1.0
C      1  0.5433950000000  0.5257190000000  0.6071610000000 1.0
C      1  0.4584370000000  0.5112990000000  0.5963040000000 1.0
C      1  0.4104190000000  0.5164380000000  0.5195560000000 1.0
C      1  0.4210710000000  0.5031540000000  0.4383820000000 1.0
C      1  0.4870330000000  0.5036970000000  0.4119380000000 1.0
C      1  0.5643050000000  0.5046960000000  0.4404480000000 1.0
C      1  0.5899520000000  0.4935630000000  0.5212160000000 1.0
C      1  0.5477610000000  0.4978690000000  0.6064750000000 1.0
C      1  0.4688520000000  0.4985050000000  0.5687500000000 1.0
C      1  0.4332770000000  0.5472990000000  0.5763680000000 1.0
C      1  0.4221370000000  0.5579460000000  0.5057830000000 1.0
C      1  0.4521240000000  0.5476610000000  0.4496020000000 1.0
C      1  0.5152740000000  0.5498330000000  0.4346660000000 1.0
C      1  0.5843940000000  0.5569440000000  0.4581460000000 1.0
C      1  0.5764180000000  0.5492620000000  0.5147880000000 1.0
C      1  0.5177870000000  0.5623830000000  0.5850250000000 1.0
C      1  0.4359780000000  0.5246010000000  0.4216790000000 1.0
C      1  0.5165050000000  0.5114580000000  0.4242430000000 1.0
C      1  0.5798190000000  0.5137610000000  0.4673340000000 1.0
C      1  0.5583060000000  0.5034520000000  0.5262610000000 1.0
C      1  0.5094080000000  0.5248460000000  0.5742190000000 1.0
C      1  0.4398530000000  0.5086720000000  0.5610370000000 1.0
C      1  0.4130030000000  0.5206370000000  0.4890690000000 1.0
C      1  0.5561240000000  0.5853240000000  0.5208050000000 1.0
C      1  0.5223440000000  0.5820140000000  0.5582470000000 1.0
C      1  0.4715360000000  0.5885680000000  0.5509430000000 1.0
C      1  0.4429530000000  0.5931730000000  0.5109950000000 1.0
C      1  0.4575530000000  0.5946260000000  0.4627340000000 1.0
C      1  0.5052660000000  0.5933890000000  0.4457600000000 1.0
C      1  0.5496960000000  0.5868380000000  0.4711920000000 1.0
C      1  0.5208090000000  0.4210450000000  0.4511720000000 1.0
C      1  0.5375050000000  0.4218300000000  0.4755220000000 1.0
C      1  0.5347180000000  0.4366490000000  0.5380000000000 1.0
C      1  0.5116160000000  0.4216030000000  0.5553170000000 1.0
C      1  0.4662800000000  0.4113860000000  0.5166130000000 1.0
C      1  0.4659440000000  0.4197000000000  0.4836700000000 1.0
C      1  0.4874720000000  0.4243380000000  0.4571900000000 1.0
C      1  0.5914870000000  0.4977190000000  0.5536600000000 1.0
C      1  0.5006320000000  0.4957590000000  0.6128210000000 1.0
C      1  0.4357770000000  0.4890510000000  0.5956340000000 1.0
C      1  0.3909230000000  0.5005000000000  0.4752450000000 1.0
C      1  0.4520490000000  0.5136170000000  0.3956630000000 1.0
C      1  0.5380880000000  0.5055600000000  0.3913510000000 1.0
C      1  0.6099360000000  0.4999340000000  0.4694810000000 1.0
C      1  0.4455560000000  0.5826960000000  0.5407550000000 1.0
C      1  0.4342010000000  0.5862180000000  0.4811870000000 1.0
C      1  0.4750760000000  0.5845840000000  0.4386750000000 1.0
C      1  0.5331460000000  0.5843780000000  0.4421980000000 1.0
C      1  0.5716510000000  0.5787880000000  0.4936320000000 1.0
C      1  0.5510890000000  0.5720490000000  0.5458740000000 1.0
C      1  0.4906750000000  0.5759050000000  0.5697450000000 1.0
C      1  0.4103340000000  0.5545330000000  0.5315450000000 1.0
C      1  0.4191210000000  0.5542430000000  0.4471620000000 1.0
C      1  0.4968130000000  0.5517040000000  0.4113770000000 1.0
C      1  0.5739220000000  0.5531830000000  0.4306680000000 1.0
C      1  0.6068660000000  0.5397990000000  0.5100930000000 1.0
C      1  0.5418170000000  0.5455480000000  0.5890020000000 1.0
C      1  0.4576310000000  0.5397760000000  0.5929530000000 1.0
C      1  0.5201680000000  0.4674120000000  0.4448600000000 1.0
C      1  0.5626160000000  0.4640370000000  0.4812640000000 1.0
C      1  0.5533750000000  0.4744560000000  0.5428020000000 1.0
C      1  0.4979260000000  0.4635520000000  0.5546970000000 1.0
C      1  0.4396430000000  0.4637600000000  0.5503870000000 1.0
C      1  0.4299010000000  0.4793890000000  0.4814020000000 1.0
C      1  0.4649940000000  0.4754340000000  0.4497500000000 1.0
C      1  0.4404140000000  0.4639740000000  0.5833560000000 1.0
C      1  0.3933580000000  0.4719300000000  0.4938310000000 1.0
C      1  0.4545400000000  0.4848360000000  0.3984960000000 1.0
C      1  0.5253370000000  0.4798110000000  0.3916170000000 1.0
C      1  0.5979450000000  0.4733950000000  0.4519020000000 1.0
C      1  0.5989720000000  0.4684380000000  0.5508890000000 1.0
C      1  0.5244380000000  0.4800590000000  0.6066830000000 1.0
C      1  0.4579970000000  0.5047880000000  0.4940050000000 1.0
C      1  0.5083460000000  0.5035100000000  0.4562930000000 1.0
C      1  0.5316180000000  0.4934070000000  0.4795020000000 1.0
C      1  0.5354320000000  0.4850190000000  0.5087490000000 1.0
C      1  0.5166920000000  0.5017290000000  0.5290310000000 1.0
C      1  0.4853110000000  0.4884000000000  0.5261570000000 1.0
C      1  0.4556240000000  0.4791440000000  0.5120260000000 1.0
C      1  0.5857340000000  0.4438030000000  0.4964190000000 1.0
C      1  0.5511840000000  0.4463040000000  0.5821070000000 1.0
C      1  0.4763840000000  0.4397480000000  0.5871340000000 1.0
C      1  0.4263150000000  0.4423850000000  0.5194090000000 1.0
C      1  0.4400020000000  0.4458620000000  0.4398290000000 1.0
C      1  0.4902340000000  0.4468570000000  0.4066000000000 1.0
C      1  0.5626140000000  0.4404040000000  0.4302770000000 1.0
C      1  0.4999170000000  0.4328570000000  0.5189010000000 1.0
C      1  0.4864150000000  0.4554820000000  0.5172910000000 1.0
C      1  0.4622950000000  0.4516660000000  0.4963070000000 1.0
C      1  0.4755550000000  0.4544500000000  0.4676910000000 1.0
C      1  0.5069750000000  0.4590310000000  0.4720300000000 1.0
C      1  0.5248890000000  0.4428380000000  0.4894500000000 1.0
C      1  0.5333910000000  0.4540360000000  0.5137870000000 1.0
C      1  0.5843220000000  0.4821540000000  0.4261700000000 1.0
C      1  0.6229320000000  0.4741210000000  0.4830650000000 1.0
C      1  0.5700960000000  0.4897620000000  0.5912840000000 1.0
C      1  0.4776830000000  0.4805420000000  0.6188700000000 1.0
C      1  0.3903430000000  0.4737790000000  0.5218010000000 1.0
C      1  0.3965620000000  0.4760210000000  0.4544410000000 1.0
C      1  0.5042230000000  0.4740940000000  0.3717400000000 1.0
C      1  0.4094550000000  0.5627030000000  0.4773010000000 1.0
C      1  0.4718310000000  0.5646700000000  0.4165330000000 1.0
C      1  0.5452470000000  0.5598530000000  0.4232610000000 1.0
C      1  0.6013940000000  0.5635920000000  0.4871130000000 1.0
C      1  0.5607670000000  0.5460850000000  0.5648070000000 1.0
C      1  0.4863730000000  0.5515020000000  0.5930280000000 1.0
C      1  0.4282850000000  0.5628200000000  0.5524080000000 1.0
C      1  0.4571050000000  0.5314940000000  0.5237160000000 1.0
C      1  0.4648300000000  0.5254390000000  0.4799770000000 1.0
C      1  0.4874710000000  0.5271550000000  0.4572140000000 1.0
C      1  0.5345300000000  0.5242450000000  0.4749030000000 1.0
C      1  0.5409130000000  0.5399360000000  0.4993210000000 1.0
C      1  0.5262580000000  0.5299900000000  0.5284540000000 1.0
C      1  0.4821750000000  0.5214700000000  0.5289790000000 1.0
C      1  0.4729410000000  0.3527940000000  0.5239780000000 1.0
C      1  0.4891820000000  0.3339430000000  0.5352510000000 1.0
C      1  0.5107810000000  0.3385210000000  0.5515700000000 1.0
C      1  0.5201720000000  0.3628000000000  0.5598410000000 1.0
C      1  0.5141210000000  0.3882790000000  0.5568580000000 1.0
C      1  0.4885690000000  0.4013410000000  0.5404070000000 1.0
C      1  0.4708290000000  0.3790640000000  0.5234000000000 1.0
C      1  0.4719220000000  0.4703840000000  0.5591730000000 1.0
C      1  0.4252630000000  0.4897120000000  0.5107660000000 1.0
C      1  0.4394470000000  0.4851070000000  0.4557680000000 1.0
C      1  0.4910690000000  0.4832400000000  0.4361710000000 1.0
C      1  0.5475310000000  0.4791830000000  0.4555510000000 1.0
C      1  0.5708670000000  0.4675990000000  0.5142450000000 1.0
C      1  0.5210910000000  0.4742870000000  0.5457790000000 1.0
C      1  0.4517750000000  0.5471630000000  0.4027300000000 1.0
C      1  0.5359130000000  0.5322220000000  0.4054540000000 1.0
C      1  0.6068050000000  0.5339300000000  0.4706410000000 1.0
C      1  0.5816630000000  0.5204110000000  0.5640380000000 1.0
C      1  0.5016780000000  0.5226830000000  0.6031560000000 1.0
C      1  0.4210110000000  0.5174340000000  0.5840510000000 1.0
C      1  0.3913270000000  0.5348030000000  0.4682590000000 1.0
C      1  0.5237060000000  0.5649590000000  0.5095640000000 1.0
C      1  0.5056980000000  0.5560550000000  0.5330380000000 1.0
C      1  0.4847640000000  0.5569100000000  0.5106230000000 1.0
C      1  0.4529550000000  0.5553180000000  0.5036420000000 1.0
C      1  0.4694830000000  0.5583590000000  0.4739210000000 1.0
C      1  0.5015060000000  0.5573120000000  0.4624800000000 1.0
C      1  0.5222150000000  0.5693760000000  0.4798890000000 1.0
C      1  0.5137080000000  0.6017730000000  0.5346220000000 1.0
C      1  0.4858880000000  0.6038690000000  0.5313450000000 1.0
C      1  0.4694310000000  0.6075220000000  0.5081080000000 1.0
C      1  0.4770750000000  0.6090800000000  0.4808010000000 1.0
C      1  0.5040400000000  0.6085030000000  0.4714370000000 1.0
C      1  0.5289000000000  0.6079180000000  0.4864650000000 1.0
C      1  0.5335340000000  0.6034000000000  0.5146240000000 1.0
C      1  0.5384900000000  0.5267580000000  0.4444890000000 1.0
C      1  0.5695510000000  0.5401240000000  0.4837570000000 1.0
C      1  0.5585710000000  0.5344170000000  0.5345970000000 1.0
C      1  0.4902380000000  0.5155480000000  0.5563180000000 1.0
C      1  0.4360710000000  0.5189580000000  0.5358110000000 1.0
C      1  0.4294530000000  0.5254180000000  0.4617560000000 1.0
C      1  0.4690100000000  0.5248460000000  0.4306930000000 1.0
C      1  0.5586530000000  0.4361380000000  0.5537700000000 1.0
C      1  0.5039060000000  0.4355400000000  0.5822980000000 1.0
C      1  0.4468190000000  0.4284110000000  0.5333550000000 1.0
C      1  0.4381380000000  0.4337380000000  0.4699940000000 1.0
C      1  0.4717120000000  0.4387320000000  0.4311320000000 1.0
C      1  0.5349690000000  0.4337920000000  0.4293900000000 1.0
C      1  0.5658320000000  0.4239820000000  0.4779340000000 1.0
C      1  0.4112390000000  0.4592160000000  0.4442930000000 1.0
C      1  0.4848440000000  0.4560470000000  0.3810810000000 1.0
C      1  0.5723560000000  0.4605060000000  0.4121010000000 1.0
C      1  0.6146800000000  0.4519750000000  0.4909760000000 1.0
C      1  0.5648050000000  0.4713400000000  0.5712760000000 1.0
C      1  0.4700120000000  0.4563180000000  0.6091110000000 1.0
C      1  0.4118220000000  0.4622490000000  0.5363240000000 1.0
C      1  0.4938180000000  0.4836440000000  0.4876400000000 1.0
C      1  0.4998030000000  0.5358890000000  0.4961680000000 1.0
C      1  0.5310220000000  0.3914730000000  0.5073050000000 1.0
C      1  0.4981650000000  0.5090800000000  0.4944920000000 1.0
C      1  0.5156520000000  0.4119120000000  0.5130390000000 1.0
END
