TITL C-2782231-7322-1171 0.00167979969173482 125000 -368.967874062452 0 0 66 (C1) n - 1
REM
REM in /home/nfs/bkarasulu/CARBON/AIRSS/Generating-Clusters/REBO/Higher-Symm/SD-CG/HFTN-CG
REM
REM
REM
REM
REM
REM ./C.cell (12c818d87b63d06a65506943cc24bca4)
REM
REM compiler GCC version 9.2.1 20190827 (Red Hat 9.2.1-1)
REM options -cpp -mtune=generic -march=x86-64 -g -O0 -fpre-include=/usr/include/finclude/math-vector-fortran.h
REM seed 436603379 515717977 53006403 -1811946835 59598096 1763419354 -455873091 2090183098 -2096599245 541111 -453963261 -1770591385 -1446048937 1984758740 -445233433 731153502 1190167565 615487326 752359228 -1682761730 -1713851829 -1481084989 1201642118 -652923655 418207018 -397698097 986708674 1689042037 56155449 -1411778900 -836415207 -2016049674 -515821467
REM
CELL 1.54180   50.00000   50.00000   50.00000   90.00000   90.00000   90.00000
LATT -1
SFAC C  
C      1  0.4810960000000  0.5130330000000  0.5985410000000 1.0
C      1  0.5045940000000  0.5233300000000  0.4016210000000 1.0
C      1  0.5115410000000  0.5088680000000  0.5954710000000 1.0
C      1  0.5265720000000  0.4999980000000  0.4032630000000 1.0
C      1  0.5138950000000  0.4769390000000  0.5905550000000 1.0
C      1  0.5004890000000  0.4845650000000  0.4097040000000 1.0
C      1  0.4824380000000  0.4817980000000  0.5961380000000 1.0
C      1  0.4788540000000  0.5071110000000  0.4110960000000 1.0
C      1  0.4876540000000  0.4133220000000  0.5151470000000 1.0
C      1  0.4251470000000  0.4461490000000  0.4773830000000 1.0
C      1  0.4250980000000  0.5129500000000  0.5240220000000 1.0
C      1  0.4388870000000  0.5623850000000  0.4595510000000 1.0
C      1  0.5067610000000  0.5876690000000  0.5197260000000 1.0
C      1  0.5656110000000  0.5509250000000  0.4400680000000 1.0
C      1  0.5698070000000  0.4557050000000  0.5084440000000 1.0
C      1  0.5662730000000  0.4370420000000  0.4824970000000 1.0
C      1  0.5477660000000  0.4972120000000  0.4211000000000 1.0
C      1  0.5370660000000  0.4540070000000  0.5897850000000 1.0
C      1  0.5027610000000  0.4636780000000  0.4280510000000 1.0
C      1  0.4656070000000  0.4672710000000  0.5795900000000 1.0
C      1  0.4609930000000  0.5089320000000  0.4320100000000 1.0
C      1  0.4677340000000  0.5305720000000  0.5815170000000 1.0
C      1  0.5111760000000  0.5489540000000  0.4138940000000 1.0
C      1  0.5252550000000  0.5255600000000  0.5783240000000 1.0
C      1  0.4542610000000  0.4604080000000  0.4780140000000 1.0
C      1  0.4196610000000  0.4997630000000  0.5540900000000 1.0
C      1  0.4619680000000  0.5442910000000  0.4734260000000 1.0
C      1  0.4989670000000  0.5563630000000  0.5230110000000 1.0
C      1  0.5386710000000  0.5504260000000  0.4229570000000 1.0
C      1  0.5554870000000  0.4802320000000  0.5255200000000 1.0
C      1  0.5474800000000  0.4654560000000  0.4812540000000 1.0
C      1  0.4925650000000  0.4446490000000  0.5219570000000 1.0
C      1  0.5221220000000  0.5196010000000  0.5462660000000 1.0
C      1  0.5435070000000  0.5062050000000  0.4534830000000 1.0
C      1  0.5188190000000  0.4699870000000  0.5582780000000 1.0
C      1  0.5042800000000  0.4704150000000  0.4602040000000 1.0
C      1  0.4666650000000  0.4759120000000  0.5479720000000 1.0
C      1  0.4696980000000  0.5062390000000  0.4643340000000 1.0
C      1  0.4695350000000  0.5248320000000  0.5485550000000 1.0
C      1  0.5089660000000  0.5434810000000  0.4602430000000 1.0
C      1  0.4782770000000  0.4772640000000  0.4752570000000 1.0
C      1  0.4516980000000  0.5001650000000  0.5415360000000 1.0
C      1  0.4896300000000  0.5278100000000  0.4774290000000 1.0
C      1  0.4938520000000  0.5277550000000  0.5319890000000 1.0
C      1  0.5380100000000  0.5367670000000  0.4540270000000 1.0
C      1  0.5302130000000  0.4913870000000  0.5366030000000 1.0
C      1  0.5292430000000  0.4878330000000  0.4722120000000 1.0
C      1  0.4951490000000  0.4724790000000  0.5351630000000 1.0
C      1  0.5855670000000  0.5305900000000  0.4364890000000 1.0
C      1  0.5626970000000  0.4529110000000  0.5405760000000 1.0
C      1  0.5413770000000  0.4382880000000  0.4627340000000 1.0
C      1  0.4698320000000  0.4278560000000  0.5381510000000 1.0
C      1  0.4293640000000  0.4755480000000  0.4641030000000 1.0
C      1  0.4211110000000  0.5329340000000  0.5513180000000 1.0
C      1  0.4675950000000  0.5589120000000  0.4446340000000 1.0
C      1  0.5230860000000  0.5689500000000  0.5407290000000 1.0
C      1  0.4581250000000  0.4449380000000  0.5572780000000 1.0
C      1  0.4385690000000  0.4995390000000  0.4528520000000 1.0
C      1  0.4455150000000  0.5435660000000  0.5621290000000 1.0
C      1  0.4946740000000  0.5548740000000  0.4374550000000 1.0
C      1  0.5332000000000  0.5491390000000  0.5577850000000 1.0
C      1  0.5738330000000  0.5044470000000  0.4380800000000 1.0
C      1  0.5450540000000  0.4492220000000  0.5616770000000 1.0
C      1  0.5189780000000  0.4433070000000  0.4471290000000 1.0
C      1  0.5011920000000  0.4990220000000  0.4878900000000 1.0
C      1  0.5031900000000  0.4992060000000  0.5177140000000 1.0
END
