TITL C-2782227-3064-1299 0.0431598416359277 125000 -213.971179109399 0 0 37 (C1) n - 1
REM
REM in /home/nfs/bkarasulu/CARBON/AIRSS/Generating-Clusters/REBO/Higher-Symm/SD-CG/HFTN-CG
REM
REM
REM
REM
REM
REM ./C.cell (12c818d87b63d06a65506943cc24bca4)
REM
REM compiler GCC version 9.2.1 20190827 (Red Hat 9.2.1-1)
REM options -cpp -mtune=generic -march=x86-64 -g -O0 -fpre-include=/usr/include/finclude/math-vector-fortran.h
REM seed 449042724 1848613959 -1113300000 1732635565 -1825064529 -1269317363 2067273664 -1641456399 -536525164 -676386528 -14112471 -1028182742 -216499424 -1437710271 899730018 412513731 -1810955493 1316836576 -24289783 1239315292 1639761937 1676162287 -132484735 1803712143 -510635695 2001941879 -1616858566 -933794541 825957121 -526862334 876666532 -608944088 1422833209
REM
CELL 1.54180   50.00000   50.00000   50.00000   90.00000   90.00000   90.00000
LATT -1
SFAC C  
C      1  0.4901460000000  0.5538330000000  0.4067810000000 1.0
C      1  0.6176420000000  0.4984420000000  0.5562030000000 1.0
C      1  0.4293810000000  0.5253360000000  0.5510530000000 1.0
C      1  0.4276970000000  0.5246480000000  0.4646390000000 1.0
C      1  0.4364270000000  0.5022690000000  0.5357720000000 1.0
C      1  0.4481310000000  0.5091780000000  0.4519830000000 1.0
C      1  0.5147720000000  0.5413020000000  0.4088500000000 1.0
C      1  0.5946060000000  0.5137900000000  0.5540330000000 1.0
C      1  0.5755140000000  0.4831810000000  0.5198380000000 1.0
C      1  0.4780830000000  0.4991280000000  0.5620700000000 1.0
C      1  0.4488570000000  0.4793940000000  0.4927280000000 1.0
C      1  0.4947600000000  0.5052350000000  0.4369980000000 1.0
C      1  0.4202890000000  0.5185550000000  0.4906940000000 1.0
C      1  0.4684790000000  0.5424930000000  0.4196960000000 1.0
C      1  0.6200540000000  0.4756220000000  0.5405700000000 1.0
C      1  0.4456980000000  0.5345590000000  0.5714690000000 1.0
C      1  0.4689750000000  0.4651360000000  0.5075300000000 1.0
C      1  0.4966360000000  0.4810800000000  0.4528280000000 1.0
C      1  0.5551660000000  0.4758100000000  0.5022730000000 1.0
C      1  0.5051360000000  0.4956570000000  0.5525290000000 1.0
C      1  0.5304590000000  0.4932700000000  0.5006930000000 1.0
C      1  0.5098070000000  0.4867820000000  0.5265630000000 1.0
C      1  0.4958510000000  0.4736330000000  0.5033050000000 1.0
C      1  0.5090870000000  0.4813190000000  0.4776740000000 1.0
C      1  0.4517360000000  0.4839810000000  0.4648460000000 1.0
C      1  0.5164660000000  0.5179730000000  0.4236080000000 1.0
C      1  0.5743660000000  0.5064440000000  0.5365520000000 1.0
C      1  0.4565910000000  0.4853590000000  0.5483910000000 1.0
C      1  0.4326100000000  0.4988270000000  0.5074120000000 1.0
C      1  0.4691060000000  0.5187430000000  0.4354460000000 1.0
C      1  0.5997990000000  0.4682990000000  0.5230960000000 1.0
C      1  0.4696090000000  0.5217990000000  0.5773110000000 1.0
C      1  0.4622470000000  0.4612600000000  0.5347570000000 1.0
C      1  0.4820440000000  0.4593080000000  0.4451080000000 1.0
C      1  0.5565660000000  0.4532790000000  0.4862560000000 1.0
C      1  0.5257740000000  0.5046810000000  0.5679620000000 1.0
C      1  0.5361290000000  0.5207090000000  0.4975260000000 1.0
END
