TITL C-2782240-8521-708 -0.00106707872413203 125000 -73.1938766091184 0 0 15 (C2) n - 1
REM
REM in /home/nfs/bkarasulu/CARBON/AIRSS/Generating-Clusters/REBO/Higher-Symm/SD-CG/HFTN-CG
REM
REM
REM
REM
REM
REM ./C.cell (12c818d87b63d06a65506943cc24bca4)
REM
REM compiler GCC version 9.2.1 20190827 (Red Hat 9.2.1-1)
REM options -cpp -mtune=generic -march=x86-64 -g -O0 -fpre-include=/usr/include/finclude/math-vector-fortran.h
REM seed 605077278 -69535236 1716513152 -1518419568 -868807332 897735360 -446978569 2141110571 350757478 1062231435 463098945 751233584 -2077578670 1952396242 1399550628 -1372046753 367910718 1937707965 1884912341 1660881551 674205736 402369324 -775217250 1060898737 814886288 657161180 -1598127091 1833616290 1195728656 -2055015422 1979001061 936767420 1197156712
REM
CELL 1.54180   50.00000   50.00000   50.00000   90.00000   90.00000   90.00000
LATT -1
SFAC C  
C      1  0.5265740000000  0.4858770000000  0.5187180000000 1.0
C      1  0.4712550000000  0.4801640000000  0.5168630000000 1.0
C      1  0.5017840000000  0.4860850000000  0.4697350000000 1.0
C      1  0.5280440000000  0.5205940000000  0.5149130000000 1.0
C      1  0.4719830000000  0.5149830000000  0.5136410000000 1.0
C      1  0.5003840000000  0.5207120000000  0.4653890000000 1.0
C      1  0.5280380000000  0.4803530000000  0.4850760000000 1.0
C      1  0.4719780000000  0.4859650000000  0.4863690000000 1.0
C      1  0.5003970000000  0.4802360000000  0.5346110000000 1.0
C      1  0.5265670000000  0.5150710000000  0.4812720000000 1.0
C      1  0.4712490000000  0.5207840000000  0.4831480000000 1.0
C      1  0.5017950000000  0.5148630000000  0.5302650000000 1.0
C      1  0.5514270000000  0.5004740000000  0.4999900000000 1.0
C      1  0.4742710000000  0.5001850000000  0.5445430000000 1.0
C      1  0.4742540000000  0.5007630000000  0.4554660000000 1.0
END
