TITL C-2782238-9940-1264 0.00324095059303618 125000 -923.920918170908 0 0 159 (C1) n - 1
REM
REM in /home/nfs/bkarasulu/CARBON/AIRSS/Generating-Clusters/REBO/Higher-Symm/SD-CG/HFTN-CG
REM
REM
REM
REM
REM
REM ./C.cell (12c818d87b63d06a65506943cc24bca4)
REM
REM compiler GCC version 9.2.1 20190827 (Red Hat 9.2.1-1)
REM options -cpp -mtune=generic -march=x86-64 -g -O0 -fpre-include=/usr/include/finclude/math-vector-fortran.h
REM seed 1519408708 -493506438 -1971806646 1194268847 -391034824 198431510 971947652 110408957 2125024021 -1387445972 -1460880095 -1075488440 -945583966 899554232 -2007963806 -1431813723 -30724267 2084038417 543350296 -850424998 1712151118 143604581 189901564 2091034383 -1585209160 -882529676 -1702727547 1661890563 1715227350 899792781 784920024 68052114 -2127562491
REM
CELL 1.54180   50.00000   50.00000   50.00000   90.00000   90.00000   90.00000
LATT -1
SFAC C  
C      1  0.5829570000000  0.5460070000000  0.4678490000000 1.0
C      1  0.5034170000000  0.5523620000000  0.4179330000000 1.0
C      1  0.4033350000000  0.5532740000000  0.4679560000000 1.0
C      1  0.4583710000000  0.5374540000000  0.5645570000000 1.0
C      1  0.5552560000000  0.5452850000000  0.5546780000000 1.0
C      1  0.5836820000000  0.4547440000000  0.5368510000000 1.0
C      1  0.5028590000000  0.4517030000000  0.5819070000000 1.0
C      1  0.4170300000000  0.4603170000000  0.5148450000000 1.0
C      1  0.4438360000000  0.4508350000000  0.4280350000000 1.0
C      1  0.5532010000000  0.4617860000000  0.4474650000000 1.0
C      1  0.5371210000000  0.3893020000000  0.4709910000000 1.0
C      1  0.4806180000000  0.3956000000000  0.4640050000000 1.0
C      1  0.4487830000000  0.3858160000000  0.5112000000000 1.0
C      1  0.4760830000000  0.3864860000000  0.5382430000000 1.0
C      1  0.5559730000000  0.3837450000000  0.5270880000000 1.0
C      1  0.5342630000000  0.6116360000000  0.5164310000000 1.0
C      1  0.4722550000000  0.6121320000000  0.5521700000000 1.0
C      1  0.4621910000000  0.5992820000000  0.4967890000000 1.0
C      1  0.4836830000000  0.6175180000000  0.4620930000000 1.0
C      1  0.5562330000000  0.6189700000000  0.4709660000000 1.0
C      1  0.4386990000000  0.4691910000000  0.5564630000000 1.0
C      1  0.5403080000000  0.4814170000000  0.5764480000000 1.0
C      1  0.5877400000000  0.4737940000000  0.4893910000000 1.0
C      1  0.5105510000000  0.4747510000000  0.4272850000000 1.0
C      1  0.4189450000000  0.4831490000000  0.4601530000000 1.0
C      1  0.4313950000000  0.5205420000000  0.4414110000000 1.0
C      1  0.5332600000000  0.5291700000000  0.4302910000000 1.0
C      1  0.5969010000000  0.5159150000000  0.5098350000000 1.0
C      1  0.5143800000000  0.5241210000000  0.5759450000000 1.0
C      1  0.4116930000000  0.5235200000000  0.5494430000000 1.0
C      1  0.5023470000000  0.5172700000000  0.5221400000000 1.0
C      1  0.5309220000000  0.5177710000000  0.5073130000000 1.0
C      1  0.5082610000000  0.5191230000000  0.4826360000000 1.0
C      1  0.4749620000000  0.5175740000000  0.4817380000000 1.0
C      1  0.4716650000000  0.5168280000000  0.5137240000000 1.0
C      1  0.4988520000000  0.4860890000000  0.4824960000000 1.0
C      1  0.5285540000000  0.4865460000000  0.4928330000000 1.0
C      1  0.5130680000000  0.4847040000000  0.5202000000000 1.0
C      1  0.4813760000000  0.4838650000000  0.5188370000000 1.0
C      1  0.4662450000000  0.4850550000000  0.4907530000000 1.0
C      1  0.4424870000000  0.4604790000000  0.4702020000000 1.0
C      1  0.4593980000000  0.4539540000000  0.5336750000000 1.0
C      1  0.5138330000000  0.4461360000000  0.5501340000000 1.0
C      1  0.5623430000000  0.4517840000000  0.4971940000000 1.0
C      1  0.5076350000000  0.4571550000000  0.4566300000000 1.0
C      1  0.4610760000000  0.5547140000000  0.5070950000000 1.0
C      1  0.4563780000000  0.5381200000000  0.4508160000000 1.0
C      1  0.5181910000000  0.5536080000000  0.4489090000000 1.0
C      1  0.5541970000000  0.5489480000000  0.4988180000000 1.0
C      1  0.5126320000000  0.5451030000000  0.5484360000000 1.0
C      1  0.5735090000000  0.4240210000000  0.4706530000000 1.0
C      1  0.4885180000000  0.4331610000000  0.4310040000000 1.0
C      1  0.4153230000000  0.4179960000000  0.4882810000000 1.0
C      1  0.4606880000000  0.4279450000000  0.5650240000000 1.0
C      1  0.5567750000000  0.4212990000000  0.5600330000000 1.0
C      1  0.5735250000000  0.5827580000000  0.5304430000000 1.0
C      1  0.4933230000000  0.5721300000000  0.5732920000000 1.0
C      1  0.4195960000000  0.5703730000000  0.5096620000000 1.0
C      1  0.4644920000000  0.5807940000000  0.4324600000000 1.0
C      1  0.5574130000000  0.5806480000000  0.4397950000000 1.0
C      1  0.5804850000000  0.5740870000000  0.4817810000000 1.0
C      1  0.5091160000000  0.5841980000000  0.4251390000000 1.0
C      1  0.4210220000000  0.5755900000000  0.4599450000000 1.0
C      1  0.4483870000000  0.5647460000000  0.5536580000000 1.0
C      1  0.5420720000000  0.5745850000000  0.5584590000000 1.0
C      1  0.5845570000000  0.4275760000000  0.5199890000000 1.0
C      1  0.5002670000000  0.4181780000000  0.5747880000000 1.0
C      1  0.4262250000000  0.4322220000000  0.5284570000000 1.0
C      1  0.4420750000000  0.4285730000000  0.4461310000000 1.0
C      1  0.5399190000000  0.4331460000000  0.4418290000000 1.0
C      1  0.4824100000000  0.4800950000000  0.4546960000000 1.0
C      1  0.4336470000000  0.4773020000000  0.4965240000000 1.0
C      1  0.4770350000000  0.4782410000000  0.5501530000000 1.0
C      1  0.5610340000000  0.4800660000000  0.5359380000000 1.0
C      1  0.5503220000000  0.4729490000000  0.4762450000000 1.0
C      1  0.4847510000000  0.5254940000000  0.5500550000000 1.0
C      1  0.4420570000000  0.5277020000000  0.5014590000000 1.0
C      1  0.4823630000000  0.5194650000000  0.4496630000000 1.0
C      1  0.5587550000000  0.5253700000000  0.4766360000000 1.0
C      1  0.5513880000000  0.5328560000000  0.5269260000000 1.0
C      1  0.4736680000000  0.5688200000000  0.5231500000000 1.0
C      1  0.5174260000000  0.5636760000000  0.5292130000000 1.0
C      1  0.5410910000000  0.5736020000000  0.4885440000000 1.0
C      1  0.5080820000000  0.5715600000000  0.4660550000000 1.0
C      1  0.4551460000000  0.5577940000000  0.4695040000000 1.0
C      1  0.4615890000000  0.4413620000000  0.4785700000000 1.0
C      1  0.5167650000000  0.4392110000000  0.4735990000000 1.0
C      1  0.5470410000000  0.4321450000000  0.5075050000000 1.0
C      1  0.4998700000000  0.4314580000000  0.5289480000000 1.0
C      1  0.4603920000000  0.4375060000000  0.5087580000000 1.0
C      1  0.4465170000000  0.4930830000000  0.5788780000000 1.0
C      1  0.5604400000000  0.5023890000000  0.5770130000000 1.0
C      1  0.5966180000000  0.4968300000000  0.4656340000000 1.0
C      1  0.4940290000000  0.4975000000000  0.4097730000000 1.0
C      1  0.3961450000000  0.5035070000000  0.4752170000000 1.0
C      1  0.4391720000000  0.4988770000000  0.4170970000000 1.0
C      1  0.5549640000000  0.5056590000000  0.4302020000000 1.0
C      1  0.6018620000000  0.5011200000000  0.5385150000000 1.0
C      1  0.4999860000000  0.5002860000000  0.5958480000000 1.0
C      1  0.3985240000000  0.5012530000000  0.5324030000000 1.0
C      1  0.4359740000000  0.5182200000000  0.5697020000000 1.0
C      1  0.5460970000000  0.5269140000000  0.5758920000000 1.0
C      1  0.5987500000000  0.5210640000000  0.4820240000000 1.0
C      1  0.5083890000000  0.5221330000000  0.4097960000000 1.0
C      1  0.4064140000000  0.5264380000000  0.4583230000000 1.0
C      1  0.4298840000000  0.4752750000000  0.4313420000000 1.0
C      1  0.5417770000000  0.4807030000000  0.4281530000000 1.0
C      1  0.5977060000000  0.4771670000000  0.5203750000000 1.0
C      1  0.5165750000000  0.4765410000000  0.5920340000000 1.0
C      1  0.4106320000000  0.4764160000000  0.5395040000000 1.0
C      1  0.4288200000000  0.5685290000000  0.5357270000000 1.0
C      1  0.5203520000000  0.5784800000000  0.5738730000000 1.0
C      1  0.5876160000000  0.5817930000000  0.5064280000000 1.0
C      1  0.5357490000000  0.5899730000000  0.4245890000000 1.0
C      1  0.4369440000000  0.5821100000000  0.4377280000000 1.0
C      1  0.4212690000000  0.4176650000000  0.4609850000000 1.0
C      1  0.5163440000000  0.4301480000000  0.4284980000000 1.0
C      1  0.5894760000000  0.4226470000000  0.4937580000000 1.0
C      1  0.5308980000000  0.4261900000000  0.5692300000000 1.0
C      1  0.4350790000000  0.4294720000000  0.5538700000000 1.0
C      1  0.4385780000000  0.5813580000000  0.4875930000000 1.0
C      1  0.4744680000000  0.5844360000000  0.5523390000000 1.0
C      1  0.5417410000000  0.5878510000000  0.5284240000000 1.0
C      1  0.5574320000000  0.5913590000000  0.4679750000000 1.0
C      1  0.4880280000000  0.5929300000000  0.4502100000000 1.0
C      1  0.4390180000000  0.4115330000000  0.5074330000000 1.0
C      1  0.4726140000000  0.4208420000000  0.4556220000000 1.0
C      1  0.5425330000000  0.4167050000000  0.4697590000000 1.0
C      1  0.5593070000000  0.4110030000000  0.5311500000000 1.0
C      1  0.4822990000000  0.4119630000000  0.5479240000000 1.0
C      1  0.5799620000000  0.5652270000000  0.5507450000000 1.0
C      1  0.5744250000000  0.5586640000000  0.4389950000000 1.0
C      1  0.4740800000000  0.5632400000000  0.4138410000000 1.0
C      1  0.3983050000000  0.5563840000000  0.4964290000000 1.0
C      1  0.4828180000000  0.5484450000000  0.5827240000000 1.0
C      1  0.5782370000000  0.4423010000000  0.4504780000000 1.0
C      1  0.5765740000000  0.4402680000000  0.5640420000000 1.0
C      1  0.4715500000000  0.4443260000000  0.5840460000000 1.0
C      1  0.4000530000000  0.4382950000000  0.4988670000000 1.0
C      1  0.4703250000000  0.4499860000000  0.4162950000000 1.0
C      1  0.4351110000000  0.5170220000000  0.5298280000000 1.0
C      1  0.5036500000000  0.4974530000000  0.5565980000000 1.0
C      1  0.5664170000000  0.5055110000000  0.5209270000000 1.0
C      1  0.5335040000000  0.5195080000000  0.4617470000000 1.0
C      1  0.4552120000000  0.4983840000000  0.4533980000000 1.0
C      1  0.4352930000000  0.5069990000000  0.4796240000000 1.0
C      1  0.5084180000000  0.5025380000000  0.4465820000000 1.0
C      1  0.5658140000000  0.5000220000000  0.4903240000000 1.0
C      1  0.5310950000000  0.4798190000000  0.5456940000000 1.0
C      1  0.4498620000000  0.4956880000000  0.5393890000000 1.0
C      1  0.5856180000000  0.5018000000000  0.5624880000000 1.0
C      1  0.5807950000000  0.5024120000000  0.4421260000000 1.0
C      1  0.4715720000000  0.4954350000000  0.5928410000000 1.0
C      1  0.4657940000000  0.4980190000000  0.4070240000000 1.0
C      1  0.3919880000000  0.5041490000000  0.5038700000000 1.0
C      1  0.5113060000000  0.5789520000000  0.4992710000000 1.0
C      1  0.5155040000000  0.4233400000000  0.5034330000000 1.0
C      1  0.4866940000000  0.5986580000000  0.5000090000000 1.0
C      1  0.5109110000000  0.3954020000000  0.4994790000000 1.0
END
