TITL C-2782227-3064-807 0.000572766394417108 125000 -856.590406179538 0 0 146 (C1) n - 1
REM
REM in /home/nfs/bkarasulu/CARBON/AIRSS/Generating-Clusters/REBO/Higher-Symm/SD-CG/HFTN-CG
REM
REM
REM
REM
REM
REM ./C.cell (12c818d87b63d06a65506943cc24bca4)
REM
REM compiler GCC version 9.2.1 20190827 (Red Hat 9.2.1-1)
REM options -cpp -mtune=generic -march=x86-64 -g -O0 -fpre-include=/usr/include/finclude/math-vector-fortran.h
REM seed -1622019309 1499364638 1026332723 -459216970 852898076 1373973791 -1917429733 747605272 -1501049030 22457793 -1423741649 -390737180 -913423334 121732231 -673806840 1193020614 1745591541 245370350 -582455776 1991612642 -2111317589 316246820 -292957774 -1124659645 -1333270003 -872482235 893883738 1725716097 -917220945 954820894 -1842682215 1851106584 -869483570
REM
CELL 1.54180   50.00000   50.00000   50.00000   90.00000   90.00000   90.00000
LATT -1
SFAC C  
C      1  0.4395400000000  0.5327100000000  0.4283700000000 1.0
C      1  0.5027830000000  0.4327150000000  0.4270510000000 1.0
C      1  0.5581560000000  0.5354860000000  0.4266720000000 1.0
C      1  0.5594860000000  0.5321420000000  0.5726610000000 1.0
C      1  0.4973620000000  0.4319200000000  0.5725940000000 1.0
C      1  0.4413750000000  0.5350540000000  0.5734410000000 1.0
C      1  0.5587040000000  0.4650690000000  0.5654180000000 1.0
C      1  0.4991660000000  0.5684630000000  0.5670720000000 1.0
C      1  0.4395750000000  0.4657480000000  0.5660140000000 1.0
C      1  0.4407990000000  0.4657740000000  0.4350850000000 1.0
C      1  0.5004100000000  0.5689880000000  0.4338620000000 1.0
C      1  0.5601250000000  0.4669270000000  0.4337830000000 1.0
C      1  0.5307970000000  0.5963260000000  0.4740880000000 1.0
C      1  0.4041230000000  0.4760360000000  0.4778040000000 1.0
C      1  0.5687100000000  0.4295260000000  0.4768720000000 1.0
C      1  0.4688890000000  0.5845790000000  0.5192010000000 1.0
C      1  0.5958060000000  0.4762170000000  0.5231120000000 1.0
C      1  0.4313610000000  0.4287020000000  0.5230590000000 1.0
C      1  0.4640120000000  0.4201390000000  0.5193480000000 1.0
C      1  0.5871570000000  0.5089100000000  0.5194850000000 1.0
C      1  0.4412510000000  0.5664520000000  0.5200240000000 1.0
C      1  0.5361450000000  0.4205040000000  0.4803040000000 1.0
C      1  0.4126730000000  0.5086200000000  0.4824700000000 1.0
C      1  0.5547270000000  0.5724440000000  0.4785940000000 1.0
C      1  0.5052850000000  0.4052000000000  0.5439590000000 1.0
C      1  0.5789110000000  0.5522360000000  0.5440960000000 1.0
C      1  0.4105950000000  0.5404520000000  0.5485020000000 1.0
C      1  0.4948500000000  0.4058680000000  0.4555560000000 1.0
C      1  0.4230450000000  0.5523790000000  0.4589970000000 1.0
C      1  0.5862760000000  0.5423090000000  0.4542510000000 1.0
C      1  0.4906510000000  0.6059660000000  0.4455070000000 1.0
C      1  0.4153460000000  0.4379690000000  0.4487360000000 1.0
C      1  0.5969760000000  0.4582800000000  0.4486250000000 1.0
C      1  0.5083130000000  0.6006590000000  0.5451950000000 1.0
C      1  0.5844600000000  0.4375030000000  0.5513720000000 1.0
C      1  0.4023080000000  0.4560720000000  0.5518610000000 1.0
C      1  0.5792170000000  0.4362850000000  0.4506750000000 1.0
C      1  0.5187510000000  0.6014030000000  0.4479420000000 1.0
C      1  0.4045380000000  0.4641250000000  0.4514000000000 1.0
C      1  0.4207850000000  0.4347500000000  0.5494090000000 1.0
C      1  0.4804900000000  0.5950850000000  0.5441360000000 1.0
C      1  0.5951000000000  0.4637720000000  0.5493250000000 1.0
C      1  0.4287090000000  0.5604700000000  0.5454440000000 1.0
C      1  0.4790140000000  0.4118960000000  0.5433640000000 1.0
C      1  0.5860520000000  0.5260630000000  0.5435080000000 1.0
C      1  0.5681540000000  0.5624180000000  0.4543950000000 1.0
C      1  0.5211260000000  0.4125680000000  0.4562020000000 1.0
C      1  0.4147610000000  0.5265090000000  0.4590480000000 1.0
C      1  0.4354420000000  0.4232290000000  0.4585840000000 1.0
C      1  0.5999880000000  0.4828430000000  0.4587800000000 1.0
C      1  0.4684230000000  0.5954960000000  0.4566140000000 1.0
C      1  0.5645290000000  0.4227640000000  0.5412090000000 1.0
C      1  0.3989340000000  0.4807810000000  0.5422160000000 1.0
C      1  0.5332290000000  0.5938660000000  0.5381160000000 1.0
C      1  0.5582250000000  0.5714060000000  0.5321900000000 1.0
C      1  0.4082300000000  0.5129410000000  0.5359030000000 1.0
C      1  0.5322280000000  0.4150310000000  0.5334750000000 1.0
C      1  0.4454070000000  0.5724240000000  0.4669240000000 1.0
C      1  0.5903550000000  0.5146860000000  0.4661690000000 1.0
C      1  0.4677940000000  0.4154640000000  0.4660780000000 1.0
C      1  0.4560550000000  0.4826180000000  0.5414480000000 1.0
C      1  0.5358700000000  0.4714130000000  0.5409580000000 1.0
C      1  0.5062550000000  0.5465710000000  0.5419130000000 1.0
C      1  0.5435780000000  0.4834590000000  0.4585370000000 1.0
C      1  0.4639430000000  0.4715960000000  0.4593800000000 1.0
C      1  0.4934020000000  0.5469030000000  0.4588390000000 1.0
C      1  0.5445110000000  0.5167560000000  0.4516330000000 1.0
C      1  0.4637730000000  0.5314870000000  0.4523380000000 1.0
C      1  0.4919120000000  0.4537220000000  0.4517040000000 1.0
C      1  0.4546170000000  0.5158270000000  0.5486100000000 1.0
C      1  0.5356500000000  0.5306820000000  0.5482520000000 1.0
C      1  0.5079190000000  0.4533090000000  0.5481550000000 1.0
C      1  0.4303560000000  0.4767980000000  0.4994750000000 1.0
C      1  0.5547620000000  0.4520280000000  0.4982380000000 1.0
C      1  0.5181830000000  0.5724590000000  0.4946600000000 1.0
C      1  0.5693810000000  0.4770450000000  0.5016940000000 1.0
C      1  0.4452030000000  0.4517590000000  0.5022150000000 1.0
C      1  0.4899940000000  0.5706910000000  0.4970730000000 1.0
C      1  0.5682760000000  0.5093730000000  0.4910300000000 1.0
C      1  0.4596180000000  0.5557940000000  0.4930700000000 1.0
C      1  0.4737870000000  0.4368360000000  0.4911880000000 1.0
C      1  0.4309370000000  0.5087610000000  0.5112860000000 1.0
C      1  0.5447940000000  0.5551210000000  0.5064300000000 1.0
C      1  0.5261500000000  0.4367330000000  0.5086460000000 1.0
C      1  0.4984980000000  0.4547010000000  0.5170170000000 1.0
C      1  0.5407090000000  0.5229660000000  0.5169190000000 1.0
C      1  0.4603830000000  0.5244650000000  0.5178540000000 1.0
C      1  0.5014250000000  0.4549600000000  0.4830450000000 1.0
C      1  0.4606740000000  0.5229980000000  0.4837680000000 1.0
C      1  0.5384960000000  0.5235730000000  0.4828310000000 1.0
C      1  0.5057550000000  0.5326230000000  0.4844350000000 1.0
C      1  0.4700870000000  0.4902830000000  0.4845020000000 1.0
C      1  0.5247850000000  0.4796530000000  0.4839100000000 1.0
C      1  0.4934040000000  0.5325160000000  0.5161940000000 1.0
C      1  0.5299710000000  0.4906350000000  0.5157380000000 1.0
C      1  0.4751230000000  0.4791860000000  0.5162940000000 1.0
C      1  0.4859100000000  0.5574550000000  0.4098370000000 1.0
C      1  0.4572520000000  0.4600760000000  0.4102670000000 1.0
C      1  0.5560320000000  0.4839150000000  0.4089770000000 1.0
C      1  0.5127150000000  0.5565060000000  0.5913560000000 1.0
C      1  0.5421290000000  0.4592980000000  0.5901080000000 1.0
C      1  0.4432680000000  0.4829400000000  0.5907860000000 1.0
C      1  0.5138540000000  0.4497040000000  0.5921170000000 1.0
C      1  0.5358280000000  0.5373340000000  0.5923720000000 1.0
C      1  0.4492370000000  0.5122940000000  0.5930690000000 1.0
C      1  0.4855390000000  0.4504790000000  0.4080960000000 1.0
C      1  0.4630940000000  0.5381510000000  0.4086990000000 1.0
C      1  0.5499050000000  0.5132290000000  0.4066910000000 1.0
C      1  0.5809810000000  0.5112810000000  0.5687080000000 1.0
C      1  0.4466390000000  0.5644330000000  0.5689420000000 1.0
C      1  0.4686920000000  0.4234310000000  0.5686660000000 1.0
C      1  0.4181920000000  0.5121500000000  0.4332290000000 1.0
C      1  0.5520020000000  0.5647430000000  0.4296760000000 1.0
C      1  0.5314730000000  0.4243730000000  0.4310370000000 1.0
C      1  0.4164350000000  0.4837850000000  0.4321560000000 1.0
C      1  0.5569090000000  0.4369780000000  0.4308410000000 1.0
C      1  0.5282890000000  0.5802280000000  0.4290900000000 1.0
C      1  0.5829770000000  0.4829460000000  0.5688860000000 1.0
C      1  0.4431810000000  0.4358540000000  0.5690960000000 1.0
C      1  0.4707640000000  0.5794030000000  0.5676790000000 1.0
C      1  0.5053780000000  0.4720400000000  0.4258260000000 1.0
C      1  0.5220430000000  0.5195870000000  0.4256690000000 1.0
C      1  0.4719710000000  0.5102700000000  0.4264540000000 1.0
C      1  0.4941340000000  0.4711930000000  0.5741890000000 1.0
C      1  0.4772760000000  0.5187450000000  0.5743970000000 1.0
C      1  0.5271710000000  0.5096010000000  0.5741730000000 1.0
C      1  0.5030170000000  0.5295180000000  0.5711890000000 1.0
C      1  0.4717870000000  0.4878160000000  0.5711820000000 1.0
C      1  0.5236100000000  0.4820050000000  0.5709180000000 1.0
C      1  0.4962630000000  0.5301510000000  0.4292860000000 1.0
C      1  0.5276840000000  0.4887000000000  0.4288650000000 1.0
C      1  0.4758890000000  0.4826770000000  0.4294840000000 1.0
C      1  0.6070870000000  0.5178390000000  0.4948150000000 1.0
C      1  0.4371230000000  0.5883350000000  0.4958160000000 1.0
C      1  0.4618300000000  0.3988620000000  0.4943160000000 1.0
C      1  0.3920660000000  0.5166300000000  0.5069160000000 1.0
C      1  0.5712940000000  0.5849100000000  0.5045350000000 1.0
C      1  0.5383420000000  0.3988770000000  0.5050170000000 1.0
C      1  0.3988300000000  0.4838790000000  0.5104610000000 1.0
C      1  0.5633280000000  0.4209460000000  0.5093900000000 1.0
C      1  0.5397320000000  0.5959710000000  0.5069420000000 1.0
C      1  0.6006510000000  0.4850490000000  0.4906030000000 1.0
C      1  0.4367500000000  0.4209070000000  0.4903460000000 1.0
C      1  0.4690670000000  0.5962340000000  0.4880890000000 1.0
C      1  0.5004110000000  0.5008770000000  0.4801650000000 1.0
C      1  0.4993830000000  0.5007040000000  0.5199950000000 1.0
END
