TITL C-2782227-3064-1213 1.44753059151301e-07 125000 -55.7202500419978 0 0 10 (D(inf)h) n - 1
REM
REM in /home/nfs/bkarasulu/CARBON/AIRSS/Generating-Clusters/REBO/Higher-Symm/SD-CG/HFTN-CG
REM
REM
REM
REM
REM
REM ./C.cell (12c818d87b63d06a65506943cc24bca4)
REM
REM compiler GCC version 9.2.1 20190827 (Red Hat 9.2.1-1)
REM options -cpp -mtune=generic -march=x86-64 -g -O0 -fpre-include=/usr/include/finclude/math-vector-fortran.h
REM seed -837832091 324511639 -952409334 -1787825940 104019013 1152383487 -1174692259 -1697480506 525434262 -793654720 -1861287026 606278986 743594392 825819466 -1593828648 1952681221 -1374743066 67488463 -364478710 550504952 -561933592 -1329365947 858137557 -1922112101 2143683950 118982743 -599402740 1251616367 -1005811260 -813645286 612512232 -90516986 1325259568
REM
CELL 1.54180   50.00000   50.00000   50.00000   90.00000   90.00000   90.00000
LATT -1
SFAC C  
C      1  0.5665770000000  0.5004160000000  0.4998130000000 1.0
C      1  0.4067920000000  0.5004160000000  0.4998130000000 1.0
C      1  0.4600540000000  0.5004160000000  0.4998130000000 1.0
C      1  0.3805850000000  0.5004160000000  0.4998130000000 1.0
C      1  0.4334230000000  0.5004160000000  0.4998130000000 1.0
C      1  0.5932080000000  0.5004160000000  0.4998130000000 1.0
C      1  0.6194150000000  0.5004160000000  0.4998130000000 1.0
C      1  0.5399460000000  0.5004160000000  0.4998130000000 1.0
C      1  0.5133150000000  0.5004160000000  0.4998130000000 1.0
C      1  0.4866850000000  0.5004160000000  0.4998130000000 1.0
END
