TITL C-2782240-8521-1207 0.00386245029219789 125000 -861.73465680373 0 0 144 (C1) n - 1
REM
REM in /home/nfs/bkarasulu/CARBON/AIRSS/Generating-Clusters/REBO/Higher-Symm/SD-CG/HFTN-CG
REM
REM
REM
REM
REM
REM ./C.cell (12c818d87b63d06a65506943cc24bca4)
REM
REM compiler GCC version 9.2.1 20190827 (Red Hat 9.2.1-1)
REM options -cpp -mtune=generic -march=x86-64 -g -O0 -fpre-include=/usr/include/finclude/math-vector-fortran.h
REM seed 455148633 -231405906 1940651007 751545282 102015693 -1858232061 -1018982647 -915113070 -812793997 -491341699 2053522854 1159403900 1733142771 651675952 2046384326 1894942338 2006854120 -868045742 -1717687454 -1529842655 304140981 -487741664 1035272882 -1593756966 1071872526 -412323552 2073977818 -2063912066 1801249674 -1008509826 795012516 -1337083044 -1565596710
REM
CELL 1.54180   50.00000   50.00000   50.00000   90.00000   90.00000   90.00000
LATT -1
SFAC C  
C      1  0.5658760000000  0.5146540000000  0.4342610000000 1.0
C      1  0.5683630000000  0.4365410000000  0.5251240000000 1.0
C      1  0.5732750000000  0.5550220000000  0.5423650000000 1.0
C      1  0.5425480000000  0.4320190000000  0.4574010000000 1.0
C      1  0.5378090000000  0.4924240000000  0.5829970000000 1.0
C      1  0.5392720000000  0.5774640000000  0.4655530000000 1.0
C      1  0.4856910000000  0.5538700000000  0.5612800000000 1.0
C      1  0.4777390000000  0.5311600000000  0.4179960000000 1.0
C      1  0.4805770000000  0.4061280000000  0.5166470000000 1.0
C      1  0.5080090000000  0.5471110000000  0.5457140000000 1.0
C      1  0.4973980000000  0.5153840000000  0.4387460000000 1.0
C      1  0.4996160000000  0.4344510000000  0.5173680000000 1.0
C      1  0.3987750000000  0.4861070000000  0.4879620000000 1.0
C      1  0.4003470000000  0.4956400000000  0.5203300000000 1.0
C      1  0.4020380000000  0.5191400000000  0.4957620000000 1.0
C      1  0.4990470000000  0.4523440000000  0.4689350000000 1.0
C      1  0.4927620000000  0.4987350000000  0.5587140000000 1.0
C      1  0.4886810000000  0.5561790000000  0.4643540000000 1.0
C      1  0.4261770000000  0.4312190000000  0.4871310000000 1.0
C      1  0.4306050000000  0.5181560000000  0.5641840000000 1.0
C      1  0.4273210000000  0.5452830000000  0.4475620000000 1.0
C      1  0.5018840000000  0.4032600000000  0.5422370000000 1.0
C      1  0.5061950000000  0.5877040000000  0.5662580000000 1.0
C      1  0.4994140000000  0.5144690000000  0.3988330000000 1.0
C      1  0.5218410000000  0.5693700000000  0.5345080000000 1.0
C      1  0.5165300000000  0.4923460000000  0.4273620000000 1.0
C      1  0.5143000000000  0.4409780000000  0.5461250000000 1.0
C      1  0.5150260000000  0.4215390000000  0.4493290000000 1.0
C      1  0.5102410000000  0.4930280000000  0.5941750000000 1.0
C      1  0.5117670000000  0.5874350000000  0.4550480000000 1.0
C      1  0.4670520000000  0.5043100000000  0.4029430000000 1.0
C      1  0.4686620000000  0.4107570000000  0.5464890000000 1.0
C      1  0.4746320000000  0.5828790000000  0.5542830000000 1.0
C      1  0.5115720000000  0.4914860000000  0.5242490000000 1.0
C      1  0.5122650000000  0.5374040000000  0.5033150000000 1.0
C      1  0.5037920000000  0.4895600000000  0.4824140000000 1.0
C      1  0.5473850000000  0.4564070000000  0.4419710000000 1.0
C      1  0.5440860000000  0.4674780000000  0.5705610000000 1.0
C      1  0.5482570000000  0.5754240000000  0.4947770000000 1.0
C      1  0.4520910000000  0.5265560000000  0.5029870000000 1.0
C      1  0.4465340000000  0.4872500000000  0.4719550000000 1.0
C      1  0.4500090000000  0.4808440000000  0.5207820000000 1.0
C      1  0.6036910000000  0.4761750000000  0.4676790000000 1.0
C      1  0.6039390000000  0.4847600000000  0.5299110000000 1.0
C      1  0.6041170000000  0.5376910000000  0.4922970000000 1.0
C      1  0.5440830000000  0.4287440000000  0.5374480000000 1.0
C      1  0.5500280000000  0.5712520000000  0.5481460000000 1.0
C      1  0.5435210000000  0.5079450000000  0.4188880000000 1.0
C      1  0.5127730000000  0.4748430000000  0.4530110000000 1.0
C      1  0.4976410000000  0.4686890000000  0.5434850000000 1.0
C      1  0.4919680000000  0.5601240000000  0.4937440000000 1.0
C      1  0.5277430000000  0.5690200000000  0.5738090000000 1.0
C      1  0.5254330000000  0.5277840000000  0.4059130000000 1.0
C      1  0.5275160000000  0.4071100000000  0.5250740000000 1.0
C      1  0.5912510000000  0.4483410000000  0.4820500000000 1.0
C      1  0.5883820000000  0.5049460000000  0.5517630000000 1.0
C      1  0.5787020000000  0.5419510000000  0.4716520000000 1.0
C      1  0.5260450000000  0.4492100000000  0.5834500000000 1.0
C      1  0.5340150000000  0.6019670000000  0.4965930000000 1.0
C      1  0.5299190000000  0.4543090000000  0.4191270000000 1.0
C      1  0.5266960000000  0.4085110000000  0.4956980000000 1.0
C      1  0.5239300000000  0.5420890000000  0.5849740000000 1.0
C      1  0.5245280000000  0.5537150000000  0.4181200000000 1.0
C      1  0.4285530000000  0.4394030000000  0.5191050000000 1.0
C      1  0.4338990000000  0.5432780000000  0.5432440000000 1.0
C      1  0.4252030000000  0.5143850000000  0.4363780000000 1.0
C      1  0.5688200000000  0.5279400000000  0.5574570000000 1.0
C      1  0.5655580000000  0.5394580000000  0.4471670000000 1.0
C      1  0.5717490000000  0.4301600000000  0.4975940000000 1.0
C      1  0.4513430000000  0.4354830000000  0.5411780000000 1.0
C      1  0.4568710000000  0.5637670000000  0.5355430000000 1.0
C      1  0.4429360000000  0.4939580000000  0.4183140000000 1.0
C      1  0.4488650000000  0.4609240000000  0.4121710000000 1.0
C      1  0.4462210000000  0.4464820000000  0.5699210000000 1.0
C      1  0.4572170000000  0.5791780000000  0.5064230000000 1.0
C      1  0.4922580000000  0.4818500000000  0.4072850000000 1.0
C      1  0.4918900000000  0.4264010000000  0.5657970000000 1.0
C      1  0.4992410000000  0.5927620000000  0.5328040000000 1.0
C      1  0.4049000000000  0.5416690000000  0.4708310000000 1.0
C      1  0.4043770000000  0.4535320000000  0.4812110000000 1.0
C      1  0.4041810000000  0.5049890000000  0.5520260000000 1.0
C      1  0.5514230000000  0.4838490000000  0.4551810000000 1.0
C      1  0.5515070000000  0.4689730000000  0.5412700000000 1.0
C      1  0.5435520000000  0.5484700000000  0.5085760000000 1.0
C      1  0.5824670000000  0.4610630000000  0.5353080000000 1.0
C      1  0.5935020000000  0.5496030000000  0.5224080000000 1.0
C      1  0.5814510000000  0.4935330000000  0.4510290000000 1.0
C      1  0.4752660000000  0.5594920000000  0.4270510000000 1.0
C      1  0.4793220000000  0.4165780000000  0.4881900000000 1.0
C      1  0.4781820000000  0.5314210000000  0.5764800000000 1.0
C      1  0.4148400000000  0.5569800000000  0.4954110000000 1.0
C      1  0.4123380000000  0.4673360000000  0.4555660000000 1.0
C      1  0.4092930000000  0.4747130000000  0.5531330000000 1.0
C      1  0.5084290000000  0.6009810000000  0.4826780000000 1.0
C      1  0.5067640000000  0.4376140000000  0.4257770000000 1.0
C      1  0.5027870000000  0.4640680000000  0.5933470000000 1.0
C      1  0.5498370000000  0.4209670000000  0.4830230000000 1.0
C      1  0.5444810000000  0.5203900000000  0.5739820000000 1.0
C      1  0.5407060000000  0.5544530000000  0.4457930000000 1.0
C      1  0.4360040000000  0.4557200000000  0.4417170000000 1.0
C      1  0.4279380000000  0.4678480000000  0.5737170000000 1.0
C      1  0.4356650000000  0.5753580000000  0.4885560000000 1.0
C      1  0.4797990000000  0.4540250000000  0.4194520000000 1.0
C      1  0.4760790000000  0.4505120000000  0.5822430000000 1.0
C      1  0.4877440000000  0.5906410000000  0.5036220000000 1.0
C      1  0.4768460000000  0.4430280000000  0.4515940000000 1.0
C      1  0.4710520000000  0.4841480000000  0.5803680000000 1.0
C      1  0.4670930000000  0.5794680000000  0.4516610000000 1.0
C      1  0.4604670000000  0.5405110000000  0.4529240000000 1.0
C      1  0.4586060000000  0.4390950000000  0.4868720000000 1.0
C      1  0.4620600000000  0.5142730000000  0.5558910000000 1.0
C      1  0.5970630000000  0.5075930000000  0.4775860000000 1.0
C      1  0.5977460000000  0.4754340000000  0.5012660000000 1.0
C      1  0.6019570000000  0.5167900000000  0.5181020000000 1.0
C      1  0.4944200000000  0.5163420000000  0.5191800000000 1.0
C      1  0.4823690000000  0.4998380000000  0.4600060000000 1.0
C      1  0.4870280000000  0.4777030000000  0.5062000000000 1.0
C      1  0.4631160000000  0.5075690000000  0.5256510000000 1.0
C      1  0.4578680000000  0.5174990000000  0.4753420000000 1.0
C      1  0.4590780000000  0.4685690000000  0.4926470000000 1.0
C      1  0.4750310000000  0.5443830000000  0.5157160000000 1.0
C      1  0.4601770000000  0.4799080000000  0.4440910000000 1.0
C      1  0.4703570000000  0.4583580000000  0.5296080000000 1.0
C      1  0.5325800000000  0.5120130000000  0.4582480000000 1.0
C      1  0.5394010000000  0.4617200000000  0.5102600000000 1.0
C      1  0.5427600000000  0.5302150000000  0.5354410000000 1.0
C      1  0.4161310000000  0.4981730000000  0.4613200000000 1.0
C      1  0.4208040000000  0.4695070000000  0.5241420000000 1.0
C      1  0.4244840000000  0.5347100000000  0.5147870000000 1.0
C      1  0.4402840000000  0.5741240000000  0.4603520000000 1.0
C      1  0.4453510000000  0.4317560000000  0.4584750000000 1.0
C      1  0.4425420000000  0.4914420000000  0.5816850000000 1.0
C      1  0.5010420000000  0.5217800000000  0.5910880000000 1.0
C      1  0.5038980000000  0.5722670000000  0.4308900000000 1.0
C      1  0.5041400000000  0.4119140000000  0.4755590000000 1.0
C      1  0.5122080000000  0.5388470000000  0.4529900000000 1.0
C      1  0.5118030000000  0.4483650000000  0.4953940000000 1.0
C      1  0.5165080000000  0.5180630000000  0.5538950000000 1.0
C      1  0.5385960000000  0.5243040000000  0.4860190000000 1.0
C      1  0.5351290000000  0.4828230000000  0.4848710000000 1.0
C      1  0.5397310000000  0.4967990000000  0.5293220000000 1.0
C      1  0.5656840000000  0.4692000000000  0.4914100000000 1.0
C      1  0.5701610000000  0.5044700000000  0.5226930000000 1.0
C      1  0.5695910000000  0.5181040000000  0.4946730000000 1.0
END
