TITL C-2782238-9940-954 -0.00458471805326042 125000 -940.03064874273 0 0 162 (C1) n - 1
REM
REM in /home/nfs/bkarasulu/CARBON/AIRSS/Generating-Clusters/REBO/Higher-Symm/SD-CG/HFTN-CG
REM
REM
REM
REM
REM
REM ./C.cell (12c818d87b63d06a65506943cc24bca4)
REM
REM compiler GCC version 9.2.1 20190827 (Red Hat 9.2.1-1)
REM options -cpp -mtune=generic -march=x86-64 -g -O0 -fpre-include=/usr/include/finclude/math-vector-fortran.h
REM seed -827777818 1769655606 2062102527 96728996 1450015400 1712715180 268543101 -422417919 -471506015 -454242704 -1517517348 -1038140032 46411195 554328807 1674952952 -144798908 -1795789147 599999897 1235331535 758828960 -128240040 -1137905404 -2136706725 1291909869 749467056 -1578362731 -1992261673 -596472495 -602408661 -1079907122 696484206 1701074439 -516194261
REM
CELL 1.54180   50.00000   50.00000   50.00000   90.00000   90.00000   90.00000
LATT -1
SFAC C  
C      1  0.5605460000000  0.4556350000000  0.4619430000000 1.0
C      1  0.4775070000000  0.4556820000000  0.4361360000000 1.0
C      1  0.4321570000000  0.4526920000000  0.4967660000000 1.0
C      1  0.4803100000000  0.4540270000000  0.5656170000000 1.0
C      1  0.5547310000000  0.4540310000000  0.5426450000000 1.0
C      1  0.4298800000000  0.4787850000000  0.5573540000000 1.0
C      1  0.5294690000000  0.4745200000000  0.5815090000000 1.0
C      1  0.5915340000000  0.4800480000000  0.4973970000000 1.0
C      1  0.5254220000000  0.4765380000000  0.4153950000000 1.0
C      1  0.4266330000000  0.4750030000000  0.4462700000000 1.0
C      1  0.4555310000000  0.4356720000000  0.4193400000000 1.0
C      1  0.4108510000000  0.4327530000000  0.5144280000000 1.0
C      1  0.4860520000000  0.4301600000000  0.5887950000000 1.0
C      1  0.5778590000000  0.4298230000000  0.5400570000000 1.0
C      1  0.5594930000000  0.4352480000000  0.4365210000000 1.0
C      1  0.4161060000000  0.4671100000000  0.4757610000000 1.0
C      1  0.4560210000000  0.4691760000000  0.5731480000000 1.0
C      1  0.5570910000000  0.4693530000000  0.5677710000000 1.0
C      1  0.5849990000000  0.4698190000000  0.4685780000000 1.0
C      1  0.4950880000000  0.4679600000000  0.4154590000000 1.0
C      1  0.4164970000000  0.5622280000000  0.5015610000000 1.0
C      1  0.4765000000000  0.5644650000000  0.5794200000000 1.0
C      1  0.5695550000000  0.5647170000000  0.5468410000000 1.0
C      1  0.5650910000000  0.5637360000000  0.4489620000000 1.0
C      1  0.4715010000000  0.5628630000000  0.4202280000000 1.0
C      1  0.4444490000000  0.5382630000000  0.4862320000000 1.0
C      1  0.4712900000000  0.5406230000000  0.5478980000000 1.0
C      1  0.5388830000000  0.5397480000000  0.5412230000000 1.0
C      1  0.5588560000000  0.5400650000000  0.4821010000000 1.0
C      1  0.4953660000000  0.5396610000000  0.4420090000000 1.0
C      1  0.4599820000000  0.5410920000000  0.4561780000000 1.0
C      1  0.4471860000000  0.5424640000000  0.5240510000000 1.0
C      1  0.5086300000000  0.5422130000000  0.5558000000000 1.0
C      1  0.5556330000000  0.5462160000000  0.5143260000000 1.0
C      1  0.5286190000000  0.5432220000000  0.4479170000000 1.0
C      1  0.4068390000000  0.5351270000000  0.4989250000000 1.0
C      1  0.4710990000000  0.5374320000000  0.5877460000000 1.0
C      1  0.5761840000000  0.5376470000000  0.5550840000000 1.0
C      1  0.5752770000000  0.5370720000000  0.4458200000000 1.0
C      1  0.4719880000000  0.5357720000000  0.4099450000000 1.0
C      1  0.5854430000000  0.5203940000000  0.5344760000000 1.0
C      1  0.5589860000000  0.5183460000000  0.4331100000000 1.0
C      1  0.4511210000000  0.5186600000000  0.4179680000000 1.0
C      1  0.4117460000000  0.5179300000000  0.5208910000000 1.0
C      1  0.4935540000000  0.5197440000000  0.5897420000000 1.0
C      1  0.4645940000000  0.5933810000000  0.4978680000000 1.0
C      1  0.4891500000000  0.5949420000000  0.5291210000000 1.0
C      1  0.5306490000000  0.5918940000000  0.5218320000000 1.0
C      1  0.5248570000000  0.5955570000000  0.4821870000000 1.0
C      1  0.4885380000000  0.5937010000000  0.4661780000000 1.0
C      1  0.5824240000000  0.5020970000000  0.4636990000000 1.0
C      1  0.4900740000000  0.5004140000000  0.4144260000000 1.0
C      1  0.4113950000000  0.4983420000000  0.4844510000000 1.0
C      1  0.4585640000000  0.5019860000000  0.5744280000000 1.0
C      1  0.5634880000000  0.5004800000000  0.5618280000000 1.0
C      1  0.5668930000000  0.5733890000000  0.4783580000000 1.0
C      1  0.4999720000000  0.5716090000000  0.4304500000000 1.0
C      1  0.4341250000000  0.5695870000000  0.4768910000000 1.0
C      1  0.4590370000000  0.5719430000000  0.5544450000000 1.0
C      1  0.5399080000000  0.5714840000000  0.5548950000000 1.0
C      1  0.5041960000000  0.4577930000000  0.5973340000000 1.0
C      1  0.5886720000000  0.4566500000000  0.5220210000000 1.0
C      1  0.5508700000000  0.4614200000000  0.4230670000000 1.0
C      1  0.4381170000000  0.4602470000000  0.4175190000000 1.0
C      1  0.4190160000000  0.4594570000000  0.5338770000000 1.0
C      1  0.4779830000000  0.4823050000000  0.3897980000000 1.0
C      1  0.3863430000000  0.4775370000000  0.4835590000000 1.0
C      1  0.4610410000000  0.4844590000000  0.6031210000000 1.0
C      1  0.5857710000000  0.4817810000000  0.5760940000000 1.0
C      1  0.6010870000000  0.4836410000000  0.4442870000000 1.0
C      1  0.4109080000000  0.5247890000000  0.4664810000000 1.0
C      1  0.4404330000000  0.5284280000000  0.5760130000000 1.0
C      1  0.5533830000000  0.5264520000000  0.5780160000000 1.0
C      1  0.5960280000000  0.5299090000000  0.4718780000000 1.0
C      1  0.5045370000000  0.5272990000000  0.4044570000000 1.0
C      1  0.4811350000000  0.4905090000000  0.5263390000000 1.0
C      1  0.5203660000000  0.4914030000000  0.5332970000000 1.0
C      1  0.5360480000000  0.4912380000000  0.4917280000000 1.0
C      1  0.5024410000000  0.4928170000000  0.4695190000000 1.0
C      1  0.4580930000000  0.4893590000000  0.4787650000000 1.0
C      1  0.5272050000000  0.5643310000000  0.4930700000000 1.0
C      1  0.5027730000000  0.5634820000000  0.4706630000000 1.0
C      1  0.4735850000000  0.5627080000000  0.4868870000000 1.0
C      1  0.4807530000000  0.5635490000000  0.5191630000000 1.0
C      1  0.5133590000000  0.5639240000000  0.5226380000000 1.0
C      1  0.5133980000000  0.4269420000000  0.4408800000000 1.0
C      1  0.4425250000000  0.4230990000000  0.4651300000000 1.0
C      1  0.4491930000000  0.4155800000000  0.5389990000000 1.0
C      1  0.5226300000000  0.4178780000000  0.5599500000000 1.0
C      1  0.5615480000000  0.4179180000000  0.4958290000000 1.0
C      1  0.4857600000000  0.4299510000000  0.5248140000000 1.0
C      1  0.5168160000000  0.4325910000000  0.5193820000000 1.0
C      1  0.5212420000000  0.4345210000000  0.4890660000000 1.0
C      1  0.4934020000000  0.4353620000000  0.4760730000000 1.0
C      1  0.4719870000000  0.4301250000000  0.4987250000000 1.0
C      1  0.5595050000000  0.5017500000000  0.5104980000000 1.0
C      1  0.5294260000000  0.5009400000000  0.4535420000000 1.0
C      1  0.4597960000000  0.4970170000000  0.4501960000000 1.0
C      1  0.4497840000000  0.5019990000000  0.5246510000000 1.0
C      1  0.5047420000000  0.4968250000000  0.5591460000000 1.0
C      1  0.5143210000000  0.4475610000000  0.5670020000000 1.0
C      1  0.5595730000000  0.4459740000000  0.5089340000000 1.0
C      1  0.5270570000000  0.4512350000000  0.4533050000000 1.0
C      1  0.4490580000000  0.4522760000000  0.4548090000000 1.0
C      1  0.4468410000000  0.4435420000000  0.5266660000000 1.0
C      1  0.5626910000000  0.4095110000000  0.5248910000000 1.0
C      1  0.5410040000000  0.4148090000000  0.4449400000000 1.0
C      1  0.4601880000000  0.4163220000000  0.4416590000000 1.0
C      1  0.4291940000000  0.4093420000000  0.5163860000000 1.0
C      1  0.4952970000000  0.4095290000000  0.5694300000000 1.0
C      1  0.4735880000000  0.3902980000000  0.4954620000000 1.0
C      1  0.4876920000000  0.3883950000000  0.5205520000000 1.0
C      1  0.5157400000000  0.3886090000000  0.5149880000000 1.0
C      1  0.5189480000000  0.3899970000000  0.4863580000000 1.0
C      1  0.4929220000000  0.3913960000000  0.4743670000000 1.0
C      1  0.5367960000000  0.4626470000000  0.4831850000000 1.0
C      1  0.4869290000000  0.4651080000000  0.4657040000000 1.0
C      1  0.4639390000000  0.4600130000000  0.4903200000000 1.0
C      1  0.4926820000000  0.4611220000000  0.5362180000000 1.0
C      1  0.5265160000000  0.4599860000000  0.5312890000000 1.0
C      1  0.4777670000000  0.4057050000000  0.5447990000000 1.0
C      1  0.5332300000000  0.4075660000000  0.5326440000000 1.0
C      1  0.5396300000000  0.4102180000000  0.4757550000000 1.0
C      1  0.4882930000000  0.4131860000000  0.4523620000000 1.0
C      1  0.4485220000000  0.4090220000000  0.4924000000000 1.0
C      1  0.5393380000000  0.5726820000000  0.4351720000000 1.0
C      1  0.4496630000000  0.5697830000000  0.4404030000000 1.0
C      1  0.4293220000000  0.5712750000000  0.5281070000000 1.0
C      1  0.5055080000000  0.5703120000000  0.5744090000000 1.0
C      1  0.5753060000000  0.5731540000000  0.5172210000000 1.0
C      1  0.5251900000000  0.5081420000000  0.5838510000000 1.0
C      1  0.5898960000000  0.5139870000000  0.5010840000000 1.0
C      1  0.5285470000000  0.5091830000000  0.4203520000000 1.0
C      1  0.4288850000000  0.5087630000000  0.4422740000000 1.0
C      1  0.4284220000000  0.5107520000000  0.5499310000000 1.0
C      1  0.4753580000000  0.5302710000000  0.5099310000000 1.0
C      1  0.5031370000000  0.5311910000000  0.5256740000000 1.0
C      1  0.5268830000000  0.5314780000000  0.5041130000000 1.0
C      1  0.5147000000000  0.5310210000000  0.4753470000000 1.0
C      1  0.4824740000000  0.5301310000000  0.4785220000000 1.0
C      1  0.5542700000000  0.5125500000000  0.4723710000000 1.0
C      1  0.4874650000000  0.5102140000000  0.4442470000000 1.0
C      1  0.4406920000000  0.5092380000000  0.4947960000000 1.0
C      1  0.4775260000000  0.5114770000000  0.5529870000000 1.0
C      1  0.5463240000000  0.5095780000000  0.5377570000000 1.0
C      1  0.4265070000000  0.5475900000000  0.4519540000000 1.0
C      1  0.4331260000000  0.5501140000000  0.5545580000000 1.0
C      1  0.5319970000000  0.5492430000000  0.5794100000000 1.0
C      1  0.5890260000000  0.5532900000000  0.4936550000000 1.0
C      1  0.5223580000000  0.5509240000000  0.4150900000000 1.0
C      1  0.5182150000000  0.5933320000000  0.4492380000000 1.0
C      1  0.4563860000000  0.5909990000000  0.4646690000000 1.0
C      1  0.4549050000000  0.5923550000000  0.5286820000000 1.0
C      1  0.5130770000000  0.5920810000000  0.5508850000000 1.0
C      1  0.5537510000000  0.5932150000000  0.5001030000000 1.0
C      1  0.5567040000000  0.4870220000000  0.4376000000000 1.0
C      1  0.4519190000000  0.4869850000000  0.4180100000000 1.0
C      1  0.4195080000000  0.4865200000000  0.5198960000000 1.0
C      1  0.4921560000000  0.4863680000000  0.5894980000000 1.0
C      1  0.5841860000000  0.4876210000000  0.5301480000000 1.0
C      1  0.5051800000000  0.4975720000000  0.5032270000000 1.0
C      1  0.4967870000000  0.6048260000000  0.4974730000000 1.0
END
