TITL C-2782235-7892-381 0.069325310270613 125000 -379.89481082495 0 0 66 (C1) n - 1
REM
REM in /home/nfs/bkarasulu/CARBON/AIRSS/Generating-Clusters/REBO/Higher-Symm/SD-CG/HFTN-CG
REM
REM
REM
REM
REM
REM ./C.cell (12c818d87b63d06a65506943cc24bca4)
REM
REM compiler GCC version 9.2.1 20190827 (Red Hat 9.2.1-1)
REM options -cpp -mtune=generic -march=x86-64 -g -O0 -fpre-include=/usr/include/finclude/math-vector-fortran.h
REM seed -1112624278 -1655561157 -2069055820 757235469 -1816803822 -1698503142 -27994214 2119199252 -495550437 -1576348478 -646828556 -275171959 2063922266 -542526794 -338318398 431213194 2050187448 -1212669149 2074874029 -1177758260 -774677554 -1867486697 -923713086 1910246956 2116802357 -71924269 950815767 -187828609 -1426313885 1062578182 329569793 -485595421 -1537746516
REM
CELL 1.54180   50.00000   50.00000   50.00000   90.00000   90.00000   90.00000
LATT -1
SFAC C  
C      1  0.5005190000000  0.5418750000000  0.4963560000000 1.0
C      1  0.5598640000000  0.4694590000000  0.5025650000000 1.0
C      1  0.4388350000000  0.4564270000000  0.5243780000000 1.0
C      1  0.5390930000000  0.4884080000000  0.5099190000000 1.0
C      1  0.4613210000000  0.4703220000000  0.5139080000000 1.0
C      1  0.4846090000000  0.5229620000000  0.5090240000000 1.0
C      1  0.5317040000000  0.5668450000000  0.4961680000000 1.0
C      1  0.5331750000000  0.4292100000000  0.4994230000000 1.0
C      1  0.4165210000000  0.5136580000000  0.4928140000000 1.0
C      1  0.4487950000000  0.5298820000000  0.5369040000000 1.0
C      1  0.5460290000000  0.5295190000000  0.5387600000000 1.0
C      1  0.5063170000000  0.4426810000000  0.5393620000000 1.0
C      1  0.5215680000000  0.5295360000000  0.4822080000000 1.0
C      1  0.4933470000000  0.4869120000000  0.4760730000000 1.0
C      1  0.4696440000000  0.5099110000000  0.4667710000000 1.0
C      1  0.5163980000000  0.5285740000000  0.4264040000000 1.0
C      1  0.5359420000000  0.4823200000000  0.4431160000000 1.0
C      1  0.4772490000000  0.4933260000000  0.4378240000000 1.0
C      1  0.5519570000000  0.5135130000000  0.4618560000000 1.0
C      1  0.5084140000000  0.4494390000000  0.4508310000000 1.0
C      1  0.4674730000000  0.5336520000000  0.4245810000000 1.0
C      1  0.5472680000000  0.4587780000000  0.4501310000000 1.0
C      1  0.4438110000000  0.4925530000000  0.4422750000000 1.0
C      1  0.5148350000000  0.5526790000000  0.4424100000000 1.0
C      1  0.5843800000000  0.5091400000000  0.5099360000000 1.0
C      1  0.4682900000000  0.4218460000000  0.5159860000000 1.0
C      1  0.4718780000000  0.5773350000000  0.5208350000000 1.0
C      1  0.4678910000000  0.6038890000000  0.5253290000000 1.0
C      1  0.5718610000000  0.5188120000000  0.4834630000000 1.0
C      1  0.4771010000000  0.4379740000000  0.4930900000000 1.0
C      1  0.5382640000000  0.5117490000000  0.4331400000000 1.0
C      1  0.4935870000000  0.4666880000000  0.4416290000000 1.0
C      1  0.4910190000000  0.5162370000000  0.4187120000000 1.0
C      1  0.4559720000000  0.5574640000000  0.5336780000000 1.0
C      1  0.5727810000000  0.5204860000000  0.5339170000000 1.0
C      1  0.4877660000000  0.4209530000000  0.5373670000000 1.0
C      1  0.4923130000000  0.5681810000000  0.5029360000000 1.0
C      1  0.5854650000000  0.4803380000000  0.5096290000000 1.0
C      1  0.4417390000000  0.4288370000000  0.5243070000000 1.0
C      1  0.5237770000000  0.5123840000000  0.5535150000000 1.0
C      1  0.4997110000000  0.4675950000000  0.5591320000000 1.0
C      1  0.4710060000000  0.5138400000000  0.5558060000000 1.0
C      1  0.4221510000000  0.5013870000000  0.4672100000000 1.0
C      1  0.5180130000000  0.5679260000000  0.4716040000000 1.0
C      1  0.5329050000000  0.4334680000000  0.4669890000000 1.0
C      1  0.4413550000000  0.4759560000000  0.4691940000000 1.0
C      1  0.4885990000000  0.5568390000000  0.4602820000000 1.0
C      1  0.5576910000000  0.4535640000000  0.4796700000000 1.0
C      1  0.4621910000000  0.5151570000000  0.4953960000000 1.0
C      1  0.5447770000000  0.5169570000000  0.5008850000000 1.0
C      1  0.4977060000000  0.4584730000000  0.4942150000000 1.0
C      1  0.4992960000000  0.5286510000000  0.5641640000000 1.0
C      1  0.5237540000000  0.4837460000000  0.5689190000000 1.0
C      1  0.4712970000000  0.4833380000000  0.5655270000000 1.0
C      1  0.5175600000000  0.4884040000000  0.5300420000000 1.0
C      1  0.4858990000000  0.4754290000000  0.5291500000000 1.0
C      1  0.4905760000000  0.5072210000000  0.5319250000000 1.0
C      1  0.4679420000000  0.5384870000000  0.4530820000000 1.0
C      1  0.5199870000000  0.5002810000000  0.4667930000000 1.0
C      1  0.4628630000000  0.4761070000000  0.4869450000000 1.0
C      1  0.4387440000000  0.5178020000000  0.5109210000000 1.0
C      1  0.5364740000000  0.5465020000000  0.5151370000000 1.0
C      1  0.5176210000000  0.4491050000000  0.5133110000000 1.0
C      1  0.5005450000000  0.5510320000000  0.5779360000000 1.0
C      1  0.5416100000000  0.4763720000000  0.5867150000000 1.0
C      1  0.4509570000000  0.4716060000000  0.5775230000000 1.0
END
