TITL C-2782226-7400-1418 0.00217532758336925 125000 -773.210870812843 0 0 132 (C1) n - 1
REM
REM in /home/nfs/bkarasulu/CARBON/AIRSS/Generating-Clusters/REBO/Higher-Symm/SD-CG/HFTN-CG
REM
REM
REM
REM
REM
REM ./C.cell (12c818d87b63d06a65506943cc24bca4)
REM
REM compiler GCC version 9.2.1 20190827 (Red Hat 9.2.1-1)
REM options -cpp -mtune=generic -march=x86-64 -g -O0 -fpre-include=/usr/include/finclude/math-vector-fortran.h
REM seed 861507336 -525561156 1059004316 -1324611668 -1852630780 1020859145 557652586 -694100669 27458572 -560492751 -1874815657 -1747629626 699814170 1445853000 -523793984 -1369408564 -2005846920 -465809698 343310336 -829820518 -1892190806 -136106734 1428726123 490741572 1133842555 1227231289 -1641154142 -1735791711 -941562193 -986184489 1056349971 1392249623 -533837019
REM
CELL 1.54180   50.00000   50.00000   50.00000   90.00000   90.00000   90.00000
LATT -1
SFAC C  
C      1  0.4930520000000  0.4196690000000  0.4642870000000 1.0
C      1  0.5076060000000  0.4156920000000  0.5427180000000 1.0
C      1  0.5039810000000  0.4919040000000  0.5937900000000 1.0
C      1  0.5074080000000  0.5673310000000  0.5715710000000 1.0
C      1  0.4899120000000  0.5819720000000  0.4896240000000 1.0
C      1  0.5100620000000  0.5636640000000  0.4176550000000 1.0
C      1  0.5057070000000  0.4794750000000  0.4148970000000 1.0
C      1  0.4284980000000  0.5696080000000  0.5216140000000 1.0
C      1  0.4417670000000  0.5506610000000  0.4609350000000 1.0
C      1  0.4404690000000  0.5069320000000  0.4369170000000 1.0
C      1  0.4350530000000  0.4447950000000  0.4471920000000 1.0
C      1  0.4390590000000  0.4396070000000  0.5104380000000 1.0
C      1  0.4312880000000  0.4727170000000  0.5663700000000 1.0
C      1  0.4351120000000  0.5229990000000  0.5626150000000 1.0
C      1  0.4822500000000  0.5022540000000  0.4135840000000 1.0
C      1  0.4596110000000  0.4262570000000  0.4620850000000 1.0
C      1  0.4813070000000  0.4358370000000  0.5333210000000 1.0
C      1  0.4828600000000  0.4758240000000  0.5747920000000 1.0
C      1  0.4799750000000  0.5491120000000  0.5627390000000 1.0
C      1  0.4584520000000  0.5771550000000  0.4991600000000 1.0
C      1  0.4827950000000  0.5471710000000  0.4299360000000 1.0
C      1  0.4326670000000  0.4526580000000  0.5396550000000 1.0
C      1  0.4209350000000  0.4982170000000  0.5599620000000 1.0
C      1  0.4292510000000  0.5415920000000  0.5380170000000 1.0
C      1  0.4304420000000  0.5605890000000  0.4888050000000 1.0
C      1  0.4268560000000  0.5287680000000  0.4497980000000 1.0
C      1  0.4306480000000  0.4785190000000  0.4456800000000 1.0
C      1  0.4325990000000  0.4369810000000  0.4801970000000 1.0
C      1  0.5443510000000  0.5845370000000  0.4530920000000 1.0
C      1  0.5538780000000  0.5101950000000  0.4029380000000 1.0
C      1  0.5435060000000  0.4315490000000  0.4323620000000 1.0
C      1  0.5493170000000  0.3993310000000  0.5093260000000 1.0
C      1  0.5561800000000  0.4473420000000  0.5772840000000 1.0
C      1  0.5504510000000  0.5283280000000  0.5944470000000 1.0
C      1  0.5394730000000  0.5872900000000  0.5342970000000 1.0
C      1  0.5392560000000  0.5335970000000  0.5116630000000 1.0
C      1  0.5443870000000  0.5322320000000  0.4790000000000 1.0
C      1  0.5462700000000  0.5041640000000  0.4599850000000 1.0
C      1  0.5422640000000  0.4723040000000  0.4716200000000 1.0
C      1  0.5444230000000  0.4605330000000  0.5018170000000 1.0
C      1  0.5428810000000  0.4785340000000  0.5307530000000 1.0
C      1  0.5455640000000  0.5104720000000  0.5358200000000 1.0
C      1  0.4695320000000  0.4781260000000  0.5029780000000 1.0
C      1  0.4867320000000  0.4840710000000  0.5427200000000 1.0
C      1  0.4735440000000  0.5097230000000  0.5300580000000 1.0
C      1  0.4841280000000  0.5338560000000  0.5085410000000 1.0
C      1  0.4819210000000  0.5298050000000  0.4778940000000 1.0
C      1  0.4817010000000  0.5052390000000  0.4636570000000 1.0
C      1  0.4759980000000  0.4796730000000  0.4748930000000 1.0
C      1  0.4567350000000  0.5497110000000  0.5194500000000 1.0
C      1  0.4699130000000  0.5483550000000  0.4592140000000 1.0
C      1  0.4690320000000  0.5082230000000  0.4368430000000 1.0
C      1  0.4589400000000  0.4656760000000  0.4583300000000 1.0
C      1  0.4652230000000  0.4532620000000  0.5165600000000 1.0
C      1  0.4607580000000  0.4650870000000  0.5544260000000 1.0
C      1  0.4631650000000  0.5272260000000  0.5534540000000 1.0
C      1  0.4087620000000  0.4972490000000  0.5334190000000 1.0
C      1  0.4091870000000  0.5249680000000  0.5212880000000 1.0
C      1  0.4093210000000  0.5343940000000  0.4937240000000 1.0
C      1  0.4073820000000  0.5192770000000  0.4687230000000 1.0
C      1  0.4114690000000  0.4854720000000  0.4682410000000 1.0
C      1  0.4116850000000  0.4611900000000  0.4919200000000 1.0
C      1  0.4115290000000  0.4693390000000  0.5208390000000 1.0
C      1  0.5545780000000  0.5394500000000  0.4180440000000 1.0
C      1  0.5493590000000  0.4566060000000  0.4116340000000 1.0
C      1  0.5432200000000  0.4078880000000  0.4785200000000 1.0
C      1  0.5547240000000  0.4223560000000  0.5564340000000 1.0
C      1  0.5488030000000  0.4960320000000  0.5888940000000 1.0
C      1  0.5457280000000  0.5752850000000  0.5640680000000 1.0
C      1  0.5367990000000  0.5858610000000  0.4863610000000 1.0
C      1  0.5379020000000  0.5592390000000  0.4320210000000 1.0
C      1  0.5372410000000  0.4838910000000  0.4097890000000 1.0
C      1  0.5266490000000  0.4225960000000  0.4588780000000 1.0
C      1  0.5369750000000  0.4153640000000  0.5339370000000 1.0
C      1  0.5372100000000  0.4705980000000  0.5790260000000 1.0
C      1  0.5343410000000  0.5495030000000  0.5773480000000 1.0
C      1  0.5254370000000  0.5787710000000  0.5109720000000 1.0
C      1  0.5979680000000  0.4647180000000  0.4983690000000 1.0
C      1  0.6006710000000  0.4793190000000  0.5262640000000 1.0
C      1  0.6007190000000  0.5062270000000  0.5340560000000 1.0
C      1  0.5952630000000  0.5326660000000  0.5171490000000 1.0
C      1  0.5949490000000  0.5360980000000  0.4880570000000 1.0
C      1  0.6026100000000  0.5109240000000  0.4675680000000 1.0
C      1  0.5973950000000  0.4772840000000  0.4716440000000 1.0
C      1  0.5730460000000  0.4626800000000  0.5295430000000 1.0
C      1  0.5752260000000  0.5177260000000  0.5483250000000 1.0
C      1  0.5669350000000  0.5433580000000  0.5287120000000 1.0
C      1  0.5716580000000  0.5493190000000  0.4792370000000 1.0
C      1  0.5780790000000  0.5038770000000  0.4491470000000 1.0
C      1  0.5700680000000  0.4723080000000  0.4558690000000 1.0
C      1  0.5734950000000  0.4447820000000  0.5014910000000 1.0
C      1  0.4974950000000  0.5403980000000  0.5896950000000 1.0
C      1  0.4831630000000  0.5860530000000  0.5208100000000 1.0
C      1  0.4917040000000  0.5771740000000  0.4422690000000 1.0
C      1  0.5087590000000  0.5079050000000  0.3959740000000 1.0
C      1  0.4820190000000  0.4394140000000  0.4400450000000 1.0
C      1  0.4901360000000  0.4098560000000  0.5151760000000 1.0
C      1  0.5080590000000  0.4588170000000  0.5869390000000 1.0
C      1  0.5774640000000  0.5177160000000  0.4228150000000 1.0
C      1  0.5691340000000  0.4510590000000  0.4353150000000 1.0
C      1  0.5702950000000  0.4169110000000  0.4931050000000 1.0
C      1  0.5762290000000  0.4449190000000  0.5532790000000 1.0
C      1  0.5732650000000  0.5137440000000  0.5777730000000 1.0
C      1  0.5658640000000  0.5704170000000  0.5403830000000 1.0
C      1  0.5660780000000  0.5764520000000  0.4764240000000 1.0
C      1  0.5277930000000  0.5538660000000  0.4641790000000 1.0
C      1  0.5287720000000  0.5068330000000  0.4335180000000 1.0
C      1  0.5222470000000  0.4556210000000  0.4557530000000 1.0
C      1  0.5286320000000  0.4330730000000  0.5059040000000 1.0
C      1  0.5179520000000  0.4724080000000  0.5507290000000 1.0
C      1  0.5304080000000  0.5195990000000  0.5613670000000 1.0
C      1  0.5115490000000  0.5488840000000  0.5166330000000 1.0
C      1  0.5014770000000  0.4595310000000  0.4361470000000 1.0
C      1  0.5060680000000  0.4197140000000  0.4929810000000 1.0
C      1  0.5006750000000  0.4441500000000  0.5582070000000 1.0
C      1  0.5127980000000  0.5168890000000  0.5857880000000 1.0
C      1  0.4971590000000  0.5673070000000  0.5398470000000 1.0
C      1  0.5035590000000  0.5735850000000  0.4678790000000 1.0
C      1  0.5103940000000  0.5297840000000  0.4205570000000 1.0
C      1  0.5545210000000  0.4990370000000  0.4986460000000 1.0
C      1  0.6370710000000  0.4993000000000  0.5110210000000 1.0
C      1  0.5808410000000  0.5005480000000  0.4991330000000 1.0
C      1  0.4252940000000  0.4979860000000  0.4970050000000 1.0
C      1  0.3912090000000  0.4981530000000  0.4980460000000 1.0
C      1  0.4493580000000  0.4998230000000  0.5095710000000 1.0
C      1  0.2861840000000  0.5030920000000  0.5130650000000 1.0
C      1  0.6591700000000  0.4961870000000  0.5247600000000 1.0
C      1  0.3647670000000  0.4993970000000  0.5018280000000 1.0
C      1  0.5279990000000  0.4975490000000  0.4989460000000 1.0
C      1  0.3384330000000  0.5006350000000  0.5055930000000 1.0
C      1  0.3120990000000  0.5018730000000  0.5093590000000 1.0
C      1  0.6142440000000  0.5025160000000  0.4968290000000 1.0
END
