TITL C-2782240-8521-1166 -0.0037676867398489 125000 -496.947624493208 0 0 83 (C1) n - 1
REM
REM in /home/nfs/bkarasulu/CARBON/AIRSS/Generating-Clusters/REBO/Higher-Symm/SD-CG/HFTN-CG
REM
REM
REM
REM
REM
REM ./C.cell (12c818d87b63d06a65506943cc24bca4)
REM
REM compiler GCC version 9.2.1 20190827 (Red Hat 9.2.1-1)
REM options -cpp -mtune=generic -march=x86-64 -g -O0 -fpre-include=/usr/include/finclude/math-vector-fortran.h
REM seed 2119161089 124660494 469827508 -1428234094 -1636194696 45011412 -376137370 -2101517256 1830617841 308777139 -1624317754 794197657 1395212448 -2048356525 1465821083 -768035959 824135282 175105061 -779384692 1306030768 -1831085773 1123991905 1321634356 232425265 1402887921 1434087560 -948140718 992855679 -1177255314 -468100254 1651243474 987720784 1978476311
REM
CELL 1.54180   50.00000   50.00000   50.00000   90.00000   90.00000   90.00000
LATT -1
SFAC C  
C      1  0.4729060000000  0.5090790000000  0.5732370000000 1.0
C      1  0.5285130000000  0.5104790000000  0.4263070000000 1.0
C      1  0.4716540000000  0.5074410000000  0.4267250000000 1.0
C      1  0.5282150000000  0.5088580000000  0.5726640000000 1.0
C      1  0.4844260000000  0.5252880000000  0.5475060000000 1.0
C      1  0.5160740000000  0.5248720000000  0.4520880000000 1.0
C      1  0.4837420000000  0.5245370000000  0.4513870000000 1.0
C      1  0.5167950000000  0.5250590000000  0.5470520000000 1.0
C      1  0.5686380000000  0.5282700000000  0.4869480000000 1.0
C      1  0.4330210000000  0.5297210000000  0.5145770000000 1.0
C      1  0.5693850000000  0.5282910000000  0.5142740000000 1.0
C      1  0.4333600000000  0.5290480000000  0.4872640000000 1.0
C      1  0.4864090000000  0.4217990000000  0.4525820000000 1.0
C      1  0.5139220000000  0.4279190000000  0.5463670000000 1.0
C      1  0.4861150000000  0.4281250000000  0.5467190000000 1.0
C      1  0.5140600000000  0.4193180000000  0.4539350000000 1.0
C      1  0.4382200000000  0.5536140000000  0.5297950000000 1.0
C      1  0.5631600000000  0.5524180000000  0.4722870000000 1.0
C      1  0.4400170000000  0.5522910000000  0.4716870000000 1.0
C      1  0.5663070000000  0.5520490000000  0.5302400000000 1.0
C      1  0.5239980000000  0.4295580000000  0.4776200000000 1.0
C      1  0.4757700000000  0.4363870000000  0.5225320000000 1.0
C      1  0.5236940000000  0.4357700000000  0.5217950000000 1.0
C      1  0.4760620000000  0.4329880000000  0.4754960000000 1.0
C      1  0.4411340000000  0.5455480000000  0.5573410000000 1.0
C      1  0.5603830000000  0.5449480000000  0.4446890000000 1.0
C      1  0.4413470000000  0.5437130000000  0.4442330000000 1.0
C      1  0.5624280000000  0.5435670000000  0.5575040000000 1.0
C      1  0.5539070000000  0.5158960000000  0.5587580000000 1.0
C      1  0.4462120000000  0.5150180000000  0.4418220000000 1.0
C      1  0.5537980000000  0.5168310000000  0.4417540000000 1.0
C      1  0.4472170000000  0.5171990000000  0.5595610000000 1.0
C      1  0.4418860000000  0.5022600000000  0.4730550000000 1.0
C      1  0.5581020000000  0.5032370000000  0.5284580000000 1.0
C      1  0.4427520000000  0.5043290000000  0.5294290000000 1.0
C      1  0.5580320000000  0.5023780000000  0.4722470000000 1.0
C      1  0.5092850000000  0.5533350000000  0.5343460000000 1.0
C      1  0.4773570000000  0.5556780000000  0.4577620000000 1.0
C      1  0.5082230000000  0.5539740000000  0.4616710000000 1.0
C      1  0.4789860000000  0.5552620000000  0.5371390000000 1.0
C      1  0.5140690000000  0.4774970000000  0.5370440000000 1.0
C      1  0.4868450000000  0.4769680000000  0.4605500000000 1.0
C      1  0.5143560000000  0.4779160000000  0.4604650000000 1.0
C      1  0.4865770000000  0.4775510000000  0.5373660000000 1.0
C      1  0.5163520000000  0.4846470000000  0.4211590000000 1.0
C      1  0.4854640000000  0.4831640000000  0.5768630000000 1.0
C      1  0.5155120000000  0.4830240000000  0.5765400000000 1.0
C      1  0.4863950000000  0.4832000000000  0.4211280000000 1.0
C      1  0.4311580000000  0.4758920000000  0.4882110000000 1.0
C      1  0.5695650000000  0.4771720000000  0.5189630000000 1.0
C      1  0.4303870000000  0.4785020000000  0.5204830000000 1.0
C      1  0.5675620000000  0.4745160000000  0.4864490000000 1.0
C      1  0.4701760000000  0.4629630000000  0.5580940000000 1.0
C      1  0.5319330000000  0.4648110000000  0.4396390000000 1.0
C      1  0.4729580000000  0.4610890000000  0.4385570000000 1.0
C      1  0.5304500000000  0.4625610000000  0.5575450000000 1.0
C      1  0.5205200000000  0.5749380000000  0.5147480000000 1.0
C      1  0.4846750000000  0.5812530000000  0.4783210000000 1.0
C      1  0.5182860000000  0.5766990000000  0.4808520000000 1.0
C      1  0.4863180000000  0.5772500000000  0.5121630000000 1.0
C      1  0.5531610000000  0.5734010000000  0.5169380000000 1.0
C      1  0.4543350000000  0.5725450000000  0.4857290000000 1.0
C      1  0.5492030000000  0.5725580000000  0.4871010000000 1.0
C      1  0.4521130000000  0.5738470000000  0.5153890000000 1.0
C      1  0.5493940000000  0.4457370000000  0.4811440000000 1.0
C      1  0.4490920000000  0.4506010000000  0.5133260000000 1.0
C      1  0.5504340000000  0.4495460000000  0.5124000000000 1.0
C      1  0.4490300000000  0.4471980000000  0.4821300000000 1.0
C      1  0.4740670000000  0.5035150000000  0.5269680000000 1.0
C      1  0.5264340000000  0.5035320000000  0.4725110000000 1.0
C      1  0.4736060000000  0.5025300000000  0.4722310000000 1.0
C      1  0.5267520000000  0.5035260000000  0.5265450000000 1.0
C      1  0.5826910000000  0.4607730000000  0.5458160000000 1.0
C      1  0.4250680000000  0.4660250000000  0.4567250000000 1.0
C      1  0.5805580000000  0.4741580000000  0.4546270000000 1.0
C      1  0.4178200000000  0.4624230000000  0.5477920000000 1.0
C      1  0.5537570000000  0.4519120000000  0.5454600000000 1.0
C      1  0.4487060000000  0.4501290000000  0.4480710000000 1.0
C      1  0.5563430000000  0.4571700000000  0.4523210000000 1.0
C      1  0.4464420000000  0.4528280000000  0.5464180000000 1.0
C      1  0.4865160000000  0.5068360000000  0.4994950000000 1.0
C      1  0.5137470000000  0.5071210000000  0.4994450000000 1.0
C      1  0.4991410000000  0.4354630000000  0.4990670000000 1.0
END
