TITL C-2782229-3092-1249 -1.75344637552544e-08 125000 -70.8492180357901 0 0 12 (Oh) n - 1
REM
REM in /home/nfs/bkarasulu/CARBON/AIRSS/Generating-Clusters/REBO/Higher-Symm/SD-CG/HFTN-CG
REM
REM
REM
REM
REM
REM ./C.cell (12c818d87b63d06a65506943cc24bca4)
REM
REM compiler GCC version 9.2.1 20190827 (Red Hat 9.2.1-1)
REM options -cpp -mtune=generic -march=x86-64 -g -O0 -fpre-include=/usr/include/finclude/math-vector-fortran.h
REM seed 1846525650 -1490463752 1891971772 -1501054479 -801139006 -1610938190 1340318980 848689364 1207769257 -114036058 -1205076667 -100793504 -1315513513 -326905599 59448410 -1544720716 -1843198147 -1931572072 -597253942 -2008577839 -348062312 209359053 -73679952 -214540097 6047512 1012868409 -1126920003 -394164135 1453176628 -664492327 1635093734 1391385943 1035547688
REM
CELL 1.54180   50.00000   50.00000   50.00000   90.00000   90.00000   90.00000
LATT -1
SFAC C  
C      1  0.4487050000000  0.4914750000000  0.5000000000000 1.0
C      1  0.4598400000000  0.4669700000000  0.5000000000000 1.0
C      1  0.4817350000000  0.4513150000000  0.5000000000000 1.0
C      1  0.5085250000000  0.4487050000000  0.5000000000000 1.0
C      1  0.5330300000000  0.4598400000000  0.5000000000000 1.0
C      1  0.5486850000000  0.4817350000000  0.5000000000000 1.0
C      1  0.5512950000000  0.5085250000000  0.5000000000000 1.0
C      1  0.5401600000000  0.5330300000000  0.5000000000000 1.0
C      1  0.5182650000000  0.5486850000000  0.5000000000000 1.0
C      1  0.4914750000000  0.5512950000000  0.5000000000000 1.0
C      1  0.4669700000000  0.5401600000000  0.5000000000000 1.0
C      1  0.4513150000000  0.5182650000000  0.5000000000000 1.0
END
