TITL C-2782225-7408-722 0.0271194181525311 125000 -974.02435981167 0 0 166 (C1) n - 1
REM
REM in /home/nfs/bkarasulu/CARBON/AIRSS/Generating-Clusters/REBO/Higher-Symm/SD-CG/HFTN-CG
REM
REM
REM
REM
REM
REM ./C.cell (12c818d87b63d06a65506943cc24bca4)
REM
REM compiler GCC version 9.2.1 20190827 (Red Hat 9.2.1-1)
REM options -cpp -mtune=generic -march=x86-64 -g -O0 -fpre-include=/usr/include/finclude/math-vector-fortran.h
REM seed -1939731305 -1972504222 -1175459972 762016858 -838769643 -169624548 822590410 1647339051 284598751 208040919 -691859862 977885638 250949352 836430076 523661261 2046101389 303621458 -1961760246 -1077141655 -1128238394 -1853739189 -460570872 1476403019 1375384527 485435550 -237791936 -573443229 489319487 -1328764296 1388039032 1771489492 -110169746 -734477376
REM
CELL 1.54180   50.00000   50.00000   50.00000   90.00000   90.00000   90.00000
LATT -1
SFAC C  
C      1  0.4616210000000  0.4386670000000  0.4931960000000 1.0
C      1  0.5343220000000  0.4383330000000  0.4991480000000 1.0
C      1  0.5675250000000  0.5345640000000  0.4969250000000 1.0
C      1  0.4967980000000  0.5677370000000  0.4963800000000 1.0
C      1  0.4338340000000  0.5191570000000  0.5000510000000 1.0
C      1  0.5175960000000  0.4358420000000  0.4745370000000 1.0
C      1  0.5420590000000  0.4925550000000  0.4745970000000 1.0
C      1  0.5195170000000  0.5542820000000  0.4806370000000 1.0
C      1  0.4466880000000  0.5399430000000  0.4804190000000 1.0
C      1  0.4546110000000  0.4645320000000  0.4808550000000 1.0
C      1  0.4546300000000  0.5530740000000  0.6217590000000 1.0
C      1  0.4406580000000  0.4496120000000  0.6015780000000 1.0
C      1  0.5494910000000  0.4413010000000  0.5827990000000 1.0
C      1  0.5797360000000  0.5223830000000  0.5813550000000 1.0
C      1  0.4966330000000  0.5837380000000  0.5743900000000 1.0
C      1  0.5046430000000  0.4064040000000  0.4693560000000 1.0
C      1  0.5672000000000  0.4740980000000  0.4846620000000 1.0
C      1  0.5442610000000  0.5721540000000  0.4897520000000 1.0
C      1  0.4447990000000  0.5700910000000  0.4685910000000 1.0
C      1  0.4222270000000  0.4677950000000  0.4739580000000 1.0
C      1  0.4871900000000  0.5507310000000  0.5189060000000 1.0
C      1  0.4401260000000  0.4872670000000  0.5104020000000 1.0
C      1  0.4854680000000  0.4357460000000  0.5163590000000 1.0
C      1  0.5418220000000  0.4644160000000  0.5158370000000 1.0
C      1  0.5477110000000  0.5322680000000  0.5209850000000 1.0
C      1  0.5267450000000  0.5726200000000  0.5694090000000 1.0
C      1  0.4450200000000  0.5367770000000  0.5767920000000 1.0
C      1  0.4452150000000  0.4573770000000  0.5691190000000 1.0
C      1  0.5203080000000  0.4255440000000  0.5783120000000 1.0
C      1  0.5688810000000  0.4951120000000  0.5665250000000 1.0
C      1  0.5044290000000  0.4762700000000  0.4396660000000 1.0
C      1  0.5223630000000  0.4980270000000  0.4403490000000 1.0
C      1  0.5091270000000  0.5223920000000  0.4414350000000 1.0
C      1  0.4804540000000  0.5180980000000  0.4391890000000 1.0
C      1  0.4779320000000  0.4885310000000  0.4411640000000 1.0
C      1  0.3981160000000  0.5016920000000  0.5556130000000 1.0
C      1  0.4598490000000  0.4085470000000  0.5516520000000 1.0
C      1  0.5660510000000  0.4412900000000  0.5606720000000 1.0
C      1  0.5858770000000  0.5426690000000  0.5632050000000 1.0
C      1  0.4831640000000  0.5872810000000  0.5495730000000 1.0
C      1  0.3678690000000  0.4784400000000  0.4778600000000 1.0
C      1  0.4797050000000  0.3606120000000  0.4851240000000 1.0
C      1  0.6185970000000  0.4445470000000  0.5059930000000 1.0
C      1  0.6028410000000  0.6074330000000  0.5016420000000 1.0
C      1  0.4376180000000  0.6212560000000  0.4867180000000 1.0
C      1  0.5094700000000  0.5611270000000  0.5955030000000 1.0
C      1  0.4595660000000  0.5360690000000  0.6011180000000 1.0
C      1  0.4609590000000  0.4731450000000  0.5953200000000 1.0
C      1  0.5229360000000  0.4552630000000  0.5952070000000 1.0
C      1  0.5557680000000  0.5059520000000  0.5959800000000 1.0
C      1  0.5526030000000  0.6018140000000  0.4974140000000 1.0
C      1  0.4269800000000  0.5702300000000  0.4975190000000 1.0
C      1  0.4061510000000  0.4480740000000  0.4960820000000 1.0
C      1  0.5201110000000  0.3930670000000  0.4963770000000 1.0
C      1  0.5950220000000  0.4901800000000  0.4923660000000 1.0
C      1  0.5105290000000  0.5305040000000  0.5979720000000 1.0
C      1  0.4821170000000  0.5177350000000  0.6016110000000 1.0
C      1  0.4837900000000  0.4887970000000  0.6004490000000 1.0
C      1  0.5120030000000  0.4801090000000  0.6017200000000 1.0
C      1  0.5292260000000  0.5037240000000  0.6034650000000 1.0
C      1  0.5621380000000  0.5537380000000  0.5432780000000 1.0
C      1  0.4709310000000  0.5637740000000  0.5385290000000 1.0
C      1  0.4170530000000  0.4877500000000  0.5333350000000 1.0
C      1  0.4846620000000  0.4270310000000  0.5482880000000 1.0
C      1  0.5694410000000  0.4598810000000  0.5334050000000 1.0
C      1  0.4240980000000  0.4354110000000  0.5214720000000 1.0
C      1  0.5366220000000  0.4013440000000  0.5249440000000 1.0
C      1  0.5948580000000  0.5088890000000  0.5194700000000 1.0
C      1  0.5296620000000  0.6007930000000  0.5227420000000 1.0
C      1  0.4195670000000  0.5506480000000  0.5240990000000 1.0
C      1  0.5063380000000  0.4180060000000  0.4405990000000 1.0
C      1  0.5631150000000  0.4644890000000  0.4555600000000 1.0
C      1  0.5504110000000  0.5649160000000  0.4577790000000 1.0
C      1  0.4490310000000  0.5666990000000  0.4394020000000 1.0
C      1  0.4196450000000  0.4799180000000  0.4438900000000 1.0
C      1  0.4716180000000  0.4574740000000  0.5512680000000 1.0
C      1  0.5231900000000  0.4488810000000  0.5536980000000 1.0
C      1  0.5364770000000  0.4966470000000  0.5622570000000 1.0
C      1  0.5216520000000  0.5479580000000  0.5469490000000 1.0
C      1  0.4517010000000  0.5137730000000  0.5590540000000 1.0
C      1  0.5257300000000  0.5229960000000  0.5687150000000 1.0
C      1  0.4962440000000  0.5272470000000  0.5561070000000 1.0
C      1  0.4788890000000  0.5061400000000  0.5611570000000 1.0
C      1  0.4892550000000  0.4802470000000  0.5609250000000 1.0
C      1  0.5159850000000  0.4750040000000  0.5611930000000 1.0
C      1  0.5094420000000  0.4852260000000  0.4781450000000 1.0
C      1  0.5247750000000  0.5215240000000  0.4789970000000 1.0
C      1  0.4782450000000  0.5415830000000  0.4714610000000 1.0
C      1  0.4675580000000  0.4928550000000  0.4819470000000 1.0
C      1  0.4934100000000  0.4574740000000  0.4735230000000 1.0
C      1  0.5224960000000  0.5470960000000  0.4484980000000 1.0
C      1  0.4602540000000  0.5371040000000  0.4350160000000 1.0
C      1  0.4528970000000  0.4747010000000  0.4494900000000 1.0
C      1  0.5189940000000  0.4500430000000  0.4438870000000 1.0
C      1  0.5522160000000  0.4915380000000  0.4422460000000 1.0
C      1  0.5436730000000  0.3990550000000  0.4719800000000 1.0
C      1  0.6048250000000  0.5094610000000  0.4676130000000 1.0
C      1  0.5330100000000  0.6046980000000  0.4696050000000 1.0
C      1  0.4074270000000  0.5568270000000  0.4724840000000 1.0
C      1  0.4144840000000  0.4289370000000  0.4690310000000 1.0
C      1  0.6000590000000  0.5295970000000  0.4925300000000 1.0
C      1  0.5132360000000  0.5973550000000  0.4932780000000 1.0
C      1  0.4005980000000  0.5407520000000  0.4973960000000 1.0
C      1  0.4340840000000  0.4201810000000  0.4922590000000 1.0
C      1  0.5574410000000  0.4058930000000  0.4982620000000 1.0
C      1  0.5196200000000  0.5748830000000  0.4317890000000 1.0
C      1  0.4276690000000  0.5363170000000  0.4249440000000 1.0
C      1  0.4417440000000  0.4491000000000  0.4319110000000 1.0
C      1  0.5320390000000  0.4283870000000  0.4215540000000 1.0
C      1  0.5752170000000  0.5046540000000  0.4261080000000 1.0
C      1  0.5684700000000  0.4370760000000  0.5006950000000 1.0
C      1  0.5889230000000  0.5605050000000  0.5024290000000 1.0
C      1  0.4795750000000  0.5963730000000  0.4990070000000 1.0
C      1  0.4019790000000  0.5069880000000  0.4995940000000 1.0
C      1  0.4633330000000  0.4051400000000  0.5007370000000 1.0
C      1  0.5437940000000  0.5807470000000  0.5438810000000 1.0
C      1  0.4446300000000  0.5505890000000  0.5456510000000 1.0
C      1  0.4338280000000  0.4599260000000  0.5386620000000 1.0
C      1  0.5145470000000  0.4106690000000  0.5490890000000 1.0
C      1  0.5805450000000  0.4896990000000  0.5378320000000 1.0
C      1  0.4716520000000  0.4567270000000  0.4174900000000 1.0
C      1  0.5327810000000  0.4597660000000  0.4077530000000 1.0
C      1  0.5483990000000  0.5205040000000  0.4150410000000 1.0
C      1  0.4962390000000  0.5536330000000  0.4191490000000 1.0
C      1  0.4459450000000  0.5123600000000  0.4077890000000 1.0
C      1  0.4797470000000  0.4463180000000  0.4491530000000 1.0
C      1  0.5652140000000  0.4341350000000  0.4429410000000 1.0
C      1  0.5529060000000  0.5341930000000  0.4710310000000 1.0
C      1  0.4861120000000  0.5615530000000  0.4528240000000 1.0
C      1  0.4499930000000  0.5121330000000  0.4643410000000 1.0
C      1  0.4441370000000  0.4088130000000  0.5285610000000 1.0
C      1  0.5577860000000  0.4271860000000  0.5314430000000 1.0
C      1  0.5900380000000  0.5399040000000  0.5295520000000 1.0
C      1  0.4960290000000  0.6020140000000  0.5283360000000 1.0
C      1  0.4060860000000  0.5203470000000  0.5305900000000 1.0
C      1  0.5157130000000  0.4818680000000  0.4017480000000 1.0
C      1  0.5229000000000  0.5118590000000  0.4029420000000 1.0
C      1  0.4967580000000  0.5271320000000  0.4038230000000 1.0
C      1  0.4738590000000  0.5071330000000  0.4013510000000 1.0
C      1  0.4858540000000  0.4797410000000  0.4030530000000 1.0
C      1  0.5480410000000  0.4934320000000  0.5324740000000 1.0
C      1  0.5328660000000  0.5612830000000  0.5176630000000 1.0
C      1  0.4459280000000  0.5212820000000  0.5298040000000 1.0
C      1  0.4628360000000  0.4680030000000  0.5223200000000 1.0
C      1  0.5161020000000  0.4353170000000  0.5251080000000 1.0
C      1  0.5169570000000  0.4827020000000  0.5099340000000 1.0
C      1  0.5222880000000  0.5120300000000  0.5202840000000 1.0
C      1  0.4938630000000  0.5231290000000  0.5166030000000 1.0
C      1  0.4696060000000  0.5060090000000  0.5119220000000 1.0
C      1  0.4879090000000  0.4662110000000  0.5051800000000 1.0
C      1  0.5828160000000  0.5899880000000  0.5006130000000 1.0
C      1  0.4507280000000  0.5940590000000  0.4911400000000 1.0
C      1  0.3958380000000  0.4799900000000  0.4902380000000 1.0
C      1  0.4865330000000  0.3897050000000  0.4912610000000 1.0
C      1  0.5922000000000  0.4569140000000  0.4988780000000 1.0
C      1  0.4230360000000  0.4340980000000  0.4440060000000 1.0
C      1  0.5467680000000  0.4114430000000  0.4475900000000 1.0
C      1  0.5984990000000  0.5085600000000  0.4415110000000 1.0
C      1  0.5283800000000  0.5968710000000  0.4444100000000 1.0
C      1  0.4105750000000  0.5528190000000  0.4459370000000 1.0
C      1  0.5594500000000  0.5388530000000  0.4377960000000 1.0
C      1  0.4747050000000  0.5785180000000  0.4272640000000 1.0
C      1  0.4334830000000  0.5077130000000  0.4390990000000 1.0
C      1  0.4788470000000  0.4241660000000  0.4251060000000 1.0
C      1  0.5589530000000  0.4577120000000  0.4222690000000 1.0
C      1  0.4927530000000  0.5148420000000  0.4770800000000 1.0
END
