TITL C-2782238-9940-643 -0.00117681446816703 125000 -1109.21187925783 0 0 193 (C1) n - 1
REM
REM in /home/nfs/bkarasulu/CARBON/AIRSS/Generating-Clusters/REBO/Higher-Symm/SD-CG/HFTN-CG
REM
REM
REM
REM
REM
REM ./C.cell (12c818d87b63d06a65506943cc24bca4)
REM
REM compiler GCC version 9.2.1 20190827 (Red Hat 9.2.1-1)
REM options -cpp -mtune=generic -march=x86-64 -g -O0 -fpre-include=/usr/include/finclude/math-vector-fortran.h
REM seed -560223233 1081169814 1279508776 -1360748309 344706488 698254978 1530874223 623328545 1850454153 1311669127 2108159105 1637675206 -1901108662 509762366 -263766107 958316347 1390526642 99275717 -1474754563 1995552204 -1190910486 1385498283 -1764518002 -957745455 1061547258 -1942650497 715394386 1595044302 -1843391817 -959715226 -516423556 -1065425800 1769859523
REM
CELL 1.54180   50.00000   50.00000   50.00000   90.00000   90.00000   90.00000
LATT -1
SFAC C  
C      1  0.5494970000000  0.5019460000000  0.5510040000000 1.0
C      1  0.5497340000000  0.4537850000000  0.4776120000000 1.0
C      1  0.5473130000000  0.5406780000000  0.4814510000000 1.0
C      1  0.5269140000000  0.5822050000000  0.5720440000000 1.0
C      1  0.5280700000000  0.3964040000000  0.5372380000000 1.0
C      1  0.5276830000000  0.5209250000000  0.3913750000000 1.0
C      1  0.5347500000000  0.5810410000000  0.5331720000000 1.0
C      1  0.5317040000000  0.4322000000000  0.5540250000000 1.0
C      1  0.5405080000000  0.4875370000000  0.4089000000000 1.0
C      1  0.5550270000000  0.4019380000000  0.5172020000000 1.0
C      1  0.5507930000000  0.5340610000000  0.4129430000000 1.0
C      1  0.5545470000000  0.5637390000000  0.5790170000000 1.0
C      1  0.4648220000000  0.5397400000000  0.4686700000000 1.0
C      1  0.4700490000000  0.5007780000000  0.5492770000000 1.0
C      1  0.4671710000000  0.4569440000000  0.4759370000000 1.0
C      1  0.4379930000000  0.5673910000000  0.4793110000000 1.0
C      1  0.4309870000000  0.4844670000000  0.5692460000000 1.0
C      1  0.4346240000000  0.4464070000000  0.4483320000000 1.0
C      1  0.6117790000000  0.4843230000000  0.4878920000000 1.0
C      1  0.6119280000000  0.5177990000000  0.4882960000000 1.0
C      1  0.6109380000000  0.5009040000000  0.5175900000000 1.0
C      1  0.4958280000000  0.5941510000000  0.4541550000000 1.0
C      1  0.4838010000000  0.4711830000000  0.6181940000000 1.0
C      1  0.4852060000000  0.4131370000000  0.4105900000000 1.0
C      1  0.4416720000000  0.5762830000000  0.4495680000000 1.0
C      1  0.4378610000000  0.5039960000000  0.5926190000000 1.0
C      1  0.4442430000000  0.4179520000000  0.4569390000000 1.0
C      1  0.4779000000000  0.5127730000000  0.4580000000000 1.0
C      1  0.4727890000000  0.5324230000000  0.5143620000000 1.0
C      1  0.4676680000000  0.4761190000000  0.5180230000000 1.0
C      1  0.4586270000000  0.4783900000000  0.5982820000000 1.0
C      1  0.4564920000000  0.4226240000000  0.4252790000000 1.0
C      1  0.4643070000000  0.5946850000000  0.4677420000000 1.0
C      1  0.4756790000000  0.4082520000000  0.4658230000000 1.0
C      1  0.4670500000000  0.5774540000000  0.4283500000000 1.0
C      1  0.4667090000000  0.5174610000000  0.6005200000000 1.0
C      1  0.4413010000000  0.5422460000000  0.5229400000000 1.0
C      1  0.4367640000000  0.4647110000000  0.5198820000000 1.0
C      1  0.4460730000000  0.5004980000000  0.4598580000000 1.0
C      1  0.5276320000000  0.4804120000000  0.5391580000000 1.0
C      1  0.5319170000000  0.4784500000000  0.4669820000000 1.0
C      1  0.5290030000000  0.5427520000000  0.5067550000000 1.0
C      1  0.4338300000000  0.5000150000000  0.4282240000000 1.0
C      1  0.4353030000000  0.5680200000000  0.5413830000000 1.0
C      1  0.4313360000000  0.4360340000000  0.5345610000000 1.0
C      1  0.4029080000000  0.4719410000000  0.5397640000000 1.0
C      1  0.4015870000000  0.4856200000000  0.4512570000000 1.0
C      1  0.4038080000000  0.5498740000000  0.5115780000000 1.0
C      1  0.4937760000000  0.4705270000000  0.4747000000000 1.0
C      1  0.4963370000000  0.5227880000000  0.4961080000000 1.0
C      1  0.4955560000000  0.5021870000000  0.5298790000000 1.0
C      1  0.4824500000000  0.5657980000000  0.4671870000000 1.0
C      1  0.4890330000000  0.4946380000000  0.5968930000000 1.0
C      1  0.4866750000000  0.4255440000000  0.4417790000000 1.0
C      1  0.5245190000000  0.5029090000000  0.4336230000000 1.0
C      1  0.5268500000000  0.5499980000000  0.5408010000000 1.0
C      1  0.5277070000000  0.4434740000000  0.5240890000000 1.0
C      1  0.5876120000000  0.4392370000000  0.5110150000000 1.0
C      1  0.5875480000000  0.5208340000000  0.4331660000000 1.0
C      1  0.5884750000000  0.5440890000000  0.5515280000000 1.0
C      1  0.4146600000000  0.5478280000000  0.4822180000000 1.0
C      1  0.4095700000000  0.4999200000000  0.5526530000000 1.0
C      1  0.4110320000000  0.4585770000000  0.4644210000000 1.0
C      1  0.5946410000000  0.5470850000000  0.4869910000000 1.0
C      1  0.5968580000000  0.4871790000000  0.5454770000000 1.0
C      1  0.5962960000000  0.4684840000000  0.4620210000000 1.0
C      1  0.4355060000000  0.4146320000000  0.4896490000000 1.0
C      1  0.4330960000000  0.5517750000000  0.4272460000000 1.0
C      1  0.4369710000000  0.5351090000000  0.5805520000000 1.0
C      1  0.5264970000000  0.3934630000000  0.4648120000000 1.0
C      1  0.5150310000000  0.5793320000000  0.4217960000000 1.0
C      1  0.5204730000000  0.5206090000000  0.6142590000000 1.0
C      1  0.5150210000000  0.4679670000000  0.5601050000000 1.0
C      1  0.5109360000000  0.4674850000000  0.4462890000000 1.0
C      1  0.5018010000000  0.5561960000000  0.5008350000000 1.0
C      1  0.5762790000000  0.4764310000000  0.5707530000000 1.0
C      1  0.5822600000000  0.4477350000000  0.4392450000000 1.0
C      1  0.5733840000000  0.5739010000000  0.4858160000000 1.0
C      1  0.4231360000000  0.4527340000000  0.5598900000000 1.0
C      1  0.4216030000000  0.4702740000000  0.4275020000000 1.0
C      1  0.4257400000000  0.5766870000000  0.5099200000000 1.0
C      1  0.4752520000000  0.4990630000000  0.3919210000000 1.0
C      1  0.4774020000000  0.5932150000000  0.5562100000000 1.0
C      1  0.4769690000000  0.4132650000000  0.5522680000000 1.0
C      1  0.5580960000000  0.4531030000000  0.5206700000000 1.0
C      1  0.5535500000000  0.5041760000000  0.4458110000000 1.0
C      1  0.5592080000000  0.5457080000000  0.5346240000000 1.0
C      1  0.5109790000000  0.5057030000000  0.5784400000000 1.0
C      1  0.5073040000000  0.4338940000000  0.4676410000000 1.0
C      1  0.5108170000000  0.5493410000000  0.4626770000000 1.0
C      1  0.5505480000000  0.5381320000000  0.4474250000000 1.0
C      1  0.5532620000000  0.5322300000000  0.5660850000000 1.0
C      1  0.5522590000000  0.4276470000000  0.4969120000000 1.0
C      1  0.5834100000000  0.4681770000000  0.4936710000000 1.0
C      1  0.5891210000000  0.5224970000000  0.4648410000000 1.0
C      1  0.5863660000000  0.5165690000000  0.5330790000000 1.0
C      1  0.4464650000000  0.4743370000000  0.4740840000000 1.0
C      1  0.4496370000000  0.5323580000000  0.4935320000000 1.0
C      1  0.4429280000000  0.4952310000000  0.5310860000000 1.0
C      1  0.5103190000000  0.4480420000000  0.5957560000000 1.0
C      1  0.5098610000000  0.4397180000000  0.4107320000000 1.0
C      1  0.5153750000000  0.6035470000000  0.4969220000000 1.0
C      1  0.4767920000000  0.5580210000000  0.5317780000000 1.0
C      1  0.4758560000000  0.4492110000000  0.5341830000000 1.0
C      1  0.4734750000000  0.4960630000000  0.4315450000000 1.0
C      1  0.5685800000000  0.5002470000000  0.5891010000000 1.0
C      1  0.5719370000000  0.4241620000000  0.4534050000000 1.0
C      1  0.5611150000000  0.5755270000000  0.4568400000000 1.0
C      1  0.4568070000000  0.5768850000000  0.5625180000000 1.0
C      1  0.4523850000000  0.4133670000000  0.5372900000000 1.0
C      1  0.4508820000000  0.5098820000000  0.4017140000000 1.0
C      1  0.5239460000000  0.4159280000000  0.4878910000000 1.0
C      1  0.5222000000000  0.5517100000000  0.4342320000000 1.0
C      1  0.5273250000000  0.5330440000000  0.5853910000000 1.0
C      1  0.4639600000000  0.5703060000000  0.5021500000000 1.0
C      1  0.4591220000000  0.4694400000000  0.5563250000000 1.0
C      1  0.4600900000000  0.4659040000000  0.4361200000000 1.0
C      1  0.5597550000000  0.5094490000000  0.3912570000000 1.0
C      1  0.5576780000000  0.5865900000000  0.5561990000000 1.0
C      1  0.5571600000000  0.4107990000000  0.5487870000000 1.0
C      1  0.4826020000000  0.4269780000000  0.5151310000000 1.0
C      1  0.4819410000000  0.5261140000000  0.4206080000000 1.0
C      1  0.4847730000000  0.5482180000000  0.5588020000000 1.0
C      1  0.5818020000000  0.4318880000000  0.5438180000000 1.0
C      1  0.5783000000000  0.4981780000000  0.4159590000000 1.0
C      1  0.5838220000000  0.5759970000000  0.5403840000000 1.0
C      1  0.4895690000000  0.5789660000000  0.4092440000000 1.0
C      1  0.4925440000000  0.5301210000000  0.6171750000000 1.0
C      1  0.4975200000000  0.3883490000000  0.4765460000000 1.0
C      1  0.5390080000000  0.4403350000000  0.5920120000000 1.0
C      1  0.5394920000000  0.4496080000000  0.4050480000000 1.0
C      1  0.5402440000000  0.6110500000000  0.5076830000000 1.0
C      1  0.4782150000000  0.4522550000000  0.4101270000000 1.0
C      1  0.4819500000000  0.6004970000000  0.5027190000000 1.0
C      1  0.4817060000000  0.4443220000000  0.5853310000000 1.0
C      1  0.4496150000000  0.5392080000000  0.4012410000000 1.0
C      1  0.4577720000000  0.5593790000000  0.5858240000000 1.0
C      1  0.4539220000000  0.3995320000000  0.5118230000000 1.0
C      1  0.5083920000000  0.4940560000000  0.3981760000000 1.0
C      1  0.5085340000000  0.5953950000000  0.5486080000000 1.0
C      1  0.5038450000000  0.4124910000000  0.5548650000000 1.0
C      1  0.4830080000000  0.5537790000000  0.5982900000000 1.0
C      1  0.4820120000000  0.3941780000000  0.5024990000000 1.0
C      1  0.4768420000000  0.5523860000000  0.3990090000000 1.0
C      1  0.5082180000000  0.5175540000000  0.4586030000000 1.0
C      1  0.5124770000000  0.5206910000000  0.5507480000000 1.0
C      1  0.5137270000000  0.4538250000000  0.4947850000000 1.0
C      1  0.5816470000000  0.4223440000000  0.4818490000000 1.0
C      1  0.5797580000000  0.5531380000000  0.4406990000000 1.0
C      1  0.5835650000000  0.5261220000000  0.5800860000000 1.0
C      1  0.4673180000000  0.5248550000000  0.5680490000000 1.0
C      1  0.4662680000000  0.4292980000000  0.4882340000000 1.0
C      1  0.4644580000000  0.5458860000000  0.4376410000000 1.0
C      1  0.3924640000000  0.5012450000000  0.4802420000000 1.0
C      1  0.3920140000000  0.5176150000000  0.5102310000000 1.0
C      1  0.3922300000000  0.4832890000000  0.5094640000000 1.0
C      1  0.4286080000000  0.5178090000000  0.4764260000000 1.0
C      1  0.4256130000000  0.5194200000000  0.5315920000000 1.0
C      1  0.4246220000000  0.4663720000000  0.4935510000000 1.0
C      1  0.5427740000000  0.5000290000000  0.6017740000000 1.0
C      1  0.5440130000000  0.4150240000000  0.4493930000000 1.0
C      1  0.5293850000000  0.5867500000000  0.4517580000000 1.0
C      1  0.4482220000000  0.6003500000000  0.4977540000000 1.0
C      1  0.4485230000000  0.4513820000000  0.5828550000000 1.0
C      1  0.4438910000000  0.4504640000000  0.4101770000000 1.0
C      1  0.5606540000000  0.4880700000000  0.4967440000000 1.0
C      1  0.5611260000000  0.5124120000000  0.4761600000000 1.0
C      1  0.5578770000000  0.5086330000000  0.5198700000000 1.0
C      1  0.5216430000000  0.5031600000000  0.4842080000000 1.0
C      1  0.5262140000000  0.5156550000000  0.5215790000000 1.0
C      1  0.5302230000000  0.4791220000000  0.5068480000000 1.0
C      1  0.5244300000000  0.4379830000000  0.4399370000000 1.0
C      1  0.5181030000000  0.5766220000000  0.4814870000000 1.0
C      1  0.5242020000000  0.4772800000000  0.5894850000000 1.0
C      1  0.4174450000000  0.5471530000000  0.5590430000000 1.0
C      1  0.4145660000000  0.4302150000000  0.5070550000000 1.0
C      1  0.4156980000000  0.5264890000000  0.4337460000000 1.0
C      1  0.4961050000000  0.5806910000000  0.5231660000000 1.0
C      1  0.4941210000000  0.4508780000000  0.5593230000000 1.0
C      1  0.4958460000000  0.4766290000000  0.4220450000000 1.0
C      1  0.5633150000000  0.5872250000000  0.5154590000000 1.0
C      1  0.5606200000000  0.4464290000000  0.5664070000000 1.0
C      1  0.5656140000000  0.4665410000000  0.4190800000000 1.0
C      1  0.3953800000000  0.5287750000000  0.5422920000000 1.0
C      1  0.3947480000000  0.4530840000000  0.4937900000000 1.0
C      1  0.4008090000000  0.5267020000000  0.4607430000000 1.0
C      1  0.5091220000000  0.5570920000000  0.5791640000000 1.0
C      1  0.5119840000000  0.4165650000000  0.5159850000000 1.0
C      1  0.5117870000000  0.5278980000000  0.4192050000000 1.0
C      1  0.5667310000000  0.4745930000000  0.5387220000000 1.0
C      1  0.5646160000000  0.4768000000000  0.4587340000000 1.0
C      1  0.5682790000000  0.5485160000000  0.5071250000000 1.0
C      1  0.4873890000000  0.4900090000000  0.4992960000000 1.0
END
