TITL C-2782229-3092-1393 3.28869688949318e-05 125000 -729.330050233851 0 0 121 (C1) n - 1
REM
REM in /home/nfs/bkarasulu/CARBON/AIRSS/Generating-Clusters/REBO/Higher-Symm/SD-CG/HFTN-CG
REM
REM
REM
REM
REM
REM ./C.cell (12c818d87b63d06a65506943cc24bca4)
REM
REM compiler GCC version 9.2.1 20190827 (Red Hat 9.2.1-1)
REM options -cpp -mtune=generic -march=x86-64 -g -O0 -fpre-include=/usr/include/finclude/math-vector-fortran.h
REM seed 180388358 -774479768 -2074280666 -1454785707 1795629922 -1826006485 172533439 694942053 1420390009 948339207 -516324959 1678918141 -735526746 701707707 1217188826 1607920210 -1567795511 -241590595 1847264981 1809361787 -223149141 1262277878 1835919461 723978188 -1516491125 699826664 1976697974 -576412507 891311241 902407877 -643374109 -1826944947 -1454390359
REM
CELL 1.54180   50.00000   50.00000   50.00000   90.00000   90.00000   90.00000
LATT -1
SFAC C  
C      1  0.5882900000000  0.5516150000000  0.4784370000000 1.0
C      1  0.5488330000000  0.5915030000000  0.4735160000000 1.0
C      1  0.4886310000000  0.6121640000000  0.4813820000000 1.0
C      1  0.4319510000000  0.5789380000000  0.4786320000000 1.0
C      1  0.4030540000000  0.5323230000000  0.4779980000000 1.0
C      1  0.3926170000000  0.4712300000000  0.4810480000000 1.0
C      1  0.4325980000000  0.4229610000000  0.4782920000000 1.0
C      1  0.4849290000000  0.3897610000000  0.4810230000000 1.0
C      1  0.5449160000000  0.4057860000000  0.4803380000000 1.0
C      1  0.5854570000000  0.4451530000000  0.4790630000000 1.0
C      1  0.6144460000000  0.4963000000000  0.4834950000000 1.0
C      1  0.5474490000000  0.4727770000000  0.5827360000000 1.0
C      1  0.5594550000000  0.4983900000000  0.5821940000000 1.0
C      1  0.5507560000000  0.5256040000000  0.5801420000000 1.0
C      1  0.5268720000000  0.5413940000000  0.5775510000000 1.0
C      1  0.4971740000000  0.5392470000000  0.5782660000000 1.0
C      1  0.4673580000000  0.5367220000000  0.5786910000000 1.0
C      1  0.4474130000000  0.5162020000000  0.5800700000000 1.0
C      1  0.4463080000000  0.4877800000000  0.5807600000000 1.0
C      1  0.4657720000000  0.4677750000000  0.5813350000000 1.0
C      1  0.4931680000000  0.4514080000000  0.5825050000000 1.0
C      1  0.5204430000000  0.4562330000000  0.5824060000000 1.0
C      1  0.5388200000000  0.4377310000000  0.5659970000000 1.0
C      1  0.5656400000000  0.4516180000000  0.5677190000000 1.0
C      1  0.5859760000000  0.4965390000000  0.5712430000000 1.0
C      1  0.5726030000000  0.5405560000000  0.5683120000000 1.0
C      1  0.5342500000000  0.5653170000000  0.5628880000000 1.0
C      1  0.4945190000000  0.5628500000000  0.5592590000000 1.0
C      1  0.4552120000000  0.5594390000000  0.5656050000000 1.0
C      1  0.4231160000000  0.5259560000000  0.5679050000000 1.0
C      1  0.4221660000000  0.4788730000000  0.5682460000000 1.0
C      1  0.4587660000000  0.4427970000000  0.5646300000000 1.0
C      1  0.4837020000000  0.4258470000000  0.5666530000000 1.0
C      1  0.4528040000000  0.4666390000000  0.5020570000000 1.0
C      1  0.4787160000000  0.4510310000000  0.5042230000000 1.0
C      1  0.5077080000000  0.4562620000000  0.5043540000000 1.0
C      1  0.5331630000000  0.4714920000000  0.5074890000000 1.0
C      1  0.5477640000000  0.4960120000000  0.5132640000000 1.0
C      1  0.5403650000000  0.5243960000000  0.5190070000000 1.0
C      1  0.5153580000000  0.5392240000000  0.5124820000000 1.0
C      1  0.4906320000000  0.5531810000000  0.5069590000000 1.0
C      1  0.4627030000000  0.5457750000000  0.5037610000000 1.0
C      1  0.4453970000000  0.5216290000000  0.5026870000000 1.0
C      1  0.4387190000000  0.4927140000000  0.5015990000000 1.0
C      1  0.4900210000000  0.4249080000000  0.4468290000000 1.0
C      1  0.5204210000000  0.4379650000000  0.4492280000000 1.0
C      1  0.5583930000000  0.4759720000000  0.4479530000000 1.0
C      1  0.5706060000000  0.5038430000000  0.4569290000000 1.0
C      1  0.5644010000000  0.5292580000000  0.4409390000000 1.0
C      1  0.5168940000000  0.5629720000000  0.4486810000000 1.0
C      1  0.4878510000000  0.5766720000000  0.4472350000000 1.0
C      1  0.4624730000000  0.5575900000000  0.4416370000000 1.0
C      1  0.4308140000000  0.5086490000000  0.4389190000000 1.0
C      1  0.4216610000000  0.4779380000000  0.4406420000000 1.0
C      1  0.4456090000000  0.4564770000000  0.4398550000000 1.0
C      1  0.5989050000000  0.5226970000000  0.5259280000000 1.0
C      1  0.5668520000000  0.5641680000000  0.5227670000000 1.0
C      1  0.5184070000000  0.5853100000000  0.5177850000000 1.0
C      1  0.4651570000000  0.5855650000000  0.5211360000000 1.0
C      1  0.4225290000000  0.5536230000000  0.5236200000000 1.0
C      1  0.4048710000000  0.5031750000000  0.5235970000000 1.0
C      1  0.4205230000000  0.4524130000000  0.5235760000000 1.0
C      1  0.4601410000000  0.4129150000000  0.5227150000000 1.0
C      1  0.5144060000000  0.4051130000000  0.5261130000000 1.0
C      1  0.5660570000000  0.4248200000000  0.5244120000000 1.0
C      1  0.5980870000000  0.4699840000000  0.5272530000000 1.0
C      1  0.4864040000000  0.6060810000000  0.4550030000000 1.0
C      1  0.4361920000000  0.5723970000000  0.4528250000000 1.0
C      1  0.4079410000000  0.5280410000000  0.4517690000000 1.0
C      1  0.3944050000000  0.4708350000000  0.4539740000000 1.0
C      1  0.4364130000000  0.4296440000000  0.4548640000000 1.0
C      1  0.4849800000000  0.3971270000000  0.4572860000000 1.0
C      1  0.5398430000000  0.4162780000000  0.4585420000000 1.0
C      1  0.5769060000000  0.4527040000000  0.4570990000000 1.0
C      1  0.6010970000000  0.5002750000000  0.4605690000000 1.0
C      1  0.5776060000000  0.5509590000000  0.4533130000000 1.0
C      1  0.5388250000000  0.5850850000000  0.4513880000000 1.0
C      1  0.4563120000000  0.5430030000000  0.4709130000000 1.0
C      1  0.4416070000000  0.5158710000000  0.4693710000000 1.0
C      1  0.4385950000000  0.4831730000000  0.4686660000000 1.0
C      1  0.4597170000000  0.4582720000000  0.4701350000000 1.0
C      1  0.4881280000000  0.4458450000000  0.4712250000000 1.0
C      1  0.5184560000000  0.4605480000000  0.4724250000000 1.0
C      1  0.5428240000000  0.4823590000000  0.4760360000000 1.0
C      1  0.5569920000000  0.5119870000000  0.4850620000000 1.0
C      1  0.5487250000000  0.5428160000000  0.4915140000000 1.0
C      1  0.5184130000000  0.5488420000000  0.4789350000000 1.0
C      1  0.4862630000000  0.5573530000000  0.4736690000000 1.0
C      1  0.4346580000000  0.4266590000000  0.5065950000000 1.0
C      1  0.4864460000000  0.3982260000000  0.5083540000000 1.0
C      1  0.5431690000000  0.4071410000000  0.5089020000000 1.0
C      1  0.5865280000000  0.4448180000000  0.5078070000000 1.0
C      1  0.6087630000000  0.4957010000000  0.5096100000000 1.0
C      1  0.5882890000000  0.5468480000000  0.5048460000000 1.0
C      1  0.5449160000000  0.5754670000000  0.4993430000000 1.0
C      1  0.4908340000000  0.5988070000000  0.5045830000000 1.0
C      1  0.4374240000000  0.5765790000000  0.5047240000000 1.0
C      1  0.4066210000000  0.5308740000000  0.5045220000000 1.0
C      1  0.4031940000000  0.4747420000000  0.5053650000000 1.0
C      1  0.5208140000000  0.4572120000000  0.4234010000000 1.0
C      1  0.5406450000000  0.4763490000000  0.4234110000000 1.0
C      1  0.5393170000000  0.5015240000000  0.4108940000000 1.0
C      1  0.5424240000000  0.5269530000000  0.4232980000000 1.0
C      1  0.5198190000000  0.5434090000000  0.4256100000000 1.0
C      1  0.4955940000000  0.5373940000000  0.4123040000000 1.0
C      1  0.4685950000000  0.5366430000000  0.4207400000000 1.0
C      1  0.4536080000000  0.5130420000000  0.4192160000000 1.0
C      1  0.4649580000000  0.4890040000000  0.4090420000000 1.0
C      1  0.4677960000000  0.4629690000000  0.4199250000000 1.0
C      1  0.4915770000000  0.4484110000000  0.4236990000000 1.0
C      1  0.5380920000000  0.4206750000000  0.5426850000000 1.0
C      1  0.5816730000000  0.4467870000000  0.5441430000000 1.0
C      1  0.5968640000000  0.4965580000000  0.5466700000000 1.0
C      1  0.5824420000000  0.5448810000000  0.5435870000000 1.0
C      1  0.5410720000000  0.5751310000000  0.5387230000000 1.0
C      1  0.4928940000000  0.5783530000000  0.5377710000000 1.0
C      1  0.4462500000000  0.5680820000000  0.5417750000000 1.0
C      1  0.4134000000000  0.5286780000000  0.5428590000000 1.0
C      1  0.4129260000000  0.4775320000000  0.5429920000000 1.0
C      1  0.4439040000000  0.4363510000000  0.5407850000000 1.0
C      1  0.4867810000000  0.4095390000000  0.5432640000000 1.0
END
