TITL C-2782237-5345-1017 -0.0012288522056898 125000 -684.848185509825 0 0 118 (C1) n - 1
REM
REM in /home/nfs/bkarasulu/CARBON/AIRSS/Generating-Clusters/REBO/Higher-Symm/SD-CG/HFTN-CG
REM
REM
REM
REM
REM
REM ./C.cell (12c818d87b63d06a65506943cc24bca4)
REM
REM compiler GCC version 9.2.1 20190827 (Red Hat 9.2.1-1)
REM options -cpp -mtune=generic -march=x86-64 -g -O0 -fpre-include=/usr/include/finclude/math-vector-fortran.h
REM seed -1768202133 -300953660 1813886554 23916818 931643018 -776300453 2052744815 1843903202 -2078989978 87926909 1709651339 -2139613071 916236971 66571334 199787172 -1915767800 333782205 520787858 -729075611 -1376158135 1630583252 -2097346198 417155998 29278168 184370680 -1439860450 512401713 1623969487 546597483 -2018752140 2004548056 -135064993 -1761091201
REM
CELL 1.54180   50.00000   50.00000   50.00000   90.00000   90.00000   90.00000
LATT -1
SFAC C  
C      1  0.4785390000000  0.4662400000000  0.5498440000000 1.0
C      1  0.4924060000000  0.5344990000000  0.4560790000000 1.0
C      1  0.5090590000000  0.4639490000000  0.5437590000000 1.0
C      1  0.5234030000000  0.5342790000000  0.4491600000000 1.0
C      1  0.4879880000000  0.4633030000000  0.4547490000000 1.0
C      1  0.4873020000000  0.5382290000000  0.5506860000000 1.0
C      1  0.5185130000000  0.4666940000000  0.4470430000000 1.0
C      1  0.5179630000000  0.5328450000000  0.5446340000000 1.0
C      1  0.4338140000000  0.5483130000000  0.5536520000000 1.0
C      1  0.4339890000000  0.4482260000000  0.4475570000000 1.0
C      1  0.5662090000000  0.5483950000000  0.5515900000000 1.0
C      1  0.5692350000000  0.4589110000000  0.4474230000000 1.0
C      1  0.4333150000000  0.5414820000000  0.4479560000000 1.0
C      1  0.4329840000000  0.4499350000000  0.5525890000000 1.0
C      1  0.5661080000000  0.5515170000000  0.4473620000000 1.0
C      1  0.5658170000000  0.4520290000000  0.5530000000000 1.0
C      1  0.4557510000000  0.4318790000000  0.4376320000000 1.0
C      1  0.4565070000000  0.5628020000000  0.5649210000000 1.0
C      1  0.5462250000000  0.4380960000000  0.4447850000000 1.0
C      1  0.5419890000000  0.5614110000000  0.5613030000000 1.0
C      1  0.4563020000000  0.4357680000000  0.5627770000000 1.0
C      1  0.4554430000000  0.5609890000000  0.4394240000000 1.0
C      1  0.5429570000000  0.4361380000000  0.5631360000000 1.0
C      1  0.5433040000000  0.5667620000000  0.4372990000000 1.0
C      1  0.4319360000000  0.4748410000000  0.4858750000000 1.0
C      1  0.4392920000000  0.5377180000000  0.5155570000000 1.0
C      1  0.5642720000000  0.4642480000000  0.4865440000000 1.0
C      1  0.5697840000000  0.5239430000000  0.5156770000000 1.0
C      1  0.4309810000000  0.4760130000000  0.5156550000000 1.0
C      1  0.4399100000000  0.5364220000000  0.4870020000000 1.0
C      1  0.5622360000000  0.4626320000000  0.5146520000000 1.0
C      1  0.5707270000000  0.5264050000000  0.4861130000000 1.0
C      1  0.5191110000000  0.3896430000000  0.4819750000000 1.0
C      1  0.5118180000000  0.6117010000000  0.5137310000000 1.0
C      1  0.4883450000000  0.3886170000000  0.4857620000000 1.0
C      1  0.4809190000000  0.6111490000000  0.5162930000000 1.0
C      1  0.5167640000000  0.3894990000000  0.5136570000000 1.0
C      1  0.5151930000000  0.6104760000000  0.4822290000000 1.0
C      1  0.4859610000000  0.3895700000000  0.5172960000000 1.0
C      1  0.4843520000000  0.6108570000000  0.4848470000000 1.0
C      1  0.3921870000000  0.4853460000000  0.5151450000000 1.0
C      1  0.3939140000000  0.5136660000000  0.4872930000000 1.0
C      1  0.6077550000000  0.4843460000000  0.5185870000000 1.0
C      1  0.6095110000000  0.5178020000000  0.4828910000000 1.0
C      1  0.3928500000000  0.4829000000000  0.4837450000000 1.0
C      1  0.3929140000000  0.5163070000000  0.5186170000000 1.0
C      1  0.6085250000000  0.4865900000000  0.4868700000000 1.0
C      1  0.6086960000000  0.5152330000000  0.5144130000000 1.0
C      1  0.5149260000000  0.4339480000000  0.4518770000000 1.0
C      1  0.5151090000000  0.5665830000000  0.5463600000000 1.0
C      1  0.4807870000000  0.4320100000000  0.4532700000000 1.0
C      1  0.4810260000000  0.5694910000000  0.5482500000000 1.0
C      1  0.5185830000000  0.4334480000000  0.5463520000000 1.0
C      1  0.5154230000000  0.5668570000000  0.4524590000000 1.0
C      1  0.4842290000000  0.4330010000000  0.5477810000000 1.0
C      1  0.4811540000000  0.5650040000000  0.4538740000000 1.0
C      1  0.5605310000000  0.5210400000000  0.4429030000000 1.0
C      1  0.5571910000000  0.4838690000000  0.5542860000000 1.0
C      1  0.4456340000000  0.5123730000000  0.4446530000000 1.0
C      1  0.4358150000000  0.4812320000000  0.5560120000000 1.0
C      1  0.5627460000000  0.5173250000000  0.5545030000000 1.0
C      1  0.5560070000000  0.4873280000000  0.4411640000000 1.0
C      1  0.4393480000000  0.5150740000000  0.5561050000000 1.0
C      1  0.4407660000000  0.4788210000000  0.4454060000000 1.0
C      1  0.5327840000000  0.5155300000000  0.4252870000000 1.0
C      1  0.5247400000000  0.4826810000000  0.5613360000000 1.0
C      1  0.4778510000000  0.5140990000000  0.4394370000000 1.0
C      1  0.4664790000000  0.4881640000000  0.5668330000000 1.0
C      1  0.5312420000000  0.5128450000000  0.5628710000000 1.0
C      1  0.5281610000000  0.4846270000000  0.4238870000000 1.0
C      1  0.4711890000000  0.5190480000000  0.5667500000000 1.0
C      1  0.4722190000000  0.4834760000000  0.4380190000000 1.0
C      1  0.4828160000000  0.4745800000000  0.4858780000000 1.0
C      1  0.4877670000000  0.5274470000000  0.5192320000000 1.0
C      1  0.5163690000000  0.4744440000000  0.4801800000000 1.0
C      1  0.5202000000000  0.5238440000000  0.5127410000000 1.0
C      1  0.4806700000000  0.4753660000000  0.5181370000000 1.0
C      1  0.4892130000000  0.5260780000000  0.4877580000000 1.0
C      1  0.5131710000000  0.4729110000000  0.5116260000000 1.0
C      1  0.5218470000000  0.5238890000000  0.4808210000000 1.0
C      1  0.5405280000000  0.4793680000000  0.5248280000000 1.0
C      1  0.5488320000000  0.5115890000000  0.4719610000000 1.0
C      1  0.4546080000000  0.4902390000000  0.5287440000000 1.0
C      1  0.4607670000000  0.5193330000000  0.4751540000000 1.0
C      1  0.5455600000000  0.4810330000000  0.4725930000000 1.0
C      1  0.5452360000000  0.5095120000000  0.5257580000000 1.0
C      1  0.4568160000000  0.4883810000000  0.4744450000000 1.0
C      1  0.4592120000000  0.5205500000000  0.5286280000000 1.0
C      1  0.4269920000000  0.5639370000000  0.4731320000000 1.0
C      1  0.4294650000000  0.4421850000000  0.5202060000000 1.0
C      1  0.5700790000000  0.5593140000000  0.4798910000000 1.0
C      1  0.5751800000000  0.4339600000000  0.5256490000000 1.0
C      1  0.4254800000000  0.5664610000000  0.5260060000000 1.0
C      1  0.4306180000000  0.4415080000000  0.4803290000000 1.0
C      1  0.5706110000000  0.5579590000000  0.5197570000000 1.0
C      1  0.5747590000000  0.4359500000000  0.4725980000000 1.0
C      1  0.4100680000000  0.5339280000000  0.4722870000000 1.0
C      1  0.4065080000000  0.4633430000000  0.5345000000000 1.0
C      1  0.5935590000000  0.5394260000000  0.4649570000000 1.0
C      1  0.5905290000000  0.4641840000000  0.5317770000000 1.0
C      1  0.4099460000000  0.5363690000000  0.5314310000000 1.0
C      1  0.4080840000000  0.4624560000000  0.4653530000000 1.0
C      1  0.5941180000000  0.5373230000000  0.5340080000000 1.0
C      1  0.5934840000000  0.4649390000000  0.4712830000000 1.0
C      1  0.4711700000000  0.5806470000000  0.5204140000000 1.0
C      1  0.4751000000000  0.4185730000000  0.4806870000000 1.0
C      1  0.5241870000000  0.5813870000000  0.5198110000000 1.0
C      1  0.5286080000000  0.4206180000000  0.4789290000000 1.0
C      1  0.4722800000000  0.5799820000000  0.4804890000000 1.0
C      1  0.4758150000000  0.4199790000000  0.5205340000000 1.0
C      1  0.5243670000000  0.5796370000000  0.4799630000000 1.0
C      1  0.5284600000000  0.4201660000000  0.5188380000000 1.0
C      1  0.5554640000000  0.4265200000000  0.4989740000000 1.0
C      1  0.4448850000000  0.5740030000000  0.4997500000000 1.0
C      1  0.5503340000000  0.5729330000000  0.5005880000000 1.0
C      1  0.4495040000000  0.4269020000000  0.5010590000000 1.0
C      1  0.5018340000000  0.4235580000000  0.4993990000000 1.0
C      1  0.4979410000000  0.5768010000000  0.5004550000000 1.0
END
