TITL C-2782232-2968-102 -0.000582428486004574 125000 -60.3195974621531 0 0 12 (Cs) n - 1
REM
REM in /home/nfs/bkarasulu/CARBON/AIRSS/Generating-Clusters/REBO/Higher-Symm/SD-CG/HFTN-CG
REM
REM
REM
REM
REM
REM ./C.cell (12c818d87b63d06a65506943cc24bca4)
REM
REM compiler GCC version 9.2.1 20190827 (Red Hat 9.2.1-1)
REM options -cpp -mtune=generic -march=x86-64 -g -O0 -fpre-include=/usr/include/finclude/math-vector-fortran.h
REM seed -347483136 1185518084 -365561412 -89611192 -1678529429 -859181394 2045230252 1328712577 -1127521874 -643188003 -1138023415 -1563179268 -249583785 -1730420433 1193422283 1940200888 -1578073807 -687281772 -438460007 755993615 -1273680213 415648981 1192113684 -1278505336 -672964548 795557329 -967459378 1655447614 682604917 -455485438 1208085701 666363131 839832082
REM
CELL 1.54180   50.00000   50.00000   50.00000   90.00000   90.00000   90.00000
LATT -1
SFAC C  
C      1  0.4994820000000  0.4999720000000  0.5295130000000 1.0
C      1  0.4770660000000  0.4997560000000  0.4826740000000 1.0
C      1  0.5282390000000  0.5003280000000  0.4859330000000 1.0
C      1  0.5008790000000  0.5000340000000  0.4687740000000 1.0
C      1  0.4757190000000  0.4997160000000  0.5150560000000 1.0
C      1  0.5274870000000  0.5002990000000  0.5132850000000 1.0
C      1  0.5136930000000  0.5002000000000  0.4393730000000 1.0
C      1  0.5369460000000  0.5003820000000  0.5427410000000 1.0
C      1  0.4438170000000  0.4993550000000  0.5184420000000 1.0
C      1  0.5112910000000  0.5000810000000  0.5593390000000 1.0
C      1  0.5387780000000  0.5004690000000  0.4568460000000 1.0
C      1  0.4466010000000  0.4994090000000  0.4880230000000 1.0
END
