TITL C-2782233-7966-1052 -9.90193946207535e-05 125000 -597.023701104888 0 0 108 (C1) n - 1
REM
REM in /home/nfs/bkarasulu/CARBON/AIRSS/Generating-Clusters/REBO/Higher-Symm/SD-CG/HFTN-CG
REM
REM
REM
REM
REM
REM ./C.cell (12c818d87b63d06a65506943cc24bca4)
REM
REM compiler GCC version 9.2.1 20190827 (Red Hat 9.2.1-1)
REM options -cpp -mtune=generic -march=x86-64 -g -O0 -fpre-include=/usr/include/finclude/math-vector-fortran.h
REM seed 330916638 -1888956631 820975778 -1862444070 1834759270 -663583312 1712526810 2064662510 -80120014 -467441793 -1638486521 -1806890191 1393724747 -201871155 -1590012782 -673386368 -1320168322 -1215001744 2080723294 78657251 1735697666 540915295 -1242605271 -1110683782 -5424692 1136553579 -2022033926 -1663654184 -299577817 -1240079280 -147954982 1004400069 -166263665
REM
CELL 1.54180   50.00000   50.00000   50.00000   90.00000   90.00000   90.00000
LATT -1
SFAC C  
C      1  0.4607730000000  0.5197970000000  0.5626470000000 1.0
C      1  0.4569540000000  0.4634680000000  0.5550100000000 1.0
C      1  0.4584790000000  0.4352460000000  0.5053360000000 1.0
C      1  0.4575010000000  0.4551240000000  0.4517890000000 1.0
C      1  0.4621760000000  0.5092010000000  0.4344100000000 1.0
C      1  0.4581690000000  0.5561350000000  0.4663480000000 1.0
C      1  0.4613580000000  0.5604690000000  0.5233560000000 1.0
C      1  0.5312280000000  0.4670220000000  0.4705820000000 1.0
C      1  0.5144970000000  0.5155510000000  0.4648630000000 1.0
C      1  0.5318980000000  0.5405610000000  0.4748240000000 1.0
C      1  0.5122360000000  0.5348830000000  0.5212700000000 1.0
C      1  0.5088140000000  0.5000480000000  0.5398740000000 1.0
C      1  0.5316240000000  0.4775220000000  0.5368720000000 1.0
C      1  0.5077110000000  0.4601650000000  0.4928940000000 1.0
C      1  0.5131290000000  0.4828300000000  0.4252970000000 1.0
C      1  0.5193530000000  0.5492430000000  0.4382220000000 1.0
C      1  0.5150190000000  0.5804580000000  0.4986870000000 1.0
C      1  0.5191820000000  0.5486380000000  0.5581580000000 1.0
C      1  0.5200180000000  0.4838010000000  0.5744030000000 1.0
C      1  0.5184630000000  0.4294980000000  0.5335710000000 1.0
C      1  0.5175010000000  0.4298180000000  0.4683040000000 1.0
C      1  0.4751270000000  0.5329320000000  0.4804980000000 1.0
C      1  0.4792380000000  0.5355260000000  0.5130140000000 1.0
C      1  0.4775200000000  0.5106370000000  0.5361890000000 1.0
C      1  0.4722220000000  0.4782930000000  0.5312220000000 1.0
C      1  0.4757760000000  0.4619500000000  0.5036050000000 1.0
C      1  0.4737340000000  0.4747800000000  0.4721640000000 1.0
C      1  0.4816830000000  0.5060420000000  0.4613400000000 1.0
C      1  0.4963410000000  0.5105810000000  0.5921480000000 1.0
C      1  0.4942880000000  0.4352060000000  0.5648540000000 1.0
C      1  0.4933510000000  0.4070300000000  0.4904860000000 1.0
C      1  0.4942710000000  0.4477110000000  0.4229230000000 1.0
C      1  0.4959730000000  0.5316400000000  0.4112620000000 1.0
C      1  0.4929460000000  0.5885560000000  0.4664180000000 1.0
C      1  0.4962630000000  0.5800090000000  0.5490470000000 1.0
C      1  0.5580140000000  0.4831740000000  0.5500900000000 1.0
C      1  0.5341840000000  0.4617980000000  0.5115340000000 1.0
C      1  0.5570690000000  0.4512340000000  0.4736900000000 1.0
C      1  0.5398850000000  0.4949580000000  0.4629300000000 1.0
C      1  0.5587540000000  0.5417070000000  0.4607940000000 1.0
C      1  0.5389440000000  0.5431200000000  0.5043280000000 1.0
C      1  0.5381280000000  0.5168800000000  0.5343320000000 1.0
C      1  0.5834750000000  0.4708350000000  0.4820690000000 1.0
C      1  0.5732150000000  0.4966770000000  0.4702260000000 1.0
C      1  0.5799150000000  0.5241880000000  0.4792920000000 1.0
C      1  0.5706870000000  0.5315740000000  0.5067170000000 1.0
C      1  0.5740890000000  0.5133940000000  0.5298690000000 1.0
C      1  0.5863300000000  0.4851080000000  0.5312330000000 1.0
C      1  0.5899560000000  0.4644740000000  0.5106230000000 1.0
C      1  0.4304750000000  0.5146620000000  0.5591000000000 1.0
C      1  0.4265340000000  0.4645320000000  0.5480140000000 1.0
C      1  0.4288950000000  0.4432360000000  0.5010640000000 1.0
C      1  0.4271680000000  0.4613500000000  0.4531780000000 1.0
C      1  0.4322420000000  0.5112150000000  0.4419690000000 1.0
C      1  0.4282780000000  0.5518620000000  0.4735310000000 1.0
C      1  0.4316850000000  0.5515920000000  0.5246540000000 1.0
C      1  0.5690880000000  0.4780650000000  0.5778490000000 1.0
C      1  0.5508560000000  0.4399720000000  0.5126080000000 1.0
C      1  0.5697620000000  0.4297050000000  0.4565470000000 1.0
C      1  0.5487550000000  0.4979140000000  0.4279310000000 1.0
C      1  0.5762220000000  0.5591050000000  0.4403300000000 1.0
C      1  0.5505930000000  0.5755180000000  0.5141990000000 1.0
C      1  0.5528220000000  0.5280350000000  0.5602170000000 1.0
C      1  0.5156270000000  0.5659710000000  0.4677220000000 1.0
C      1  0.5165410000000  0.5658550000000  0.5283970000000 1.0
C      1  0.5153500000000  0.5170730000000  0.5669880000000 1.0
C      1  0.5160630000000  0.4562930000000  0.5545830000000 1.0
C      1  0.5135450000000  0.4290600000000  0.5023360000000 1.0
C      1  0.5148930000000  0.4556940000000  0.4462160000000 1.0
C      1  0.5152460000000  0.5156050000000  0.4320190000000 1.0
C      1  0.4658900000000  0.4850470000000  0.4153250000000 1.0
C      1  0.4620270000000  0.5564290000000  0.4353700000000 1.0
C      1  0.4638510000000  0.5847180000000  0.5041080000000 1.0
C      1  0.4653730000000  0.5496580000000  0.5695400000000 1.0
C      1  0.4625110000000  0.4768310000000  0.5826030000000 1.0
C      1  0.4617120000000  0.4214610000000  0.5329230000000 1.0
C      1  0.4617210000000  0.4251410000000  0.4590770000000 1.0
C      1  0.5236240000000  0.4062060000000  0.4572400000000 1.0
C      1  0.5078980000000  0.4770670000000  0.3994720000000 1.0
C      1  0.5263840000000  0.5641240000000  0.4171740000000 1.0
C      1  0.5106530000000  0.6069090000000  0.4988240000000 1.0
C      1  0.5251410000000  0.5648240000000  0.5788640000000 1.0
C      1  0.5279230000000  0.4787740000000  0.5994610000000 1.0
C      1  0.5252860000000  0.4063670000000  0.5450040000000 1.0
C      1  0.4708450000000  0.5348760000000  0.4214450000000 1.0
C      1  0.4690220000000  0.5818750000000  0.4776530000000 1.0
C      1  0.4718880000000  0.5678800000000  0.5506290000000 1.0
C      1  0.4713160000000  0.5023940000000  0.5849110000000 1.0
C      1  0.4689940000000  0.4358080000000  0.5547350000000 1.0
C      1  0.4687710000000  0.4169240000000  0.4838550000000 1.0
C      1  0.4699010000000  0.4599250000000  0.4247220000000 1.0
C      1  0.4166200000000  0.5086800000000  0.5352240000000 1.0
C      1  0.4148510000000  0.4812510000000  0.5296470000000 1.0
C      1  0.4175140000000  0.4719870000000  0.5002140000000 1.0
C      1  0.4145570000000  0.4787690000000  0.4698920000000 1.0
C      1  0.4160170000000  0.5053980000000  0.4627970000000 1.0
C      1  0.4173720000000  0.5257980000000  0.4861100000000 1.0
C      1  0.4175180000000  0.5296860000000  0.5168290000000 1.0
C      1  0.5800440000000  0.5289770000000  0.5580490000000 1.0
C      1  0.5952720000000  0.4778360000000  0.5626130000000 1.0
C      1  0.5780040000000  0.4404330000000  0.5169930000000 1.0
C      1  0.5942260000000  0.4472980000000  0.4605640000000 1.0
C      1  0.5727760000000  0.4953510000000  0.4387380000000 1.0
C      1  0.5960820000000  0.5443930000000  0.4580670000000 1.0
C      1  0.5737830000000  0.5621540000000  0.5135840000000 1.0
C      1  0.4353690000000  0.4997480000000  0.4972350000000 1.0
C      1  0.4621080000000  0.5008060000000  0.5000280000000 1.0
C      1  0.4890120000000  0.4992600000000  0.4998050000000 1.0
END
