TITL C-2782225-7408-1477 -0.00483273767995894 125000 -1032.10319184755 0 0 176 (C1) n - 1
REM
REM in /home/nfs/bkarasulu/CARBON/AIRSS/Generating-Clusters/REBO/Higher-Symm/SD-CG/HFTN-CG
REM
REM
REM
REM
REM
REM ./C.cell (12c818d87b63d06a65506943cc24bca4)
REM
REM compiler GCC version 9.2.1 20190827 (Red Hat 9.2.1-1)
REM options -cpp -mtune=generic -march=x86-64 -g -O0 -fpre-include=/usr/include/finclude/math-vector-fortran.h
REM seed -276776447 85972887 -1599278713 -2111354534 1546369369 -328153145 -352099545 -1418232982 246751008 339341912 50576180 -486199595 -331901617 2031009493 1801379490 1427831834 -782890193 1904652599 -1440058900 1365516942 421925329 1426023182 -909327283 997062400 746225596 -581512865 1999955635 -220665552 -837117876 253110476 -858976708 -578373809 -1284424442
REM
CELL 1.54180   50.00000   50.00000   50.00000   90.00000   90.00000   90.00000
LATT -1
SFAC C  
C      1  0.5556260000000  0.3992950000000  0.5253540000000 1.0
C      1  0.6189250000000  0.5004240000000  0.4701600000000 1.0
C      1  0.5586780000000  0.5997830000000  0.5312880000000 1.0
C      1  0.4460340000000  0.6049680000000  0.4710840000000 1.0
C      1  0.3828470000000  0.5022780000000  0.5346670000000 1.0
C      1  0.4349080000000  0.4013800000000  0.4660030000000 1.0
C      1  0.3919260000000  0.4695000000000  0.4850130000000 1.0
C      1  0.4702090000000  0.3964000000000  0.5157800000000 1.0
C      1  0.5787200000000  0.4266670000000  0.4833370000000 1.0
C      1  0.6036090000000  0.5304230000000  0.5218760000000 1.0
C      1  0.5272310000000  0.6018990000000  0.4814890000000 1.0
C      1  0.4218140000000  0.5726590000000  0.5184920000000 1.0
C      1  0.4636350000000  0.5631530000000  0.4346210000000 1.0
C      1  0.4379200000000  0.5108800000000  0.5608130000000 1.0
C      1  0.4615830000000  0.4508600000000  0.4438810000000 1.0
C      1  0.5337480000000  0.4362870000000  0.5643390000000 1.0
C      1  0.5650520000000  0.4870410000000  0.4296410000000 1.0
C      1  0.5354600000000  0.5482400000000  0.5612770000000 1.0
C      1  0.5263570000000  0.3874470000000  0.4962080000000 1.0
C      1  0.6132390000000  0.4669760000000  0.5124150000000 1.0
C      1  0.5794180000000  0.5703830000000  0.4922570000000 1.0
C      1  0.4790110000000  0.6082110000000  0.5086830000000 1.0
C      1  0.3954960000000  0.5310990000000  0.4938090000000 1.0
C      1  0.4152600000000  0.4249530000000  0.5102960000000 1.0
C      1  0.5083840000000  0.4503240000000  0.5918160000000 1.0
C      1  0.5474680000000  0.4802930000000  0.4010190000000 1.0
C      1  0.5363550000000  0.5304360000000  0.5986870000000 1.0
C      1  0.4902400000000  0.5453940000000  0.4055970000000 1.0
C      1  0.4579390000000  0.5163610000000  0.5948610000000 1.0
C      1  0.4620060000000  0.4682110000000  0.4079960000000 1.0
C      1  0.5303130000000  0.4162170000000  0.4513540000000 1.0
C      1  0.5881200000000  0.4831370000000  0.5544150000000 1.0
C      1  0.5592880000000  0.5628600000000  0.4481300000000 1.0
C      1  0.4722030000000  0.5842420000000  0.5520670000000 1.0
C      1  0.4110720000000  0.5180520000000  0.4500880000000 1.0
C      1  0.4384470000000  0.4338520000000  0.5523090000000 1.0
C      1  0.4897510000000  0.5201090000000  0.4784190000000 1.0
C      1  0.4773610000000  0.5003080000000  0.4981580000000 1.0
C      1  0.4886670000000  0.4740150000000  0.4962820000000 1.0
C      1  0.5165830000000  0.4741140000000  0.5031040000000 1.0
C      1  0.5288090000000  0.4975000000000  0.4925110000000 1.0
C      1  0.5124240000000  0.5193570000000  0.4981100000000 1.0
C      1  0.5732570000000  0.5264570000000  0.4393460000000 1.0
C      1  0.5124210000000  0.5719370000000  0.5564200000000 1.0
C      1  0.4372270000000  0.5476230000000  0.4440910000000 1.0
C      1  0.4366820000000  0.4733880000000  0.5473060000000 1.0
C      1  0.4919640000000  0.4269500000000  0.4519560000000 1.0
C      1  0.5624470000000  0.4529790000000  0.5581770000000 1.0
C      1  0.5208310000000  0.5203440000000  0.4320270000000 1.0
C      1  0.4954850000000  0.5301120000000  0.5654140000000 1.0
C      1  0.4701220000000  0.5094620000000  0.4370480000000 1.0
C      1  0.4813520000000  0.4814270000000  0.5633940000000 1.0
C      1  0.5076720000000  0.4714910000000  0.4305920000000 1.0
C      1  0.5295250000000  0.4920370000000  0.5695890000000 1.0
C      1  0.4500020000000  0.4669350000000  0.4688300000000 1.0
C      1  0.5207870000000  0.4405170000000  0.5364060000000 1.0
C      1  0.5656210000000  0.4826440000000  0.4693530000000 1.0
C      1  0.5384780000000  0.5314490000000  0.5358220000000 1.0
C      1  0.4807640000000  0.5614060000000  0.4590950000000 1.0
C      1  0.4503990000000  0.5149650000000  0.5336490000000 1.0
C      1  0.4572470000000  0.5631940000000  0.5025510000000 1.0
C      1  0.4195260000000  0.4959550000000  0.4965320000000 1.0
C      1  0.4659460000000  0.4334500000000  0.5019600000000 1.0
C      1  0.5422840000000  0.4391650000000  0.4941060000000 1.0
C      1  0.5759760000000  0.5036740000000  0.5116990000000 1.0
C      1  0.5311870000000  0.5623230000000  0.4916450000000 1.0
C      1  0.5745090000000  0.5539450000000  0.5674600000000 1.0
C      1  0.4912070000000  0.5919770000000  0.4358100000000 1.0
C      1  0.4186330000000  0.5385050000000  0.5662540000000 1.0
C      1  0.4170220000000  0.4493640000000  0.4343800000000 1.0
C      1  0.5084220000000  0.4070740000000  0.5548080000000 1.0
C      1  0.5916810000000  0.4526400000000  0.4396750000000 1.0
C      1  0.5364380000000  0.4553470000000  0.4683080000000 1.0
C      1  0.5582930000000  0.5060190000000  0.5361780000000 1.0
C      1  0.5257400000000  0.5474000000000  0.4634420000000 1.0
C      1  0.4652280000000  0.5517850000000  0.5300470000000 1.0
C      1  0.4359920000000  0.4937490000000  0.4694830000000 1.0
C      1  0.4770570000000  0.4463660000000  0.5273030000000 1.0
C      1  0.5655770000000  0.4793010000000  0.5797410000000 1.0
C      1  0.5504600000000  0.5443490000000  0.4209320000000 1.0
C      1  0.4866700000000  0.5668830000000  0.5775550000000 1.0
C      1  0.4338200000000  0.5198530000000  0.4247760000000 1.0
C      1  0.4517980000000  0.4568090000000  0.5729800000000 1.0
C      1  0.5128610000000  0.4321170000000  0.4264560000000 1.0
C      1  0.4672660000000  0.5390420000000  0.5797120000000 1.0
C      1  0.4479160000000  0.4889150000000  0.4224840000000 1.0
C      1  0.4852390000000  0.4500070000000  0.5744220000000 1.0
C      1  0.5338040000000  0.4564950000000  0.4179310000000 1.0
C      1  0.5515490000000  0.5105480000000  0.5835940000000 1.0
C      1  0.5163940000000  0.5495190000000  0.4200230000000 1.0
C      1  0.4401100000000  0.5794830000000  0.5418970000000 1.0
C      1  0.3981340000000  0.4897260000000  0.4582120000000 1.0
C      1  0.4588240000000  0.4145040000000  0.5424340000000 1.0
C      1  0.5585730000000  0.4246200000000  0.4559610000000 1.0
C      1  0.5954780000000  0.5117460000000  0.5491430000000 1.0
C      1  0.5385660000000  0.5836570000000  0.4551040000000 1.0
C      1  0.5844920000000  0.5562660000000  0.5198790000000 1.0
C      1  0.4960710000000  0.6072310000000  0.4813430000000 1.0
C      1  0.4070860000000  0.5443100000000  0.5202260000000 1.0
C      1  0.4072300000000  0.4414080000000  0.4838990000000 1.0
C      1  0.5010140000000  0.3942910000000  0.5176490000000 1.0
C      1  0.5999610000000  0.4531740000000  0.4852560000000 1.0
C      1  0.5451620000000  0.4995000000000  0.4707440000000 1.0
C      1  0.5087940000000  0.5252060000000  0.5280150000000 1.0
C      1  0.4972210000000  0.5396710000000  0.4600360000000 1.0
C      1  0.4773700000000  0.5122680000000  0.5246790000000 1.0
C      1  0.4810080000000  0.4603430000000  0.4708970000000 1.0
C      1  0.5259040000000  0.4660350000000  0.5275940000000 1.0
C      1  0.5788730000000  0.5762160000000  0.5424650000000 1.0
C      1  0.4748440000000  0.6117320000000  0.4577030000000 1.0
C      1  0.3925870000000  0.5330600000000  0.5450320000000 1.0
C      1  0.4141810000000  0.4258040000000  0.4583290000000 1.0
C      1  0.5286360000000  0.3871300000000  0.5361720000000 1.0
C      1  0.6068390000000  0.4726990000000  0.4599320000000 1.0
C      1  0.5701090000000  0.5251510000000  0.5624820000000 1.0
C      1  0.5136950000000  0.5734890000000  0.4400330000000 1.0
C      1  0.4463320000000  0.5508510000000  0.5583590000000 1.0
C      1  0.4235250000000  0.4781590000000  0.4411400000000 1.0
C      1  0.4869740000000  0.4265990000000  0.5523730000000 1.0
C      1  0.5579340000000  0.4555840000000  0.4414200000000 1.0
C      1  0.5466320000000  0.5109020000000  0.4143530000000 1.0
C      1  0.5132470000000  0.5467760000000  0.5871300000000 1.0
C      1  0.4639860000000  0.5353270000000  0.4174060000000 1.0
C      1  0.4539790000000  0.4905180000000  0.5789740000000 1.0
C      1  0.4845210000000  0.4512950000000  0.4211280000000 1.0
C      1  0.5349980000000  0.4635280000000  0.5846970000000 1.0
C      1  0.4088340000000  0.4824130000000  0.5456680000000 1.0
C      1  0.4649960000000  0.4095330000000  0.4517120000000 1.0
C      1  0.5672530000000  0.4223020000000  0.5481060000000 1.0
C      1  0.6025290000000  0.5263380000000  0.4552130000000 1.0
C      1  0.5290830000000  0.5975400000000  0.5483260000000 1.0
C      1  0.4325350000000  0.5789150000000  0.4537360000000 1.0
C      1  0.6085420000000  0.4967600000000  0.5161560000000 1.0
C      1  0.5551650000000  0.5850880000000  0.4912670000000 1.0
C      1  0.4517560000000  0.5968750000000  0.5024000000000 1.0
C      1  0.3863240000000  0.5025990000000  0.4923540000000 1.0
C      1  0.4404280000000  0.4119540000000  0.5079400000000 1.0
C      1  0.5519200000000  0.4075030000000  0.4930410000000 1.0
C      1  0.5900430000000  0.4652920000000  0.5324160000000 1.0
C      1  0.5766260000000  0.5530660000000  0.4685770000000 1.0
C      1  0.4899580000000  0.5926340000000  0.5311750000000 1.0
C      1  0.4140450000000  0.5347400000000  0.4733170000000 1.0
C      1  0.4170400000000  0.4413260000000  0.5347860000000 1.0
C      1  0.5168680000000  0.4053180000000  0.4739020000000 1.0
C      1  0.5084770000000  0.4562270000000  0.4577450000000 1.0
C      1  0.5456070000000  0.4796820000000  0.5452360000000 1.0
C      1  0.5446040000000  0.5233130000000  0.4541280000000 1.0
C      1  0.4931390000000  0.5497870000000  0.5396780000000 1.0
C      1  0.4495480000000  0.5207280000000  0.4614050000000 1.0
C      1  0.4659940000000  0.4705100000000  0.5381870000000 1.0
C      1  0.4303190000000  0.5214590000000  0.5109300000000 1.0
C      1  0.4400110000000  0.4493570000000  0.4907830000000 1.0
C      1  0.5202620000000  0.4221410000000  0.5138640000000 1.0
C      1  0.5783360000000  0.4767420000000  0.4960240000000 1.0
C      1  0.5525160000000  0.5468040000000  0.5112240000000 1.0
C      1  0.4810530000000  0.5762760000000  0.4849040000000 1.0
C      1  0.4043120000000  0.5082100000000  0.5656950000000 1.0
C      1  0.4413820000000  0.4275030000000  0.4374360000000 1.0
C      1  0.5416540000000  0.4047460000000  0.5622760000000 1.0
C      1  0.5909710000000  0.4971470000000  0.4422620000000 1.0
C      1  0.5513740000000  0.5771960000000  0.5627300000000 1.0
C      1  0.4569350000000  0.5940810000000  0.4345730000000 1.0
C      1  0.4431890000000  0.5414520000000  0.4872860000000 1.0
C      1  0.4217860000000  0.4660440000000  0.5116020000000 1.0
C      1  0.4877180000000  0.4176060000000  0.4833040000000 1.0
C      1  0.5663550000000  0.4515750000000  0.5120730000000 1.0
C      1  0.5733130000000  0.5292890000000  0.4927700000000 1.0
C      1  0.5067060000000  0.5773100000000  0.5054140000000 1.0
C      1  0.4254400000000  0.5824040000000  0.4869630000000 1.0
C      1  0.3896310000000  0.4737440000000  0.5188010000000 1.0
C      1  0.4634850000000  0.3940040000000  0.4823600000000 1.0
C      1  0.5800450000000  0.4216190000000  0.5171190000000 1.0
C      1  0.6067550000000  0.5255190000000  0.4887370000000 1.0
C      1  0.5286040000000  0.6013170000000  0.5154930000000 1.0
C      1  0.5024600000000  0.5014830000000  0.5640960000000 1.0
C      1  0.4990580000000  0.5002570000000  0.4342500000000 1.0
END
