TITL C-2782232-2968-942 0.00806348090043382 125000 -775.200971815943 0 0 137 (C1) n - 1
REM
REM in /home/nfs/bkarasulu/CARBON/AIRSS/Generating-Clusters/REBO/Higher-Symm/SD-CG/HFTN-CG
REM
REM
REM
REM
REM
REM ./C.cell (12c818d87b63d06a65506943cc24bca4)
REM
REM compiler GCC version 9.2.1 20190827 (Red Hat 9.2.1-1)
REM options -cpp -mtune=generic -march=x86-64 -g -O0 -fpre-include=/usr/include/finclude/math-vector-fortran.h
REM seed -1883707842 -606644615 -273699218 241768356 1793351538 697203374 526340258 -2078854101 -1434283806 -640579050 1845156030 1010530992 1659078546 265525906 1996943275 1459111108 -2077590360 2056599635 -855291915 -332619578 -513338901 -1176106877 -1243534802 -1492347366 -162979327 1642334694 -1693704101 1398911201 -1378330733 1527665436 -78293025 -1376282398 1615830089
REM
CELL 1.54180   50.00000   50.00000   50.00000   90.00000   90.00000   90.00000
LATT -1
SFAC C  
C      1  0.4122200000000  0.5562610000000  0.5118650000000 1.0
C      1  0.4280000000000  0.4166830000000  0.4965220000000 1.0
C      1  0.5362870000000  0.4054080000000  0.5081910000000 1.0
C      1  0.6073890000000  0.5106990000000  0.5103330000000 1.0
C      1  0.5313320000000  0.5923320000000  0.5124470000000 1.0
C      1  0.5910430000000  0.5505100000000  0.4906540000000 1.0
C      1  0.5762220000000  0.4365460000000  0.4871890000000 1.0
C      1  0.4700820000000  0.3991500000000  0.4887860000000 1.0
C      1  0.3955930000000  0.5070850000000  0.4971400000000 1.0
C      1  0.4872720000000  0.5998390000000  0.4965330000000 1.0
C      1  0.5112030000000  0.4220080000000  0.4236170000000 1.0
C      1  0.5694970000000  0.4882830000000  0.4305120000000 1.0
C      1  0.5296070000000  0.5638800000000  0.4333690000000 1.0
C      1  0.4492720000000  0.5494800000000  0.4274730000000 1.0
C      1  0.4363390000000  0.4677320000000  0.4169280000000 1.0
C      1  0.4876380000000  0.4261920000000  0.5800710000000 1.0
C      1  0.4246690000000  0.4919180000000  0.5831070000000 1.0
C      1  0.4637170000000  0.5629050000000  0.5773390000000 1.0
C      1  0.5507790000000  0.5548690000000  0.5725670000000 1.0
C      1  0.5605790000000  0.4664900000000  0.5678580000000 1.0
C      1  0.4330810000000  0.4318520000000  0.4690180000000 1.0
C      1  0.5347060000000  0.4100680000000  0.4777890000000 1.0
C      1  0.5986180000000  0.4983690000000  0.4814890000000 1.0
C      1  0.5380890000000  0.5881130000000  0.4807770000000 1.0
C      1  0.4193310000000  0.5489470000000  0.4830230000000 1.0
C      1  0.5695610000000  0.4418550000000  0.5164950000000 1.0
C      1  0.4725460000000  0.4017260000000  0.5214090000000 1.0
C      1  0.4000420000000  0.5095050000000  0.5283350000000 1.0
C      1  0.4798670000000  0.5898840000000  0.5261170000000 1.0
C      1  0.5792660000000  0.5553040000000  0.5205080000000 1.0
C      1  0.5621330000000  0.5169310000000  0.4346840000000 1.0
C      1  0.5038520000000  0.5618190000000  0.4481580000000 1.0
C      1  0.4380040000000  0.5278870000000  0.4137410000000 1.0
C      1  0.4639950000000  0.4655120000000  0.4342750000000 1.0
C      1  0.5256660000000  0.4489630000000  0.4284780000000 1.0
C      1  0.4262380000000  0.5178820000000  0.5943050000000 1.0
C      1  0.4911600000000  0.5562810000000  0.5607090000000 1.0
C      1  0.5588000000000  0.5254130000000  0.5712690000000 1.0
C      1  0.5314600000000  0.4627660000000  0.5612640000000 1.0
C      1  0.4748670000000  0.4540150000000  0.5741910000000 1.0
C      1  0.5978240000000  0.5307870000000  0.4771480000000 1.0
C      1  0.5070730000000  0.5990980000000  0.4814410000000 1.0
C      1  0.4044570000000  0.5226030000000  0.4791610000000 1.0
C      1  0.4581470000000  0.4118130000000  0.4707260000000 1.0
C      1  0.5617710000000  0.4233440000000  0.4711230000000 1.0
C      1  0.4048760000000  0.5402460000000  0.5301050000000 1.0
C      1  0.5115860000000  0.5936130000000  0.5276290000000 1.0
C      1  0.5996100000000  0.5300410000000  0.5238800000000 1.0
C      1  0.5502440000000  0.4192920000000  0.5241220000000 1.0
C      1  0.4406040000000  0.4057050000000  0.5149270000000 1.0
C      1  0.5419010000000  0.5005580000000  0.5307360000000 1.0
C      1  0.5192060000000  0.5537610000000  0.5410370000000 1.0
C      1  0.4563840000000  0.5332890000000  0.5371990000000 1.0
C      1  0.4524280000000  0.4687010000000  0.5344830000000 1.0
C      1  0.5123140000000  0.4482610000000  0.5368880000000 1.0
C      1  0.4372430000000  0.4994340000000  0.4714600000000 1.0
C      1  0.4765110000000  0.5460030000000  0.4611780000000 1.0
C      1  0.5436860000000  0.5273520000000  0.4593080000000 1.0
C      1  0.5457530000000  0.4713800000000  0.4660300000000 1.0
C      1  0.4832680000000  0.4510450000000  0.4590540000000 1.0
C      1  0.4773420000000  0.4893470000000  0.5946410000000 1.0
C      1  0.5058690000000  0.4822630000000  0.5844230000000 1.0
C      1  0.5278620000000  0.5079090000000  0.5885530000000 1.0
C      1  0.5014220000000  0.5290660000000  0.5875190000000 1.0
C      1  0.4748080000000  0.5173970000000  0.5991190000000 1.0
C      1  0.5224450000000  0.4830500000000  0.4081400000000 1.0
C      1  0.4952330000000  0.4763430000000  0.4114490000000 1.0
C      1  0.4777220000000  0.5012610000000  0.4197180000000 1.0
C      1  0.4991630000000  0.5277080000000  0.4183490000000 1.0
C      1  0.5279190000000  0.5119050000000  0.4150370000000 1.0
C      1  0.5179150000000  0.5579370000000  0.5807590000000 1.0
C      1  0.4511700000000  0.5350240000000  0.5925300000000 1.0
C      1  0.4518110000000  0.4719100000000  0.5880700000000 1.0
C      1  0.5129460000000  0.4489580000000  0.5848100000000 1.0
C      1  0.5593390000000  0.4956970000000  0.5841250000000 1.0
C      1  0.4827390000000  0.5537570000000  0.4225680000000 1.0
C      1  0.5461910000000  0.5389300000000  0.4171270000000 1.0
C      1  0.5495440000000  0.4660760000000  0.4136420000000 1.0
C      1  0.4868590000000  0.4460340000000  0.4195620000000 1.0
C      1  0.4462790000000  0.5004770000000  0.4175610000000 1.0
C      1  0.4871140000000  0.4095330000000  0.5503550000000 1.0
C      1  0.5784620000000  0.4637860000000  0.5395440000000 1.0
C      1  0.5606370000000  0.5696860000000  0.5439940000000 1.0
C      1  0.4582210000000  0.5723410000000  0.5449310000000 1.0
C      1  0.4083790000000  0.4894680000000  0.5537830000000 1.0
C      1  0.5119120000000  0.4068050000000  0.4540380000000 1.0
C      1  0.4256560000000  0.4540420000000  0.4462700000000 1.0
C      1  0.4390840000000  0.5595080000000  0.4584770000000 1.0
C      1  0.5525530000000  0.5816070000000  0.4512110000000 1.0
C      1  0.5858410000000  0.4774440000000  0.4579050000000 1.0
C      1  0.5117250000000  0.4653300000000  0.4460970000000 1.0
C      1  0.5279880000000  0.4930210000000  0.4463390000000 1.0
C      1  0.5119250000000  0.5207170000000  0.4499850000000 1.0
C      1  0.4795220000000  0.5167310000000  0.4507320000000 1.0
C      1  0.4648870000000  0.4881600000000  0.4551320000000 1.0
C      1  0.4875490000000  0.4658360000000  0.5530110000000 1.0
C      1  0.4735600000000  0.4931690000000  0.5469440000000 1.0
C      1  0.4799220000000  0.5241560000000  0.5603910000000 1.0
C      1  0.5276040000000  0.5254180000000  0.5581370000000 1.0
C      1  0.5177630000000  0.4929820000000  0.5535660000000 1.0
C      1  0.5472340000000  0.5078030000000  0.4824460000000 1.0
C      1  0.5105100000000  0.5592530000000  0.4814140000000 1.0
C      1  0.4436960000000  0.5187610000000  0.4926710000000 1.0
C      1  0.4638150000000  0.4554980000000  0.4855870000000 1.0
C      1  0.5285170000000  0.4530780000000  0.4847290000000 1.0
C      1  0.4421020000000  0.5144100000000  0.5187240000000 1.0
C      1  0.5008460000000  0.5581290000000  0.5126930000000 1.0
C      1  0.5391500000000  0.5220400000000  0.5102930000000 1.0
C      1  0.5309390000000  0.4563340000000  0.5112280000000 1.0
C      1  0.4660750000000  0.4505720000000  0.5132820000000 1.0
C      1  0.5322600000000  0.5802860000000  0.5590950000000 1.0
C      1  0.4392670000000  0.5483420000000  0.5605120000000 1.0
C      1  0.4331690000000  0.4669930000000  0.5609560000000 1.0
C      1  0.5159700000000  0.4239440000000  0.5613010000000 1.0
C      1  0.5681320000000  0.4946740000000  0.5507370000000 1.0
C      1  0.4662010000000  0.5742660000000  0.4441600000000 1.0
C      1  0.5606600000000  0.5695530000000  0.4204610000000 1.0
C      1  0.5639330000000  0.4563790000000  0.4425880000000 1.0
C      1  0.4828960000000  0.4207520000000  0.4424030000000 1.0
C      1  0.4270120000000  0.4880500000000  0.4427210000000 1.0
C      1  0.5543540000000  0.4748560000000  0.5189270000000 1.0
C      1  0.5470870000000  0.5482690000000  0.5219230000000 1.0
C      1  0.4698110000000  0.5556990000000  0.5173620000000 1.0
C      1  0.4297940000000  0.4890400000000  0.5280910000000 1.0
C      1  0.4864290000000  0.4315360000000  0.5241700000000 1.0
C      1  0.4373010000000  0.4674530000000  0.4752450000000 1.0
C      1  0.4558760000000  0.5460760000000  0.4850590000000 1.0
C      1  0.5420100000000  0.5557880000000  0.4704160000000 1.0
C      1  0.5686460000000  0.4860600000000  0.4853140000000 1.0
C      1  0.5078330000000  0.4341070000000  0.4737920000000 1.0
C      1  0.5186910000000  0.4945080000000  0.4849040000000 1.0
C      1  0.4704370000000  0.4893090000000  0.5058990000000 1.0
C      1  0.4866120000000  0.5166370000000  0.4927300000000 1.0
C      1  0.5142610000000  0.5289950000000  0.4889640000000 1.0
C      1  0.5044270000000  0.4861600000000  0.5117940000000 1.0
C      1  0.4877910000000  0.5118950000000  0.5250470000000 1.0
C      1  0.4866110000000  0.4869790000000  0.4762960000000 1.0
END
