TITL C-2782233-7966-973 0.408840322320858 125000 -325.033251506849 0 0 57 (C1) n - 1
REM
REM in /home/nfs/bkarasulu/CARBON/AIRSS/Generating-Clusters/REBO/Higher-Symm/SD-CG/HFTN-CG
REM
REM
REM
REM
REM
REM ./C.cell (12c818d87b63d06a65506943cc24bca4)
REM
REM compiler GCC version 9.2.1 20190827 (Red Hat 9.2.1-1)
REM options -cpp -mtune=generic -march=x86-64 -g -O0 -fpre-include=/usr/include/finclude/math-vector-fortran.h
REM seed 788721330 -1471370835 1528767089 -976896879 1347851917 -667050719 34418992 -1347902857 1477547808 1464341575 -1544209613 873482093 -1856803070 1410750751 868711997 607698201 502642221 -1275962701 1217061949 -1050325506 1576346631 -1782439484 1289041371 423886667 2142411327 -506002961 -757077153 -1257721628 277165179 -804029918 -1589301463 -28893561 1333599815
REM
CELL 1.54180   50.00000   50.00000   50.00000   90.00000   90.00000   90.00000
LATT -1
SFAC C  
C      1  0.4667080000000  0.4740160000000  0.5378760000000 1.0
C      1  0.4732290000000  0.5266770000000  0.5402500000000 1.0
C      1  0.5120170000000  0.5795140000000  0.5093210000000 1.0
C      1  0.5154740000000  0.4250030000000  0.5139600000000 1.0
C      1  0.4531500000000  0.5796990000000  0.4597830000000 1.0
C      1  0.4590600000000  0.4236350000000  0.4583480000000 1.0
C      1  0.4696850000000  0.5540280000000  0.5015400000000 1.0
C      1  0.4707540000000  0.4439400000000  0.5017350000000 1.0
C      1  0.4293120000000  0.4754140000000  0.5087710000000 1.0
C      1  0.4322370000000  0.5082230000000  0.5173780000000 1.0
C      1  0.5181910000000  0.5323880000000  0.4338640000000 1.0
C      1  0.5166090000000  0.4778710000000  0.4336240000000 1.0
C      1  0.5089070000000  0.4427710000000  0.4695640000000 1.0
C      1  0.5037550000000  0.5562660000000  0.4754210000000 1.0
C      1  0.4568040000000  0.5255930000000  0.4658890000000 1.0
C      1  0.4537820000000  0.4749490000000  0.4718240000000 1.0
C      1  0.4973600000000  0.5415790000000  0.5380720000000 1.0
C      1  0.4926830000000  0.4612130000000  0.5396280000000 1.0
C      1  0.6016830000000  0.4786850000000  0.5623990000000 1.0
C      1  0.6080280000000  0.5061150000000  0.5593060000000 1.0
C      1  0.5442610000000  0.4654230000000  0.5654450000000 1.0
C      1  0.5517560000000  0.5324620000000  0.5582110000000 1.0
C      1  0.4943170000000  0.4411230000000  0.5189240000000 1.0
C      1  0.4940960000000  0.5605510000000  0.5165680000000 1.0
C      1  0.4244810000000  0.4776580000000  0.4780150000000 1.0
C      1  0.4301140000000  0.5266600000000  0.4701800000000 1.0
C      1  0.4511390000000  0.4593200000000  0.5173860000000 1.0
C      1  0.4544310000000  0.5340060000000  0.5166730000000 1.0
C      1  0.5444180000000  0.4866840000000  0.4512790000000 1.0
C      1  0.5440540000000  0.5204100000000  0.4527660000000 1.0
C      1  0.5845520000000  0.5233510000000  0.5582150000000 1.0
C      1  0.5729240000000  0.4728770000000  0.5638270000000 1.0
C      1  0.4767360000000  0.5171700000000  0.4881850000000 1.0
C      1  0.4695260000000  0.4852280000000  0.4933140000000 1.0
C      1  0.5244720000000  0.4877340000000  0.5774810000000 1.0
C      1  0.5276400000000  0.5159860000000  0.5757230000000 1.0
C      1  0.5220710000000  0.5262250000000  0.5440780000000 1.0
C      1  0.5175840000000  0.4755650000000  0.5472680000000 1.0
C      1  0.4733900000000  0.5115160000000  0.4421390000000 1.0
C      1  0.4684430000000  0.4791850000000  0.4475100000000 1.0
C      1  0.5428900000000  0.4758080000000  0.4795170000000 1.0
C      1  0.5412160000000  0.5273550000000  0.4820280000000 1.0
C      1  0.4888500000000  0.5415380000000  0.4486140000000 1.0
C      1  0.4939170000000  0.4614900000000  0.4475520000000 1.0
C      1  0.5264980000000  0.5495830000000  0.4870900000000 1.0
C      1  0.5314470000000  0.4511700000000  0.4815210000000 1.0
C      1  0.4715580000000  0.5621000000000  0.4699130000000 1.0
C      1  0.4767410000000  0.4405470000000  0.4715580000000 1.0
C      1  0.5354100000000  0.5046650000000  0.4234700000000 1.0
C      1  0.5622400000000  0.5008070000000  0.5613650000000 1.0
C      1  0.5047300000000  0.5050430000000  0.4486350000000 1.0
C      1  0.5209780000000  0.4994080000000  0.5281080000000 1.0
C      1  0.4962860000000  0.4988260000000  0.5092880000000 1.0
C      1  0.4575270000000  0.5011040000000  0.5390080000000 1.0
C      1  0.4188920000000  0.5070940000000  0.4873590000000 1.0
C      1  0.5072990000000  0.5066450000000  0.4780260000000 1.0
C      1  0.5343960000000  0.5001610000000  0.4979610000000 1.0
END
