TITL C-2782229-3092-428 0.000108051310772928 125000 -326.23770894061 0 0 55 (C5) n - 1
REM
REM in /home/nfs/bkarasulu/CARBON/AIRSS/Generating-Clusters/REBO/Higher-Symm/SD-CG/HFTN-CG
REM
REM
REM
REM
REM
REM ./C.cell (12c818d87b63d06a65506943cc24bca4)
REM
REM compiler GCC version 9.2.1 20190827 (Red Hat 9.2.1-1)
REM options -cpp -mtune=generic -march=x86-64 -g -O0 -fpre-include=/usr/include/finclude/math-vector-fortran.h
REM seed 771279409 624051872 -141471268 -577666201 -1211693706 319725123 -1960983583 -514069633 1545296577 2147167004 1593199919 547225657 580975543 1703536197 -42537424 -1254366069 -1684837408 1140182901 205942789 341988723 735491316 1130447214 -1391386204 496546621 -1429610766 475689857 853029242 -318207915 2026611288 1765743004 -375413546 -1465361879 1057724443
REM
CELL 1.54180   50.00000   50.00000   50.00000   90.00000   90.00000   90.00000
LATT -1
SFAC C  
C      1  0.4655850000000  0.5382600000000  0.4712710000000 1.0
C      1  0.4655850000000  0.4845000000000  0.4547350000000 1.0
C      1  0.4655850000000  0.4521610000000  0.5007530000000 1.0
C      1  0.4655850000000  0.4859330000000  0.5457310000000 1.0
C      1  0.4655850000000  0.5391460000000  0.5275100000000 1.0
C      1  0.5562370000000  0.4777490000000  0.5102570000000 1.0
C      1  0.5562370000000  0.5028790000000  0.5243320000000 1.0
C      1  0.5562370000000  0.5240300000000  0.5047810000000 1.0
C      1  0.5562370000000  0.5119730000000  0.4786230000000 1.0
C      1  0.5562370000000  0.4833690000000  0.4820070000000 1.0
C      1  0.4410800000000  0.5079130000000  0.5231190000000 1.0
C      1  0.4410800000000  0.5244330000000  0.4996180000000 1.0
C      1  0.4410800000000  0.5071870000000  0.4766450000000 1.0
C      1  0.4410800000000  0.4800090000000  0.4859470000000 1.0
C      1  0.4410800000000  0.4804570000000  0.5146700000000 1.0
C      1  0.5196770000000  0.5246680000000  0.4886340000000 1.0
C      1  0.5196770000000  0.4968130000000  0.4730270000000 1.0
C      1  0.5196770000000  0.4733620000000  0.4946960000000 1.0
C      1  0.5196770000000  0.4867240000000  0.5236950000000 1.0
C      1  0.5196770000000  0.5184330000000  0.5199490000000 1.0
C      1  0.4878550000000  0.5211350000000  0.4834390000000 1.0
C      1  0.4878550000000  0.4907800000000  0.4747820000000 1.0
C      1  0.4878550000000  0.4731670000000  0.5009760000000 1.0
C      1  0.4878550000000  0.4926360000000  0.5258210000000 1.0
C      1  0.4878550000000  0.5222820000000  0.5149820000000 1.0
C      1  0.5073600000000  0.4991490000000  0.5600650000000 1.0
C      1  0.5073600000000  0.5568630000000  0.5193710000000 1.0
C      1  0.5073600000000  0.5359940000000  0.4519060000000 1.0
C      1  0.5073610000000  0.4653830000000  0.4509060000000 1.0
C      1  0.5073600000000  0.4426120000000  0.5177520000000 1.0
C      1  0.5021350000000  0.4918300000000  0.4374350000000 1.0
C      1  0.5021350000000  0.4379730000000  0.4884370000000 1.0
C      1  0.5021340000000  0.4698350000000  0.5554180000000 1.0
C      1  0.5021340000000  0.5433850000000  0.5458140000000 1.0
C      1  0.5021350000000  0.5569780000000  0.4728960000000 1.0
C      1  0.5350270000000  0.4726600000000  0.5488680000000 1.0
C      1  0.5350270000000  0.5380270000000  0.5411030000000 1.0
C      1  0.5350270000000  0.5508430000000  0.4765350000000 1.0
C      1  0.5350270000000  0.4933950000000  0.4443950000000 1.0
C      1  0.5350270000000  0.4450750000000  0.4890990000000 1.0
C      1  0.5396760000000  0.4522370000000  0.5221340000000 1.0
C      1  0.5396760000000  0.5062910000000  0.5522650000000 1.0
C      1  0.5396760000000  0.5516510000000  0.5101680000000 1.0
C      1  0.5396760000000  0.5256310000000  0.4540190000000 1.0
C      1  0.5396770000000  0.4641900000000  0.4614150000000 1.0
C      1  0.4561800000000  0.5159670000000  0.4484600000000 1.0
C      1  0.4561800000000  0.4559170000000  0.4688880000000 1.0
C      1  0.4561800000000  0.4567880000000  0.5323110000000 1.0
C      1  0.4561800000000  0.5173770000000  0.5510820000000 1.0
C      1  0.4561800000000  0.5539510000000  0.4992590000000 1.0
C      1  0.4891870000000  0.5163020000000  0.4424490000000 1.0
C      1  0.4891870000000  0.4503030000000  0.4667110000000 1.0
C      1  0.4891870000000  0.4529830000000  0.5369780000000 1.0
C      1  0.4891870000000  0.5206390000000  0.5561420000000 1.0
C      1  0.4891870000000  0.5597720000000  0.4977200000000 1.0
END
