TITL C-2782229-3092-171 -0.00226556469597593 125000 -499.743969028218 0 0 87 (C1) n - 1
REM
REM in /home/nfs/bkarasulu/CARBON/AIRSS/Generating-Clusters/REBO/Higher-Symm/SD-CG/HFTN-CG
REM
REM
REM
REM
REM
REM ./C.cell (12c818d87b63d06a65506943cc24bca4)
REM
REM compiler GCC version 9.2.1 20190827 (Red Hat 9.2.1-1)
REM options -cpp -mtune=generic -march=x86-64 -g -O0 -fpre-include=/usr/include/finclude/math-vector-fortran.h
REM seed -711407972 -96503776 1570974071 650988846 -1781727007 -413928565 -342687419 -686017230 618961577 528333194 938884343 -1042233774 1726554608 -197251551 -606119546 522388404 2018518823 -51585433 740549951 1046299653 267267389 -1692939027 502273746 1535034820 1087186877 -1277386664 1483933740 -545440527 -1647275357 128821774 -499773001 28349133 1170251088
REM
CELL 1.54180   50.00000   50.00000   50.00000   90.00000   90.00000   90.00000
LATT -1
SFAC C  
C      1  0.5633030000000  0.5828000000000  0.4966690000000 1.0
C      1  0.3981740000000  0.5127130000000  0.4960470000000 1.0
C      1  0.5413410000000  0.4056710000000  0.4961100000000 1.0
C      1  0.5632780000000  0.4184650000000  0.4980970000000 1.0
C      1  0.3992460000000  0.4872580000000  0.4955360000000 1.0
C      1  0.5412140000000  0.5953420000000  0.4949020000000 1.0
C      1  0.5838680000000  0.4754570000000  0.5163500000000 1.0
C      1  0.4811730000000  0.5814480000000  0.5142000000000 1.0
C      1  0.4352760000000  0.4389360000000  0.5129300000000 1.0
C      1  0.5842940000000  0.5246820000000  0.5152450000000 1.0
C      1  0.4806620000000  0.4194940000000  0.5136100000000 1.0
C      1  0.4351940000000  0.5631830000000  0.5147300000000 1.0
C      1  0.4370500000000  0.5172310000000  0.5280630000000 1.0
C      1  0.5153150000000  0.4390480000000  0.5251940000000 1.0
C      1  0.5443920000000  0.5445420000000  0.5250270000000 1.0
C      1  0.4395730000000  0.4855020000000  0.5278100000000 1.0
C      1  0.5155630000000  0.5626100000000  0.5251690000000 1.0
C      1  0.5432320000000  0.4571410000000  0.5251710000000 1.0
C      1  0.4565030000000  0.5443810000000  0.4574430000000 1.0
C      1  0.4844060000000  0.4411520000000  0.4553820000000 1.0
C      1  0.5599320000000  0.5153050000000  0.4584680000000 1.0
C      1  0.4580030000000  0.4564970000000  0.4561460000000 1.0
C      1  0.4834020000000  0.5591540000000  0.4560220000000 1.0
C      1  0.5600730000000  0.4853660000000  0.4589110000000 1.0
C      1  0.5163460000000  0.5770830000000  0.4959330000000 1.0
C      1  0.4279550000000  0.4752870000000  0.4979360000000 1.0
C      1  0.5595030000000  0.4490190000000  0.4989130000000 1.0
C      1  0.5163580000000  0.4238180000000  0.4963250000000 1.0
C      1  0.4258390000000  0.5266380000000  0.4991670000000 1.0
C      1  0.5599010000000  0.5522090000000  0.4981560000000 1.0
C      1  0.5090420000000  0.4391490000000  0.5573310000000 1.0
C      1  0.5475840000000  0.5316990000000  0.5565720000000 1.0
C      1  0.4456680000000  0.5279010000000  0.5595430000000 1.0
C      1  0.5102230000000  0.5577690000000  0.5576040000000 1.0
C      1  0.5489730000000  0.4669610000000  0.5573810000000 1.0
C      1  0.4456260000000  0.4727860000000  0.5591540000000 1.0
C      1  0.4509980000000  0.4532440000000  0.5327860000000 1.0
C      1  0.5616520000000  0.4856400000000  0.5331580000000 1.0
C      1  0.4810460000000  0.5566620000000  0.5307690000000 1.0
C      1  0.4513320000000  0.5484550000000  0.5342270000000 1.0
C      1  0.5622510000000  0.5154070000000  0.5324300000000 1.0
C      1  0.4807880000000  0.4443730000000  0.5300040000000 1.0
C      1  0.5158000000000  0.5574300000000  0.4680940000000 1.0
C      1  0.4443560000000  0.4851090000000  0.4698060000000 1.0
C      1  0.5445300000000  0.4576410000000  0.4718880000000 1.0
C      1  0.5164570000000  0.4430710000000  0.4682050000000 1.0
C      1  0.4425280000000  0.5168770000000  0.4727430000000 1.0
C      1  0.5443000000000  0.5431330000000  0.4712510000000 1.0
C      1  0.4421080000000  0.5538430000000  0.4868570000000 1.0
C      1  0.4860070000000  0.4227340000000  0.4833970000000 1.0
C      1  0.5772910000000  0.5264610000000  0.4854960000000 1.0
C      1  0.4429580000000  0.4485690000000  0.4853090000000 1.0
C      1  0.4856800000000  0.5778510000000  0.4838330000000 1.0
C      1  0.5771190000000  0.4748570000000  0.4864270000000 1.0
C      1  0.5269930000000  0.5119770000000  0.5750120000000 1.0
C      1  0.4715760000000  0.5148320000000  0.5775990000000 1.0
C      1  0.4997680000000  0.4653050000000  0.5726410000000 1.0
C      1  0.5276600000000  0.4806050000000  0.5796260000000 1.0
C      1  0.4706790000000  0.4809540000000  0.5810060000000 1.0
C      1  0.5007210000000  0.5303550000000  0.5693470000000 1.0
C      1  0.5065130000000  0.5465360000000  0.4370090000000 1.0
C      1  0.4530460000000  0.4823910000000  0.4368070000000 1.0
C      1  0.5375420000000  0.4685970000000  0.4411780000000 1.0
C      1  0.5084780000000  0.4514680000000  0.4359910000000 1.0
C      1  0.4510440000000  0.5162890000000  0.4403480000000 1.0
C      1  0.5365580000000  0.5308980000000  0.4410360000000 1.0
C      1  0.4735970000000  0.4873030000000  0.5486810000000 1.0
C      1  0.5221480000000  0.4842900000000  0.5455370000000 1.0
C      1  0.4978490000000  0.5289910000000  0.5332490000000 1.0
C      1  0.4732490000000  0.5165020000000  0.5439540000000 1.0
C      1  0.5230980000000  0.5145960000000  0.5403070000000 1.0
C      1  0.4957890000000  0.4710430000000  0.5376440000000 1.0
C      1  0.4767920000000  0.5136160000000  0.4930320000000 1.0
C      1  0.5041020000000  0.4714490000000  0.4942370000000 1.0
C      1  0.5267940000000  0.5161930000000  0.4949320000000 1.0
C      1  0.4770260000000  0.4871690000000  0.4927800000000 1.0
C      1  0.5036860000000  0.5295040000000  0.4939840000000 1.0
C      1  0.5271170000000  0.4849210000000  0.4952520000000 1.0
C      1  0.4941430000000  0.5260740000000  0.4156080000000 1.0
C      1  0.4724870000000  0.4819970000000  0.4110480000000 1.0
C      1  0.5217200000000  0.4852950000000  0.4196590000000 1.0
C      1  0.4972680000000  0.4696750000000  0.4117420000000 1.0
C      1  0.4706260000000  0.5115160000000  0.4160450000000 1.0
C      1  0.5204550000000  0.5129280000000  0.4207200000000 1.0
C      1  0.5572100000000  0.5008890000000  0.4955200000000 1.0
C      1  0.4751160000000  0.4537860000000  0.4919000000000 1.0
C      1  0.4744650000000  0.5470020000000  0.4927790000000 1.0
END
