TITL C-2782239-8622-899 -0.00484396099761518 125000 -679.361036602886 0 0 117 (C1) n - 1
REM
REM in /home/nfs/bkarasulu/CARBON/AIRSS/Generating-Clusters/REBO/Higher-Symm/SD-CG/HFTN-CG
REM
REM
REM
REM
REM
REM ./C.cell (12c818d87b63d06a65506943cc24bca4)
REM
REM compiler GCC version 9.2.1 20190827 (Red Hat 9.2.1-1)
REM options -cpp -mtune=generic -march=x86-64 -g -O0 -fpre-include=/usr/include/finclude/math-vector-fortran.h
REM seed 1486931577 -240028727 -39811318 402457194 79508054 -1625330361 -1077236791 -1769772966 -715330421 433801577 917098193 -1069942915 1882794267 1940079580 708711460 1409040765 -1661914596 -1368682870 -127181654 -1906706062 -121249080 -612750053 1781542632 -1100618271 -7729282 1232613796 -359268789 -460979086 540048060 1346647522 420219208 1749783135 1236844504
REM
CELL 1.54180   50.00000   50.00000   50.00000   90.00000   90.00000   90.00000
LATT -1
SFAC C  
C      1  0.5137200000000  0.5758760000000  0.4527570000000 1.0
C      1  0.4560320000000  0.5806020000000  0.5036920000000 1.0
C      1  0.5264050000000  0.5705850000000  0.5326460000000 1.0
C      1  0.5200400000000  0.4220260000000  0.4631110000000 1.0
C      1  0.4573500000000  0.4260720000000  0.5085440000000 1.0
C      1  0.5305220000000  0.4172230000000  0.5355100000000 1.0
C      1  0.4804090000000  0.5832000000000  0.4562920000000 1.0
C      1  0.5391160000000  0.5751450000000  0.5011980000000 1.0
C      1  0.4700570000000  0.5728290000000  0.5339730000000 1.0
C      1  0.4866360000000  0.4289970000000  0.4603760000000 1.0
C      1  0.5508710000000  0.4203410000000  0.5081220000000 1.0
C      1  0.4767360000000  0.4184080000000  0.5357720000000 1.0
C      1  0.4703400000000  0.6096070000000  0.4982330000000 1.0
C      1  0.5130890000000  0.5979530000000  0.5208070000000 1.0
C      1  0.5113530000000  0.6040090000000  0.4701470000000 1.0
C      1  0.4744110000000  0.3992920000000  0.5010230000000 1.0
C      1  0.5164680000000  0.3882340000000  0.5278590000000 1.0
C      1  0.5185790000000  0.3940070000000  0.4792080000000 1.0
C      1  0.5258380000000  0.6036530000000  0.4941860000000 1.0
C      1  0.4852790000000  0.5997360000000  0.5225690000000 1.0
C      1  0.4823400000000  0.6112690000000  0.4727840000000 1.0
C      1  0.5327470000000  0.3936760000000  0.5034470000000 1.0
C      1  0.4884270000000  0.3895670000000  0.5260190000000 1.0
C      1  0.4894550000000  0.4011010000000  0.4775420000000 1.0
C      1  0.5604690000000  0.4827900000000  0.5037670000000 1.0
C      1  0.4729920000000  0.4863790000000  0.4436080000000 1.0
C      1  0.4684160000000  0.4875940000000  0.5482520000000 1.0
C      1  0.5583510000000  0.5151910000000  0.5055760000000 1.0
C      1  0.4718550000000  0.5181800000000  0.4476080000000 1.0
C      1  0.4649610000000  0.5188200000000  0.5523230000000 1.0
C      1  0.4394390000000  0.4880530000000  0.5029630000000 1.0
C      1  0.5269990000000  0.4783570000000  0.4446870000000 1.0
C      1  0.5314870000000  0.4839890000000  0.5501970000000 1.0
C      1  0.4397740000000  0.5201110000000  0.5048610000000 1.0
C      1  0.5258730000000  0.5106640000000  0.4476170000000 1.0
C      1  0.5322360000000  0.5156130000000  0.5526230000000 1.0
C      1  0.5149540000000  0.4816630000000  0.4726760000000 1.0
C      1  0.4694580000000  0.4944670000000  0.4976840000000 1.0
C      1  0.5154390000000  0.4923210000000  0.5249500000000 1.0
C      1  0.5138770000000  0.5166510000000  0.4762940000000 1.0
C      1  0.4693720000000  0.5292500000000  0.5028110000000 1.0
C      1  0.5134860000000  0.5269600000000  0.5298860000000 1.0
C      1  0.4851970000000  0.4893610000000  0.4717120000000 1.0
C      1  0.5303260000000  0.4878270000000  0.4984370000000 1.0
C      1  0.4851880000000  0.4993340000000  0.5241260000000 1.0
C      1  0.4838170000000  0.5243670000000  0.4756950000000 1.0
C      1  0.5284390000000  0.5227880000000  0.5027850000000 1.0
C      1  0.4828610000000  0.5334460000000  0.5304270000000 1.0
C      1  0.4344420000000  0.5607300000000  0.5193610000000 1.0
C      1  0.5494500000000  0.5522400000000  0.5484660000000 1.0
C      1  0.5152350000000  0.5580160000000  0.4243680000000 1.0
C      1  0.4311430000000  0.4421960000000  0.5220450000000 1.0
C      1  0.5559580000000  0.4379530000000  0.5440550000000 1.0
C      1  0.5170950000000  0.4406630000000  0.4356950000000 1.0
C      1  0.5614000000000  0.5566980000000  0.5174780000000 1.0
C      1  0.4468450000000  0.5544970000000  0.5499350000000 1.0
C      1  0.4832210000000  0.5652130000000  0.4282790000000 1.0
C      1  0.5780020000000  0.4360030000000  0.5194680000000 1.0
C      1  0.4519260000000  0.4369320000000  0.5475700000000 1.0
C      1  0.4843360000000  0.4476640000000  0.4323420000000 1.0
C      1  0.4407110000000  0.4783080000000  0.4388600000000 1.0
C      1  0.4793820000000  0.4737300000000  0.5762280000000 1.0
C      1  0.5831390000000  0.4737400000000  0.4815110000000 1.0
C      1  0.4402050000000  0.5263360000000  0.4415070000000 1.0
C      1  0.4755520000000  0.5238960000000  0.5839440000000 1.0
C      1  0.5793990000000  0.5214370000000  0.4798200000000 1.0
C      1  0.5597960000000  0.4733180000000  0.4390130000000 1.0
C      1  0.5192920000000  0.4735190000000  0.5795230000000 1.0
C      1  0.4184600000000  0.4780950000000  0.4795020000000 1.0
C      1  0.5578590000000  0.5198650000000  0.4422500000000 1.0
C      1  0.5215220000000  0.5230970000000  0.5835860000000 1.0
C      1  0.4186540000000  0.5262850000000  0.4791600000000 1.0
C      1  0.5442120000000  0.5119070000000  0.4123100000000 1.0
C      1  0.4002000000000  0.5178980000000  0.5065090000000 1.0
C      1  0.5533040000000  0.5112600000000  0.5860260000000 1.0
C      1  0.5448510000000  0.4819930000000  0.4095640000000 1.0
C      1  0.3998340000000  0.4879020000000  0.5062460000000 1.0
C      1  0.5520680000000  0.4814130000000  0.5841060000000 1.0
C      1  0.4549160000000  0.5189990000000  0.4116860000000 1.0
C      1  0.5979220000000  0.5150540000000  0.5077440000000 1.0
C      1  0.4440760000000  0.5109170000000  0.5851000000000 1.0
C      1  0.4537420000000  0.4889640000000  0.4091250000000 1.0
C      1  0.5997290000000  0.4851350000000  0.5089930000000 1.0
C      1  0.4468960000000  0.4814870000000  0.5811650000000 1.0
C      1  0.4737020000000  0.5538210000000  0.5686380000000 1.0
C      1  0.5643880000000  0.5491980000000  0.4856510000000 1.0
C      1  0.4558710000000  0.5546380000000  0.4441140000000 1.0
C      1  0.4791960000000  0.4447280000000  0.5650580000000 1.0
C      1  0.5761060000000  0.4436160000000  0.4880150000000 1.0
C      1  0.4559880000000  0.4506740000000  0.4474620000000 1.0
C      1  0.5227820000000  0.5513910000000  0.5671190000000 1.0
C      1  0.4310430000000  0.5548180000000  0.4872750000000 1.0
C      1  0.5401880000000  0.5476950000000  0.4430150000000 1.0
C      1  0.5284680000000  0.4462830000000  0.5623050000000 1.0
C      1  0.4323140000000  0.4508440000000  0.4902190000000 1.0
C      1  0.5477980000000  0.4446530000000  0.4469340000000 1.0
C      1  0.4843950000000  0.5328770000000  0.4216890000000 1.0
C      1  0.4323180000000  0.5263370000000  0.5582130000000 1.0
C      1  0.5765790000000  0.5295780000000  0.5298140000000 1.0
C      1  0.4838600000000  0.4747690000000  0.4135520000000 1.0
C      1  0.4419240000000  0.4680640000000  0.5504460000000 1.0
C      1  0.5771000000000  0.4676010000000  0.5275890000000 1.0
C      1  0.5153310000000  0.5255490000000  0.4199820000000 1.0
C      1  0.5644860000000  0.5250750000000  0.5583180000000 1.0
C      1  0.4205330000000  0.5322010000000  0.5297200000000 1.0
C      1  0.5145390000000  0.4677530000000  0.4157410000000 1.0
C      1  0.5600730000000  0.4692620000000  0.5541390000000 1.0
C      1  0.4224310000000  0.4734020000000  0.5263430000000 1.0
C      1  0.4582040000000  0.4381250000000  0.4767270000000 1.0
C      1  0.5495070000000  0.4315420000000  0.4760140000000 1.0
C      1  0.5394950000000  0.5626840000000  0.4706090000000 1.0
C      1  0.4548660000000  0.5691030000000  0.4722330000000 1.0
C      1  0.5037830000000  0.4303110000000  0.5506220000000 1.0
C      1  0.4983670000000  0.5644640000000  0.5509990000000 1.0
C      1  0.5762990000000  0.4960300000000  0.4574180000000 1.0
C      1  0.4231610000000  0.5015370000000  0.4562550000000 1.0
C      1  0.4986430000000  0.4992420000000  0.5878480000000 1.0
END
