TITL C-2782230-7391-758 0.00019641103534145 125000 -559.523853793213 0 0 96 (C1) n - 1
REM
REM in /home/nfs/bkarasulu/CARBON/AIRSS/Generating-Clusters/REBO/Higher-Symm/SD-CG/HFTN-CG
REM
REM
REM
REM
REM
REM ./C.cell (12c818d87b63d06a65506943cc24bca4)
REM
REM compiler GCC version 9.2.1 20190827 (Red Hat 9.2.1-1)
REM options -cpp -mtune=generic -march=x86-64 -g -O0 -fpre-include=/usr/include/finclude/math-vector-fortran.h
REM seed -8401435 -2103741651 -1673108413 869383656 1341314718 956842073 515781463 -391298545 2023108895 1474616367 216890930 -433606480 -904548617 345440766 134859228 393291781 1720542479 -1921410059 -967456505 -264301943 1348082059 1513021332 573889665 -1608457813 -1017154451 -90541817 -1301262647 206103581 1243972863 1080070335 -57431359 -1181710853 -775969696
REM
CELL 1.54180   50.00000   50.00000   50.00000   90.00000   90.00000   90.00000
LATT -1
SFAC C  
C      1  0.4624530000000  0.4910480000000  0.4061970000000 1.0
C      1  0.5256040000000  0.5019940000000  0.5889800000000 1.0
C      1  0.4181940000000  0.5427300000000  0.4791630000000 1.0
C      1  0.5668450000000  0.4631760000000  0.5094720000000 1.0
C      1  0.4994250000000  0.4460110000000  0.4540050000000 1.0
C      1  0.4986610000000  0.5466720000000  0.5425930000000 1.0
C      1  0.4915670000000  0.5171670000000  0.5470070000000 1.0
C      1  0.5129970000000  0.4743290000000  0.4502650000000 1.0
C      1  0.5404710000000  0.5983970000000  0.5855660000000 1.0
C      1  0.4757340000000  0.4373510000000  0.4359380000000 1.0
C      1  0.4508200000000  0.5635710000000  0.4949600000000 1.0
C      1  0.5472180000000  0.4303630000000  0.4983580000000 1.0
C      1  0.4194420000000  0.4968980000000  0.4753590000000 1.0
C      1  0.5778770000000  0.5022510000000  0.5249250000000 1.0
C      1  0.4430980000000  0.4684080000000  0.5360760000000 1.0
C      1  0.5619990000000  0.5325260000000  0.4647730000000 1.0
C      1  0.4747050000000  0.3964120000000  0.4736130000000 1.0
C      1  0.5180430000000  0.5749090000000  0.5390540000000 1.0
C      1  0.5262630000000  0.4462450000000  0.5201030000000 1.0
C      1  0.4755160000000  0.5521480000000  0.4749270000000 1.0
C      1  0.5845800000000  0.5945180000000  0.5662360000000 1.0
C      1  0.4268660000000  0.4368160000000  0.4347760000000 1.0
C      1  0.4346320000000  0.4914600000000  0.5237320000000 1.0
C      1  0.5686440000000  0.5082680000000  0.4760210000000 1.0
C      1  0.5575820000000  0.5915370000000  0.5643830000000 1.0
C      1  0.4501680000000  0.4282580000000  0.4460280000000 1.0
C      1  0.4794090000000  0.5896860000000  0.5637450000000 1.0
C      1  0.5233750000000  0.4099080000000  0.4282460000000 1.0
C      1  0.4724210000000  0.5018210000000  0.4322380000000 1.0
C      1  0.5318150000000  0.4882900000000  0.5591360000000 1.0
C      1  0.5870320000000  0.4562280000000  0.4907370000000 1.0
C      1  0.4105310000000  0.5434040000000  0.5050550000000 1.0
C      1  0.4749010000000  0.4251150000000  0.5375290000000 1.0
C      1  0.5275270000000  0.5739760000000  0.4629000000000 1.0
C      1  0.5343550000000  0.5120260000000  0.6108480000000 1.0
C      1  0.4615700000000  0.4706460000000  0.3888900000000 1.0
C      1  0.5536580000000  0.4682590000000  0.5546450000000 1.0
C      1  0.4526730000000  0.5238360000000  0.4488700000000 1.0
C      1  0.4351950000000  0.5171960000000  0.5396110000000 1.0
C      1  0.5653860000000  0.4846040000000  0.4593490000000 1.0
C      1  0.5480890000000  0.5774550000000  0.4897030000000 1.0
C      1  0.4496520000000  0.4213260000000  0.5150580000000 1.0
C      1  0.5180930000000  0.5327450000000  0.4936520000000 1.0
C      1  0.4833750000000  0.4615580000000  0.5011790000000 1.0
C      1  0.5078410000000  0.4238890000000  0.5360640000000 1.0
C      1  0.4952250000000  0.5759350000000  0.4635390000000 1.0
C      1  0.4170700000000  0.5369710000000  0.5306980000000 1.0
C      1  0.5854760000000  0.4648440000000  0.4644630000000 1.0
C      1  0.5390820000000  0.4756040000000  0.4962080000000 1.0
C      1  0.4673060000000  0.5121350000000  0.5038400000000 1.0
C      1  0.4753840000000  0.5047370000000  0.4654960000000 1.0
C      1  0.5142900000000  0.4971550000000  0.5329990000000 1.0
C      1  0.5638990000000  0.5343530000000  0.4366540000000 1.0
C      1  0.4391720000000  0.4654090000000  0.5637710000000 1.0
C      1  0.4782200000000  0.5735110000000  0.5409900000000 1.0
C      1  0.5203760000000  0.4212070000000  0.4540170000000 1.0
C      1  0.5065640000000  0.4145830000000  0.4069150000000 1.0
C      1  0.4929020000000  0.6002400000000  0.5844180000000 1.0
C      1  0.4531560000000  0.5751110000000  0.4622710000000 1.0
C      1  0.5489190000000  0.4226920000000  0.5320140000000 1.0
C      1  0.4998130000000  0.4931870000000  0.5697510000000 1.0
C      1  0.5037520000000  0.4988630000000  0.4381880000000 1.0
C      1  0.5420840000000  0.5258800000000  0.4221320000000 1.0
C      1  0.4589720000000  0.4674260000000  0.5826340000000 1.0
C      1  0.5163900000000  0.6157720000000  0.6237600000000 1.0
C      1  0.4701630000000  0.4448430000000  0.3883430000000 1.0
C      1  0.4917080000000  0.4117890000000  0.4889050000000 1.0
C      1  0.5061310000000  0.5828170000000  0.5101600000000 1.0
C      1  0.5375590000000  0.4753450000000  0.4646030000000 1.0
C      1  0.4647310000000  0.5160350000000  0.5330570000000 1.0
C      1  0.5453710000000  0.5830370000000  0.5401970000000 1.0
C      1  0.4498600000000  0.4092640000000  0.4680080000000 1.0
C      1  0.5590340000000  0.5020200000000  0.5046570000000 1.0
C      1  0.4401190000000  0.4945400000000  0.4931160000000 1.0
C      1  0.4879530000000  0.5274060000000  0.4834350000000 1.0
C      1  0.5110740000000  0.4721390000000  0.5130560000000 1.0
C      1  0.4364400000000  0.4144130000000  0.4927320000000 1.0
C      1  0.5563190000000  0.5847200000000  0.5139220000000 1.0
C      1  0.4928580000000  0.4432270000000  0.5597150000000 1.0
C      1  0.5094710000000  0.5493610000000  0.4473420000000 1.0
C      1  0.4668060000000  0.5810000000000  0.5167060000000 1.0
C      1  0.5301220000000  0.4112740000000  0.4784520000000 1.0
C      1  0.4388850000000  0.5455120000000  0.4603240000000 1.0
C      1  0.5627960000000  0.4518320000000  0.5351570000000 1.0
C      1  0.5398240000000  0.5473930000000  0.4781000000000 1.0
C      1  0.4626570000000  0.4509080000000  0.5215230000000 1.0
C      1  0.4738870000000  0.5906730000000  0.4848400000000 1.0
C      1  0.5253490000000  0.4072420000000  0.5121340000000 1.0
C      1  0.5165830000000  0.6051460000000  0.5987230000000 1.0
C      1  0.4830700000000  0.4304330000000  0.4088170000000 1.0
C      1  0.4938280000000  0.4385290000000  0.4838770000000 1.0
C      1  0.5013150000000  0.5534790000000  0.5104520000000 1.0
C      1  0.5300250000000  0.5116340000000  0.5108490000000 1.0
C      1  0.4690930000000  0.4814080000000  0.4847550000000 1.0
C      1  0.5168010000000  0.5250160000000  0.4354430000000 1.0
C      1  0.4858150000000  0.4665180000000  0.5738760000000 1.0
END
