TITL C-2782233-7966-74 0.0011389241802479 125000 -700.258418561036 0 0 120 (C1) n - 1
REM
REM in /home/nfs/bkarasulu/CARBON/AIRSS/Generating-Clusters/REBO/Higher-Symm/SD-CG/HFTN-CG
REM
REM
REM
REM
REM
REM ./C.cell (12c818d87b63d06a65506943cc24bca4)
REM
REM compiler GCC version 9.2.1 20190827 (Red Hat 9.2.1-1)
REM options -cpp -mtune=generic -march=x86-64 -g -O0 -fpre-include=/usr/include/finclude/math-vector-fortran.h
REM seed 881203567 -339800382 689359734 -939660756 731046514 909615192 569616950 1249564066 -1036246610 -94011319 54522781 -418665876 144384842 1160172905 1359015964 26875787 1538298853 931587620 -292054694 -1690018004 1153114976 -830663108 1536804314 1879354557 2095086714 -282714061 158546303 1032128484 -1810968075 732974542 1021171510 -342426615 -1956603602
REM
CELL 1.54180   50.00000   50.00000   50.00000   90.00000   90.00000   90.00000
LATT -1
SFAC C  
C      1  0.4412700000000  0.4259660000000  0.5195050000000 1.0
C      1  0.5598890000000  0.5724370000000  0.4822470000000 1.0
C      1  0.5513920000000  0.4495000000000  0.4160890000000 1.0
C      1  0.4463330000000  0.5547260000000  0.5831140000000 1.0
C      1  0.5401420000000  0.5201040000000  0.5929300000000 1.0
C      1  0.4634850000000  0.4698120000000  0.4008970000000 1.0
C      1  0.4355370000000  0.4747700000000  0.5344220000000 1.0
C      1  0.5743480000000  0.5250530000000  0.4791030000000 1.0
C      1  0.5624060000000  0.5138620000000  0.5224300000000 1.0
C      1  0.4464590000000  0.4922300000000  0.4758270000000 1.0
C      1  0.5782840000000  0.5803760000000  0.5021380000000 1.0
C      1  0.4231520000000  0.4251640000000  0.4977660000000 1.0
C      1  0.5839740000000  0.4957720000000  0.5325000000000 1.0
C      1  0.4239970000000  0.5061480000000  0.4640880000000 1.0
C      1  0.4887070000000  0.4174340000000  0.4937420000000 1.0
C      1  0.5138560000000  0.5811020000000  0.5078400000000 1.0
C      1  0.4825590000000  0.5461330000000  0.5162880000000 1.0
C      1  0.5184500000000  0.4525890000000  0.4875810000000 1.0
C      1  0.4194640000000  0.5183240000000  0.5448240000000 1.0
C      1  0.5842320000000  0.4839580000000  0.4573370000000 1.0
C      1  0.4645820000000  0.5754180000000  0.5220430000000 1.0
C      1  0.5381900000000  0.4251100000000  0.4796560000000 1.0
C      1  0.4964400000000  0.5128190000000  0.4971500000000 1.0
C      1  0.5088970000000  0.4967540000000  0.5106660000000 1.0
C      1  0.4975420000000  0.5506630000000  0.5786300000000 1.0
C      1  0.5022520000000  0.4401990000000  0.4186040000000 1.0
C      1  0.5101800000000  0.4247570000000  0.5624810000000 1.0
C      1  0.4843500000000  0.5709260000000  0.4406370000000 1.0
C      1  0.5082070000000  0.5433160000000  0.5354030000000 1.0
C      1  0.4935000000000  0.4536900000000  0.4682670000000 1.0
C      1  0.5618730000000  0.4476150000000  0.5413290000000 1.0
C      1  0.4382710000000  0.5556750000000  0.4598190000000 1.0
C      1  0.4663400000000  0.6186390000000  0.4941960000000 1.0
C      1  0.5429470000000  0.3811390000000  0.5056780000000 1.0
C      1  0.4807040000000  0.5411380000000  0.4279900000000 1.0
C      1  0.5159500000000  0.4541620000000  0.5709070000000 1.0
C      1  0.5419710000000  0.5913310000000  0.4707170000000 1.0
C      1  0.4576120000000  0.4041500000000  0.5279830000000 1.0
C      1  0.5189530000000  0.4804480000000  0.4347390000000 1.0
C      1  0.4696100000000  0.5180810000000  0.5574440000000 1.0
C      1  0.5475990000000  0.5442690000000  0.4878200000000 1.0
C      1  0.4552720000000  0.4528840000000  0.5206130000000 1.0
C      1  0.4098450000000  0.4711210000000  0.5470130000000 1.0
C      1  0.5608710000000  0.5277170000000  0.4487260000000 1.0
C      1  0.5917160000000  0.5045490000000  0.5586430000000 1.0
C      1  0.4204210000000  0.4973020000000  0.4370450000000 1.0
C      1  0.5450610000000  0.5990900000000  0.5750740000000 1.0
C      1  0.4536000000000  0.4001810000000  0.4363680000000 1.0
C      1  0.5161570000000  0.5276310000000  0.5831590000000 1.0
C      1  0.4812550000000  0.4486220000000  0.4013990000000 1.0
C      1  0.4472920000000  0.5871220000000  0.5478950000000 1.0
C      1  0.5532250000000  0.4160520000000  0.4511400000000 1.0
C      1  0.4220790000000  0.5329650000000  0.4742180000000 1.0
C      1  0.5786640000000  0.4687640000000  0.5269680000000 1.0
C      1  0.4669620000000  0.5273060000000  0.4042190000000 1.0
C      1  0.5394570000000  0.4676530000000  0.5879630000000 1.0
C      1  0.5514870000000  0.4911320000000  0.5899510000000 1.0
C      1  0.4604630000000  0.5015500000000  0.4022730000000 1.0
C      1  0.5876230000000  0.5008680000000  0.4809170000000 1.0
C      1  0.4412910000000  0.5023490000000  0.5342430000000 1.0
C      1  0.5135160000000  0.5078050000000  0.4522060000000 1.0
C      1  0.4860380000000  0.4907030000000  0.5477950000000 1.0
C      1  0.4964570000000  0.5835130000000  0.5307290000000 1.0
C      1  0.5065110000000  0.4159960000000  0.4711930000000 1.0
C      1  0.5592360000000  0.5323200000000  0.5456360000000 1.0
C      1  0.4595270000000  0.4746070000000  0.4538660000000 1.0
C      1  0.5228030000000  0.5495570000000  0.5057640000000 1.0
C      1  0.4803380000000  0.4491280000000  0.4991730000000 1.0
C      1  0.4713060000000  0.4661210000000  0.5879210000000 1.0
C      1  0.5275810000000  0.5362180000000  0.4144260000000 1.0
C      1  0.5757390000000  0.5747990000000  0.5287140000000 1.0
C      1  0.4276840000000  0.4375220000000  0.4737200000000 1.0
C      1  0.5036040000000  0.4210560000000  0.5364030000000 1.0
C      1  0.4954010000000  0.5758230000000  0.4647920000000 1.0
C      1  0.4728130000000  0.4810080000000  0.5216990000000 1.0
C      1  0.5364630000000  0.5176550000000  0.4693410000000 1.0
C      1  0.4463720000000  0.4834050000000  0.4261890000000 1.0
C      1  0.5665870000000  0.5169380000000  0.5736480000000 1.0
C      1  0.5658810000000  0.4387190000000  0.4380540000000 1.0
C      1  0.4323450000000  0.5659480000000  0.5610280000000 1.0
C      1  0.5098800000000  0.5688880000000  0.5558670000000 1.0
C      1  0.4931000000000  0.4300920000000  0.4457170000000 1.0
C      1  0.3837690000000  0.4248320000000  0.5561030000000 1.0
C      1  0.5577020000000  0.5741980000000  0.4186690000000 1.0
C      1  0.5583590000000  0.5609570000000  0.5462810000000 1.0
C      1  0.4488390000000  0.4450900000000  0.4568870000000 1.0
C      1  0.4596860000000  0.4975970000000  0.4993040000000 1.0
C      1  0.5461940000000  0.5062920000000  0.5000250000000 1.0
C      1  0.5246210000000  0.4580320000000  0.4199960000000 1.0
C      1  0.4705810000000  0.5417810000000  0.5771900000000 1.0
C      1  0.4002770000000  0.4981720000000  0.5537390000000 1.0
C      1  0.5748210000000  0.5016180000000  0.4361850000000 1.0
C      1  0.4633660000000  0.4245120000000  0.4448420000000 1.0
C      1  0.5388400000000  0.5763930000000  0.5605760000000 1.0
C      1  0.5081700000000  0.5289910000000  0.4309670000000 1.0
C      1  0.4902050000000  0.4701050000000  0.5697750000000 1.0
C      1  0.5244540000000  0.4724240000000  0.5219540000000 1.0
C      1  0.4737840000000  0.5300630000000  0.4808470000000 1.0
C      1  0.5150820000000  0.5910430000000  0.4805860000000 1.0
C      1  0.4853000000000  0.4049030000000  0.5202010000000 1.0
C      1  0.5343580000000  0.4806790000000  0.4843710000000 1.0
C      1  0.4664750000000  0.5204530000000  0.5236130000000 1.0
C      1  0.5073700000000  0.4454970000000  0.5181700000000 1.0
C      1  0.4952880000000  0.5529990000000  0.4863400000000 1.0
C      1  0.5591600000000  0.5528040000000  0.4325030000000 1.0
C      1  0.3964480000000  0.4473390000000  0.5516830000000 1.0
C      1  0.5582770000000  0.4230830000000  0.5269740000000 1.0
C      1  0.4433900000000  0.5793250000000  0.4750050000000 1.0
C      1  0.4250300000000  0.5463010000000  0.5407310000000 1.0
C      1  0.5740310000000  0.4573610000000  0.4587810000000 1.0
C      1  0.4447580000000  0.5365390000000  0.4942540000000 1.0
C      1  0.5548720000000  0.4674830000000  0.5074230000000 1.0
C      1  0.5032590000000  0.5194460000000  0.5542950000000 1.0
C      1  0.4915120000000  0.4816630000000  0.4541450000000 1.0
C      1  0.4411420000000  0.5511740000000  0.5174830000000 1.0
C      1  0.5604600000000  0.4504470000000  0.4824680000000 1.0
C      1  0.5469070000000  0.4085090000000  0.5055460000000 1.0
C      1  0.4577920000000  0.5923600000000  0.4955300000000 1.0
C      1  0.5372310000000  0.4609490000000  0.5486340000000 1.0
C      1  0.4623630000000  0.5401490000000  0.4533870000000 1.0
END
