TITL C-2782229-3092-580 0.0105508023168661 125000 -711.724438651915 0 0 126 (C1) n - 1
REM
REM in /home/nfs/bkarasulu/CARBON/AIRSS/Generating-Clusters/REBO/Higher-Symm/SD-CG/HFTN-CG
REM
REM
REM
REM
REM
REM ./C.cell (12c818d87b63d06a65506943cc24bca4)
REM
REM compiler GCC version 9.2.1 20190827 (Red Hat 9.2.1-1)
REM options -cpp -mtune=generic -march=x86-64 -g -O0 -fpre-include=/usr/include/finclude/math-vector-fortran.h
REM seed -1148699016 201997557 1435547486 430665464 1126376560 1104441683 1375298317 1249916163 -1200820738 1899681791 -1561893765 -1784607045 -2010820629 841698225 2084390685 -383357583 487096542 838111002 -2138421423 1197676231 707168165 922087612 1021546242 -1068158030 1691154257 306453127 -1301473896 920402994 814121931 1309798390 400042722 -2053524903 1970010412
REM
CELL 1.54180   50.00000   50.00000   50.00000   90.00000   90.00000   90.00000
LATT -1
SFAC C  
C      1  0.5321070000000  0.5585810000000  0.5855490000000 1.0
C      1  0.5361580000000  0.5556500000000  0.4124590000000 1.0
C      1  0.5803720000000  0.5319460000000  0.5275250000000 1.0
C      1  0.5788740000000  0.5283940000000  0.4589180000000 1.0
C      1  0.4871710000000  0.4283640000000  0.4144510000000 1.0
C      1  0.4880560000000  0.4226800000000  0.5750040000000 1.0
C      1  0.5256350000000  0.5330700000000  0.5361810000000 1.0
C      1  0.5246290000000  0.5399360000000  0.4532430000000 1.0
C      1  0.4799130000000  0.5257540000000  0.5307430000000 1.0
C      1  0.4764760000000  0.5287990000000  0.4636660000000 1.0
C      1  0.5177920000000  0.4350450000000  0.5395840000000 1.0
C      1  0.5216440000000  0.4399530000000  0.4610020000000 1.0
C      1  0.5257520000000  0.5057150000000  0.4576730000000 1.0
C      1  0.5177850000000  0.5016760000000  0.5444510000000 1.0
C      1  0.4908220000000  0.4675000000000  0.4680600000000 1.0
C      1  0.4872180000000  0.4610170000000  0.5340880000000 1.0
C      1  0.5599600000000  0.5604600000000  0.5465420000000 1.0
C      1  0.5650480000000  0.5643240000000  0.4491520000000 1.0
C      1  0.5927900000000  0.4871500000000  0.5379460000000 1.0
C      1  0.5955510000000  0.4853020000000  0.4467150000000 1.0
C      1  0.4719840000000  0.4666250000000  0.5643400000000 1.0
C      1  0.4769740000000  0.4678450000000  0.4367090000000 1.0
C      1  0.4553330000000  0.4817080000000  0.5316400000000 1.0
C      1  0.4535450000000  0.4804720000000  0.4665270000000 1.0
C      1  0.5487710000000  0.4594150000000  0.5521390000000 1.0
C      1  0.5505480000000  0.4609250000000  0.4431230000000 1.0
C      1  0.4945320000000  0.4225360000000  0.5290870000000 1.0
C      1  0.4966650000000  0.4281250000000  0.4663020000000 1.0
C      1  0.5246280000000  0.4962200000000  0.4189690000000 1.0
C      1  0.5217190000000  0.4915130000000  0.5827980000000 1.0
C      1  0.5333010000000  0.4640060000000  0.4192470000000 1.0
C      1  0.5319220000000  0.4600830000000  0.5769590000000 1.0
C      1  0.5476640000000  0.5150620000000  0.4329740000000 1.0
C      1  0.5400630000000  0.5137010000000  0.5676090000000 1.0
C      1  0.4460690000000  0.5426120000000  0.5447000000000 1.0
C      1  0.4467200000000  0.5412610000000  0.4524870000000 1.0
C      1  0.5198440000000  0.5705360000000  0.4645900000000 1.0
C      1  0.5189770000000  0.5617900000000  0.5204630000000 1.0
C      1  0.5536700000000  0.5314580000000  0.4689050000000 1.0
C      1  0.5536650000000  0.5297790000000  0.5218170000000 1.0
C      1  0.4299820000000  0.4917200000000  0.4301560000000 1.0
C      1  0.4257410000000  0.4928630000000  0.5692930000000 1.0
C      1  0.5025600000000  0.5867660000000  0.4417600000000 1.0
C      1  0.5037600000000  0.5801490000000  0.5440380000000 1.0
C      1  0.4403370000000  0.5640190000000  0.5251400000000 1.0
C      1  0.4428940000000  0.5619130000000  0.4761420000000 1.0
C      1  0.4659580000000  0.4352590000000  0.5634170000000 1.0
C      1  0.4660030000000  0.4394410000000  0.4293900000000 1.0
C      1  0.4602300000000  0.4961520000000  0.4278190000000 1.0
C      1  0.4559840000000  0.4960480000000  0.5711510000000 1.0
C      1  0.4058350000000  0.5062150000000  0.4728810000000 1.0
C      1  0.4041170000000  0.5051810000000  0.5246350000000 1.0
C      1  0.5085840000000  0.4405680000000  0.5841100000000 1.0
C      1  0.5087940000000  0.4467190000000  0.4094370000000 1.0
C      1  0.5564370000000  0.5433600000000  0.4293650000000 1.0
C      1  0.5495410000000  0.5414560000000  0.5670720000000 1.0
C      1  0.5756820000000  0.4657890000000  0.4539120000000 1.0
C      1  0.5737910000000  0.4694250000000  0.5457750000000 1.0
C      1  0.4465910000000  0.4501270000000  0.4555580000000 1.0
C      1  0.4474590000000  0.4491620000000  0.5381160000000 1.0
C      1  0.4649990000000  0.4234720000000  0.4646100000000 1.0
C      1  0.4625910000000  0.4205020000000  0.5277760000000 1.0
C      1  0.4955330000000  0.4701490000000  0.5886660000000 1.0
C      1  0.4971340000000  0.4774330000000  0.4109520000000 1.0
C      1  0.5229270000000  0.4739420000000  0.4586830000000 1.0
C      1  0.5183600000000  0.4691190000000  0.5405000000000 1.0
C      1  0.5503270000000  0.5779280000000  0.4680230000000 1.0
C      1  0.5487460000000  0.5723780000000  0.5243030000000 1.0
C      1  0.4896960000000  0.5001760000000  0.5756970000000 1.0
C      1  0.4936120000000  0.5036990000000  0.4308300000000 1.0
C      1  0.4888900000000  0.5934880000000  0.5191290000000 1.0
C      1  0.4876610000000  0.5930500000000  0.4715080000000 1.0
C      1  0.4079770000000  0.4993150000000  0.5502320000000 1.0
C      1  0.4113280000000  0.4995880000000  0.4477460000000 1.0
C      1  0.4625750000000  0.5285600000000  0.4263320000000 1.0
C      1  0.4621210000000  0.5285870000000  0.5663340000000 1.0
C      1  0.4790880000000  0.5552430000000  0.5250960000000 1.0
C      1  0.4801120000000  0.5609990000000  0.4622330000000 1.0
C      1  0.4825790000000  0.4985170000000  0.4608940000000 1.0
C      1  0.4838780000000  0.4979360000000  0.5428600000000 1.0
C      1  0.4863420000000  0.5396480000000  0.5710030000000 1.0
C      1  0.4843990000000  0.5426510000000  0.4175660000000 1.0
C      1  0.4594580000000  0.5877870000000  0.5133670000000 1.0
C      1  0.4571670000000  0.5885630000000  0.4834580000000 1.0
C      1  0.4466610000000  0.5122860000000  0.4700610000000 1.0
C      1  0.4492620000000  0.5129540000000  0.5301840000000 1.0
C      1  0.4709110000000  0.5798840000000  0.4377140000000 1.0
C      1  0.4714110000000  0.5730230000000  0.5484940000000 1.0
C      1  0.4215090000000  0.4411070000000  0.5210310000000 1.0
C      1  0.4205360000000  0.4419700000000  0.4721380000000 1.0
C      1  0.5089360000000  0.5573160000000  0.4285550000000 1.0
C      1  0.5120410000000  0.5529560000000  0.5593980000000 1.0
C      1  0.5439500000000  0.4269810000000  0.4709280000000 1.0
C      1  0.5418870000000  0.4232470000000  0.5330380000000 1.0
C      1  0.5989570000000  0.5091330000000  0.4632410000000 1.0
C      1  0.5979280000000  0.5101640000000  0.5214740000000 1.0
C      1  0.5199100000000  0.5210160000000  0.4874960000000 1.0
C      1  0.5040280000000  0.3921140000000  0.4999050000000 1.0
C      1  0.4268930000000  0.4225910000000  0.4961720000000 1.0
C      1  0.4283320000000  0.5485680000000  0.5003940000000 1.0
C      1  0.5209140000000  0.4131880000000  0.5005420000000 1.0
C      1  0.5226370000000  0.4428020000000  0.5007900000000 1.0
C      1  0.4558000000000  0.4135790000000  0.4954190000000 1.0
C      1  0.5520400000000  0.6173530000000  0.5004640000000 1.0
C      1  0.5997130000000  0.4763220000000  0.5003000000000 1.0
C      1  0.4147830000000  0.4884620000000  0.4986800000000 1.0
C      1  0.5500960000000  0.5145540000000  0.4963020000000 1.0
C      1  0.5694600000000  0.4918920000000  0.4977560000000 1.0
C      1  0.4041610000000  0.5251080000000  0.4991380000000 1.0
C      1  0.5022880000000  0.4876350000000  0.5005880000000 1.0
C      1  0.5264240000000  0.4741960000000  0.5010060000000 1.0
C      1  0.5534600000000  0.4533360000000  0.4993880000000 1.0
C      1  0.5158320000000  0.5546710000000  0.4908710000000 1.0
C      1  0.4851880000000  0.4307380000000  0.4974250000000 1.0
C      1  0.4783200000000  0.4629280000000  0.5006820000000 1.0
C      1  0.5064320000000  0.5952010000000  0.4958660000000 1.0
C      1  0.4461320000000  0.4747400000000  0.4993560000000 1.0
C      1  0.4415640000000  0.5180910000000  0.5000620000000 1.0
C      1  0.4723580000000  0.5024230000000  0.4993520000000 1.0
C      1  0.5398880000000  0.5914720000000  0.4974600000000 1.0
C      1  0.4099310000000  0.4580830000000  0.4972520000000 1.0
C      1  0.5546100000000  0.4193530000000  0.5023830000000 1.0
C      1  0.6065610000000  0.5053260000000  0.4913010000000 1.0
C      1  0.4745850000000  0.5546130000000  0.4936210000000 1.0
C      1  0.5761440000000  0.4628550000000  0.4831460000000 1.0
C      1  0.4918060000000  0.5265490000000  0.5004800000000 1.0
END
