TITL C-2782231-7322-284 -0.000704880528546598 125000 -292.038544570038 0 0 49 (C1) n - 1
REM
REM in /home/nfs/bkarasulu/CARBON/AIRSS/Generating-Clusters/REBO/Higher-Symm/SD-CG/HFTN-CG
REM
REM
REM
REM
REM
REM ./C.cell (12c818d87b63d06a65506943cc24bca4)
REM
REM compiler GCC version 9.2.1 20190827 (Red Hat 9.2.1-1)
REM options -cpp -mtune=generic -march=x86-64 -g -O0 -fpre-include=/usr/include/finclude/math-vector-fortran.h
REM seed 1558061664 1327878138 -949157905 1124109659 452194495 -1185225078 -819075775 -189911266 -2073093686 1725189389 -105853716 1094044551 -332669641 -477721533 -992009818 1584704569 -1502135436 1027492007 1574217868 2030075448 -1170765898 -1670458072 -1063815116 -1166378903 1504849273 1883126963 644405060 -744613725 266205679 -269120836 698948431 75485482 1631830177
REM
CELL 1.54180   50.00000   50.00000   50.00000   90.00000   90.00000   90.00000
LATT -1
SFAC C  
C      1  0.4881120000000  0.4469440000000  0.4772660000000 1.0
C      1  0.5210640000000  0.5284590000000  0.5336440000000 1.0
C      1  0.5303980000000  0.4970980000000  0.4236070000000 1.0
C      1  0.4405090000000  0.5414550000000  0.4650220000000 1.0
C      1  0.4644330000000  0.4953870000000  0.5510200000000 1.0
C      1  0.5129680000000  0.4734790000000  0.5206510000000 1.0
C      1  0.4815270000000  0.5264660000000  0.4977830000000 1.0
C      1  0.5562760000000  0.5284480000000  0.4666450000000 1.0
C      1  0.5467880000000  0.4376470000000  0.5093900000000 1.0
C      1  0.4349710000000  0.5373400000000  0.5096730000000 1.0
C      1  0.5518530000000  0.4826850000000  0.4833020000000 1.0
C      1  0.5257540000000  0.4216990000000  0.5155430000000 1.0
C      1  0.4870300000000  0.4880990000000  0.4451720000000 1.0
C      1  0.4514960000000  0.4853470000000  0.4774760000000 1.0
C      1  0.5159730000000  0.4876430000000  0.4445580000000 1.0
C      1  0.4713270000000  0.5121380000000  0.4419470000000 1.0
C      1  0.4447220000000  0.4759160000000  0.5028290000000 1.0
C      1  0.5407230000000  0.5442510000000  0.4512450000000 1.0
C      1  0.4565490000000  0.4493080000000  0.5202380000000 1.0
C      1  0.4899420000000  0.4850790000000  0.5604200000000 1.0
C      1  0.4995970000000  0.4633010000000  0.5437410000000 1.0
C      1  0.5592150000000  0.5103690000000  0.4882600000000 1.0
C      1  0.4598570000000  0.5289710000000  0.5165340000000 1.0
C      1  0.4954330000000  0.5732190000000  0.5167270000000 1.0
C      1  0.5582150000000  0.4601910000000  0.4994220000000 1.0
C      1  0.4916770000000  0.5660740000000  0.5429230000000 1.0
C      1  0.4834260000000  0.4404780000000  0.5379680000000 1.0
C      1  0.4978900000000  0.4199370000000  0.5194240000000 1.0
C      1  0.4732020000000  0.4713630000000  0.4644600000000 1.0
C      1  0.5048690000000  0.4710890000000  0.4887880000000 1.0
C      1  0.4676660000000  0.5226370000000  0.5433630000000 1.0
C      1  0.4955330000000  0.5357940000000  0.5523160000000 1.0
C      1  0.4760860000000  0.4318740000000  0.5003820000000 1.0
C      1  0.5009970000000  0.4303510000000  0.4586170000000 1.0
C      1  0.4680610000000  0.5423190000000  0.4491920000000 1.0
C      1  0.5222510000000  0.5645580000000  0.5022820000000 1.0
C      1  0.5556070000000  0.5211350000000  0.5149210000000 1.0
C      1  0.5163460000000  0.5551880000000  0.4465010000000 1.0
C      1  0.4913080000000  0.5553760000000  0.4593450000000 1.0
C      1  0.5085690000000  0.5069170000000  0.5647730000000 1.0
C      1  0.5183180000000  0.5031360000000  0.5219350000000 1.0
C      1  0.5541930000000  0.5062160000000  0.5393530000000 1.0
C      1  0.4480460000000  0.5110370000000  0.4637850000000 1.0
C      1  0.5380510000000  0.5463020000000  0.5165500000000 1.0
C      1  0.4976030000000  0.5028880000000  0.4986990000000 1.0
C      1  0.5270680000000  0.4794650000000  0.4691340000000 1.0
C      1  0.5363110000000  0.5024880000000  0.5598970000000 1.0
C      1  0.4931530000000  0.5535090000000  0.4890610000000 1.0
C      1  0.4490360000000  0.4789310000000  0.5342120000000 1.0
END
