TITL C-2782235-7892-1051 -0.00248219959181241 125000 -1053.29329017706 0 0 177 (C1) n - 1
REM
REM in /home/nfs/bkarasulu/CARBON/AIRSS/Generating-Clusters/REBO/Higher-Symm/SD-CG/HFTN-CG
REM
REM
REM
REM
REM
REM ./C.cell (12c818d87b63d06a65506943cc24bca4)
REM
REM compiler GCC version 9.2.1 20190827 (Red Hat 9.2.1-1)
REM options -cpp -mtune=generic -march=x86-64 -g -O0 -fpre-include=/usr/include/finclude/math-vector-fortran.h
REM seed -1246004360 1419230685 -1190334239 423085286 -790326727 1975566067 -69185616 377428367 -765220506 -1477190584 -160071660 -40757993 1269328180 -160618088 361350250 168453086 -1745700251 -198755131 -346996410 -1563850125 744598328 -1673695842 -1136508954 -696185704 -1628944131 -1025246315 -1083081686 1901594650 810134459 -683749279 873193763 -64117677 1865010848
REM
CELL 1.54180   50.00000   50.00000   50.00000   90.00000   90.00000   90.00000
LATT -1
SFAC C  
C      1  0.4917010000000  0.5960470000000  0.5520370000000 1.0
C      1  0.3998350000000  0.5017960000000  0.5619120000000 1.0
C      1  0.5136510000000  0.4118380000000  0.5425350000000 1.0
C      1  0.5965020000000  0.4935240000000  0.5541190000000 1.0
C      1  0.5185300000000  0.6020970000000  0.4497260000000 1.0
C      1  0.6056140000000  0.5065000000000  0.4478570000000 1.0
C      1  0.4895480000000  0.4062390000000  0.4439290000000 1.0
C      1  0.4021520000000  0.5000710000000  0.4520710000000 1.0
C      1  0.5368570000000  0.5157820000000  0.5976460000000 1.0
C      1  0.4856270000000  0.5320130000000  0.5928990000000 1.0
C      1  0.4608020000000  0.4802180000000  0.6016030000000 1.0
C      1  0.5135610000000  0.4631590000000  0.5979320000000 1.0
C      1  0.4634830000000  0.5201090000000  0.4056100000000 1.0
C      1  0.5175680000000  0.5318060000000  0.3973900000000 1.0
C      1  0.5397180000000  0.4826250000000  0.4027480000000 1.0
C      1  0.4835070000000  0.4638690000000  0.4011360000000 1.0
C      1  0.4726800000000  0.5883350000000  0.5247910000000 1.0
C      1  0.4029890000000  0.4778610000000  0.5411600000000 1.0
C      1  0.5270990000000  0.4100530000000  0.5189150000000 1.0
C      1  0.5891050000000  0.5163670000000  0.5316970000000 1.0
C      1  0.5370640000000  0.5923670000000  0.4757430000000 1.0
C      1  0.5892000000000  0.5001140000000  0.4727920000000 1.0
C      1  0.4683200000000  0.4110100000000  0.4692860000000 1.0
C      1  0.4162810000000  0.5189660000000  0.4769590000000 1.0
C      1  0.5580260000000  0.4779040000000  0.5790340000000 1.0
C      1  0.5212720000000  0.5620300000000  0.5793260000000 1.0
C      1  0.4393660000000  0.5177940000000  0.5816490000000 1.0
C      1  0.4746660000000  0.4354930000000  0.5847920000000 1.0
C      1  0.4362110000000  0.4792810000000  0.4212090000000 1.0
C      1  0.4834570000000  0.5654850000000  0.4098620000000 1.0
C      1  0.5601440000000  0.5238270000000  0.4154330000000 1.0
C      1  0.5187440000000  0.4386620000000  0.4202800000000 1.0
C      1  0.5474060000000  0.5411800000000  0.5399620000000 1.0
C      1  0.4512450000000  0.5454520000000  0.5407920000000 1.0
C      1  0.4397760000000  0.4505000000000  0.5538120000000 1.0
C      1  0.5361280000000  0.4504560000000  0.5439050000000 1.0
C      1  0.4499920000000  0.5429380000000  0.4587070000000 1.0
C      1  0.5403490000000  0.5510850000000  0.4497110000000 1.0
C      1  0.5522380000000  0.4551090000000  0.4529510000000 1.0
C      1  0.4573400000000  0.4465200000000  0.4547810000000 1.0
C      1  0.5542610000000  0.4254020000000  0.5435210000000 1.0
C      1  0.5786430000000  0.5426140000000  0.5443450000000 1.0
C      1  0.4445440000000  0.5781160000000  0.5385750000000 1.0
C      1  0.4096790000000  0.4505030000000  0.5532320000000 1.0
C      1  0.4474870000000  0.4201050000000  0.4438180000000 1.0
C      1  0.4259160000000  0.5586640000000  0.4505140000000 1.0
C      1  0.5498170000000  0.5781990000000  0.4478510000000 1.0
C      1  0.5776340000000  0.4507450000000  0.4678430000000 1.0
C      1  0.6160040000000  0.5313000000000  0.4555620000000 1.0
C      1  0.4870450000000  0.5940670000000  0.4532990000000 1.0
C      1  0.3978470000000  0.4749630000000  0.4640190000000 1.0
C      1  0.5103020000000  0.3883710000000  0.4509940000000 1.0
C      1  0.3973830000000  0.5261340000000  0.5494780000000 1.0
C      1  0.5131970000000  0.6132160000000  0.5447730000000 1.0
C      1  0.6026190000000  0.4692860000000  0.5429300000000 1.0
C      1  0.4850920000000  0.4007400000000  0.5466720000000 1.0
C      1  0.4762340000000  0.5384580000000  0.5105450000000 1.0
C      1  0.4639230000000  0.4903610000000  0.5141890000000 1.0
C      1  0.5280640000000  0.4665770000000  0.5067590000000 1.0
C      1  0.5398850000000  0.5278890000000  0.5128300000000 1.0
C      1  0.5138040000000  0.5321290000000  0.4985740000000 1.0
C      1  0.5362090000000  0.4845130000000  0.4844600000000 1.0
C      1  0.4889220000000  0.4713460000000  0.5013670000000 1.0
C      1  0.4605340000000  0.5273320000000  0.4839540000000 1.0
C      1  0.5990290000000  0.4873430000000  0.4284360000000 1.0
C      1  0.5027150000000  0.5860780000000  0.4241810000000 1.0
C      1  0.4152540000000  0.5001790000000  0.4257970000000 1.0
C      1  0.4947040000000  0.4225210000000  0.4204870000000 1.0
C      1  0.4172330000000  0.4997080000000  0.5843530000000 1.0
C      1  0.4968200000000  0.5804580000000  0.5766240000000 1.0
C      1  0.5813220000000  0.4953250000000  0.5783140000000 1.0
C      1  0.4990260000000  0.4185440000000  0.5725510000000 1.0
C      1  0.4795990000000  0.5001700000000  0.4362010000000 1.0
C      1  0.4911340000000  0.4705520000000  0.4318520000000 1.0
C      1  0.5175680000000  0.4878810000000  0.4354000000000 1.0
C      1  0.5068520000000  0.5188020000000  0.4362140000000 1.0
C      1  0.5218100000000  0.5011610000000  0.5636360000000 1.0
C      1  0.5034580000000  0.4750070000000  0.5693650000000 1.0
C      1  0.4734380000000  0.4863000000000  0.5643030000000 1.0
C      1  0.4915090000000  0.5149520000000  0.5667180000000 1.0
C      1  0.5506330000000  0.5132020000000  0.5579890000000 1.0
C      1  0.4769690000000  0.5580330000000  0.5503920000000 1.0
C      1  0.4451430000000  0.4804680000000  0.5610040000000 1.0
C      1  0.5085510000000  0.4506290000000  0.5506570000000 1.0
C      1  0.4502930000000  0.5105880000000  0.4416270000000 1.0
C      1  0.5104910000000  0.5492890000000  0.4376400000000 1.0
C      1  0.5474980000000  0.4843150000000  0.4442160000000 1.0
C      1  0.4861280000000  0.4481190000000  0.4529150000000 1.0
C      1  0.4633200000000  0.5091280000000  0.5959860000000 1.0
C      1  0.4808060000000  0.4600460000000  0.5987300000000 1.0
C      1  0.5363790000000  0.4859390000000  0.5974370000000 1.0
C      1  0.5175600000000  0.5363940000000  0.5946600000000 1.0
C      1  0.5378250000000  0.5120550000000  0.4012610000000 1.0
C      1  0.5178040000000  0.4638430000000  0.4030920000000 1.0
C      1  0.4594990000000  0.4871550000000  0.4043830000000 1.0
C      1  0.4889560000000  0.5377510000000  0.3970260000000 1.0
C      1  0.4428510000000  0.5135870000000  0.5093970000000 1.0
C      1  0.4815390000000  0.4432770000000  0.5098360000000 1.0
C      1  0.5634330000000  0.4845830000000  0.5020860000000 1.0
C      1  0.5015200000000  0.5594230000000  0.5058070000000 1.0
C      1  0.5602360000000  0.5175360000000  0.4938070000000 1.0
C      1  0.5212720000000  0.4399800000000  0.4935620000000 1.0
C      1  0.4532550000000  0.4789780000000  0.4857490000000 1.0
C      1  0.4759160000000  0.5638770000000  0.4863480000000 1.0
C      1  0.6193920000000  0.4344510000000  0.5110800000000 1.0
C      1  0.5568970000000  0.6180850000000  0.5237030000000 1.0
C      1  0.3803470000000  0.5579040000000  0.5152020000000 1.0
C      1  0.4433750000000  0.3912520000000  0.5236460000000 1.0
C      1  0.3926930000000  0.4366600000000  0.4970750000000 1.0
C      1  0.4505900000000  0.6178400000000  0.4774030000000 1.0
C      1  0.6233240000000  0.5604690000000  0.4963170000000 1.0
C      1  0.5515650000000  0.3794820000000  0.4751850000000 1.0
C      1  0.5595850000000  0.5684800000000  0.4850820000000 1.0
C      1  0.4275110000000  0.5418790000000  0.5008180000000 1.0
C      1  0.4599330000000  0.4325880000000  0.4935040000000 1.0
C      1  0.5736000000000  0.4545950000000  0.4989120000000 1.0
C      1  0.4493100000000  0.5672590000000  0.5072990000000 1.0
C      1  0.5751060000000  0.5451960000000  0.4874820000000 1.0
C      1  0.5503980000000  0.4336170000000  0.5106040000000 1.0
C      1  0.4388830000000  0.4528700000000  0.4895270000000 1.0
C      1  0.4485000000000  0.4219300000000  0.4151580000000 1.0
C      1  0.5899100000000  0.4592740000000  0.4409440000000 1.0
C      1  0.5449920000000  0.5848170000000  0.4209730000000 1.0
C      1  0.4183610000000  0.5520350000000  0.4269060000000 1.0
C      1  0.5476200000000  0.4259780000000  0.5733240000000 1.0
C      1  0.4119140000000  0.4494590000000  0.5824820000000 1.0
C      1  0.4453520000000  0.5712170000000  0.5708010000000 1.0
C      1  0.5833560000000  0.5456820000000  0.5721700000000 1.0
C      1  0.5308620000000  0.4385130000000  0.4465080000000 1.0
C      1  0.5577740000000  0.5301760000000  0.4429350000000 1.0
C      1  0.4683830000000  0.5437230000000  0.4304400000000 1.0
C      1  0.4426800000000  0.4703240000000  0.4482600000000 1.0
C      1  0.4635040000000  0.4354890000000  0.5569200000000 1.0
C      1  0.4406820000000  0.5238450000000  0.5536110000000 1.0
C      1  0.5257260000000  0.5583990000000  0.5507390000000 1.0
C      1  0.5507730000000  0.4734510000000  0.5517150000000 1.0
C      1  0.5189600000000  0.5138470000000  0.5336700000000 1.0
C      1  0.4865410000000  0.5231850000000  0.5337830000000 1.0
C      1  0.4870330000000  0.4900780000000  0.5361740000000 1.0
C      1  0.5172290000000  0.4816080000000  0.5275660000000 1.0
C      1  0.4812270000000  0.5142040000000  0.4663740000000 1.0
C      1  0.5111150000000  0.5256370000000  0.4695520000000 1.0
C      1  0.5154460000000  0.4938020000000  0.4661870000000 1.0
C      1  0.4839120000000  0.4824230000000  0.4716590000000 1.0
C      1  0.4386260000000  0.4982900000000  0.4674710000000 1.0
C      1  0.5102430000000  0.4384550000000  0.4670100000000 1.0
C      1  0.5599920000000  0.5065880000000  0.4616960000000 1.0
C      1  0.4848000000000  0.5620260000000  0.4541780000000 1.0
C      1  0.5632690000000  0.4948120000000  0.5321140000000 1.0
C      1  0.4851920000000  0.4396880000000  0.5379430000000 1.0
C      1  0.4305200000000  0.4984000000000  0.5366130000000 1.0
C      1  0.5014580000000  0.5605970000000  0.5366360000000 1.0
C      1  0.4033690000000  0.4841910000000  0.5105590000000 1.0
C      1  0.5124620000000  0.3985620000000  0.4972670000000 1.0
C      1  0.5990590000000  0.5139850000000  0.5026440000000 1.0
C      1  0.4896620000000  0.5985590000000  0.5007210000000 1.0
C      1  0.6032820000000  0.4810640000000  0.4952510000000 1.0
C      1  0.4834760000000  0.4005850000000  0.4975890000000 1.0
C      1  0.4033410000000  0.5104410000000  0.5042730000000 1.0
C      1  0.5184440000000  0.6000670000000  0.4997710000000 1.0
C      1  0.4737230000000  0.5595470000000  0.5834590000000 1.0
C      1  0.4300010000000  0.4723580000000  0.5928050000000 1.0
C      1  0.5238810000000  0.4335260000000  0.5853410000000 1.0
C      1  0.5671530000000  0.5227620000000  0.5863620000000 1.0
C      1  0.5231370000000  0.5632350000000  0.4091560000000 1.0
C      1  0.5682060000000  0.4752740000000  0.4198160000000 1.0
C      1  0.4727950000000  0.4337290000000  0.4054590000000 1.0
C      1  0.4319750000000  0.5261210000000  0.4173140000000 1.0
C      1  0.4082910000000  0.4593580000000  0.4907950000000 1.0
C      1  0.5256950000000  0.3877420000000  0.4745300000000 1.0
C      1  0.6069200000000  0.5411780000000  0.4845600000000 1.0
C      1  0.4751730000000  0.6053650000000  0.4775920000000 1.0
C      1  0.6022460000000  0.4561530000000  0.5145090000000 1.0
C      1  0.4700200000000  0.3968610000000  0.5227860000000 1.0
C      1  0.3998410000000  0.5385340000000  0.5205350000000 1.0
C      1  0.5306730000000  0.6111390000000  0.5226530000000 1.0
C      1  0.4986900000000  0.5043340000000  0.5008630000000 1.0
END
