TITL C-2782230-7391-847 -0.00286296630561379 125000 -603.270158118094 0 0 100 (C1) n - 1
REM
REM in /home/nfs/bkarasulu/CARBON/AIRSS/Generating-Clusters/REBO/Higher-Symm/SD-CG/HFTN-CG
REM
REM
REM
REM
REM
REM ./C.cell (12c818d87b63d06a65506943cc24bca4)
REM
REM compiler GCC version 9.2.1 20190827 (Red Hat 9.2.1-1)
REM options -cpp -mtune=generic -march=x86-64 -g -O0 -fpre-include=/usr/include/finclude/math-vector-fortran.h
REM seed -926092458 271034231 -1487207109 1236593743 1733452900 -314168155 1566338230 -845278843 887543921 -203069284 385610433 1766023292 936308014 -1041001676 -1210280112 -2079591649 -1267398333 478373154 758280892 1349937947 -2069761245 -1215839504 1278593469 -513770127 2141399599 -2023852306 1292004999 -785683589 -482591844 754165261 806755030 -1919313125 -1241418789
REM
CELL 1.54180   50.00000   50.00000   50.00000   90.00000   90.00000   90.00000
LATT -1
SFAC C  
C      1  0.4659070000000  0.4714800000000  0.5235210000000 1.0
C      1  0.4851330000000  0.4794400000000  0.4706780000000 1.0
C      1  0.5125860000000  0.4996250000000  0.5114180000000 1.0
C      1  0.5153640000000  0.5278640000000  0.5509890000000 1.0
C      1  0.5119300000000  0.5080000000000  0.4574750000000 1.0
C      1  0.4565630000000  0.5136110000000  0.5001700000000 1.0
C      1  0.4446230000000  0.5157990000000  0.5526710000000 1.0
C      1  0.4722240000000  0.5165510000000  0.4110160000000 1.0
C      1  0.5864700000000  0.5229520000000  0.5210470000000 1.0
C      1  0.5650970000000  0.4865080000000  0.5529860000000 1.0
C      1  0.5278780000000  0.4833790000000  0.4079710000000 1.0
C      1  0.4077140000000  0.4823270000000  0.5230670000000 1.0
C      1  0.5136390000000  0.4427030000000  0.4377820000000 1.0
C      1  0.5439330000000  0.4418170000000  0.5338190000000 1.0
C      1  0.4452690000000  0.4369620000000  0.5189350000000 1.0
C      1  0.4883810000000  0.5606200000000  0.4384530000000 1.0
C      1  0.4579150000000  0.5665660000000  0.5348360000000 1.0
C      1  0.5585570000000  0.5652030000000  0.5226130000000 1.0
C      1  0.4477440000000  0.4333120000000  0.4660850000000 1.0
C      1  0.5525740000000  0.4351930000000  0.4740870000000 1.0
C      1  0.4958870000000  0.4276880000000  0.5526990000000 1.0
C      1  0.5527730000000  0.5614950000000  0.4707950000000 1.0
C      1  0.4510360000000  0.5719990000000  0.4733920000000 1.0
C      1  0.5067190000000  0.5881910000000  0.5544580000000 1.0
C      1  0.4331480000000  0.5337790000000  0.5083690000000 1.0
C      1  0.5255920000000  0.5303040000000  0.4386710000000 1.0
C      1  0.5425160000000  0.5418090000000  0.5618870000000 1.0
C      1  0.5803230000000  0.4618130000000  0.5102600000000 1.0
C      1  0.4752540000000  0.4678330000000  0.4425870000000 1.0
C      1  0.4565540000000  0.4629360000000  0.5536110000000 1.0
C      1  0.5018080000000  0.4699460000000  0.4243250000000 1.0
C      1  0.5638330000000  0.4636070000000  0.5347050000000 1.0
C      1  0.4294930000000  0.4607850000000  0.5355990000000 1.0
C      1  0.4976490000000  0.5342670000000  0.4225860000000 1.0
C      1  0.4449100000000  0.5402560000000  0.5367250000000 1.0
C      1  0.5660400000000  0.5408230000000  0.5415130000000 1.0
C      1  0.5067430000000  0.4321980000000  0.5145940000000 1.0
C      1  0.4948720000000  0.4597960000000  0.5220820000000 1.0
C      1  0.4968020000000  0.4533060000000  0.4889670000000 1.0
C      1  0.4839960000000  0.5311620000000  0.4948000000000 1.0
C      1  0.4997760000000  0.5356410000000  0.5229170000000 1.0
C      1  0.4990130000000  0.5596220000000  0.5013000000000 1.0
C      1  0.5225270000000  0.4351230000000  0.5511310000000 1.0
C      1  0.4406580000000  0.4346420000000  0.4921690000000 1.0
C      1  0.5385460000000  0.4404520000000  0.4510260000000 1.0
C      1  0.4819960000000  0.5749070000000  0.5512340000000 1.0
C      1  0.5623060000000  0.5641690000000  0.4958180000000 1.0
C      1  0.4630660000000  0.5661260000000  0.4494010000000 1.0
C      1  0.4581070000000  0.5810270000000  0.5058080000000 1.0
C      1  0.5097290000000  0.5723780000000  0.4529720000000 1.0
C      1  0.5358920000000  0.5820520000000  0.5327100000000 1.0
C      1  0.5450880000000  0.4245160000000  0.5057700000000 1.0
C      1  0.4932300000000  0.4264460000000  0.4491950000000 1.0
C      1  0.4718530000000  0.4196330000000  0.5295460000000 1.0
C      1  0.5325620000000  0.5565280000000  0.4522840000000 1.0
C      1  0.5319210000000  0.5713960000000  0.5627590000000 1.0
C      1  0.4328630000000  0.5615160000000  0.4965370000000 1.0
C      1  0.4677580000000  0.4384740000000  0.4470210000000 1.0
C      1  0.4655560000000  0.4346550000000  0.5585550000000 1.0
C      1  0.5745240000000  0.4370240000000  0.4969450000000 1.0
C      1  0.4983620000000  0.4209170000000  0.4777740000000 1.0
C      1  0.5205720000000  0.4056630000000  0.4990150000000 1.0
C      1  0.4870430000000  0.4051620000000  0.5060370000000 1.0
C      1  0.5046890000000  0.5840670000000  0.4791780000000 1.0
C      1  0.4835620000000  0.5964420000000  0.5027700000000 1.0
C      1  0.5150250000000  0.5872930000000  0.5119560000000 1.0
C      1  0.4492170000000  0.4808000000000  0.4340620000000 1.0
C      1  0.5843860000000  0.4827160000000  0.4910180000000 1.0
C      1  0.4697980000000  0.4806240000000  0.5734570000000 1.0
C      1  0.5529360000000  0.5183490000000  0.4280130000000 1.0
C      1  0.4116470000000  0.5179010000000  0.4908490000000 1.0
C      1  0.5375470000000  0.5171700000000  0.5822100000000 1.0
C      1  0.5274630000000  0.4859210000000  0.4628890000000 1.0
C      1  0.5141480000000  0.4798040000000  0.5334800000000 1.0
C      1  0.4453600000000  0.4815130000000  0.4995250000000 1.0
C      1  0.4821850000000  0.5136780000000  0.4685840000000 1.0
C      1  0.4873480000000  0.5453670000000  0.5515090000000 1.0
C      1  0.5317430000000  0.5139450000000  0.4965760000000 1.0
C      1  0.5519440000000  0.4780900000000  0.4495090000000 1.0
C      1  0.5189590000000  0.4783680000000  0.5613780000000 1.0
C      1  0.4244970000000  0.4734560000000  0.4785340000000 1.0
C      1  0.4550790000000  0.5212520000000  0.4550940000000 1.0
C      1  0.4879910000000  0.5246410000000  0.5750660000000 1.0
C      1  0.5564620000000  0.5201050000000  0.4833000000000 1.0
C      1  0.4525910000000  0.5086950000000  0.4294640000000 1.0
C      1  0.5799390000000  0.5102220000000  0.4972740000000 1.0
C      1  0.4644870000000  0.5078270000000  0.5715830000000 1.0
C      1  0.5512530000000  0.4901170000000  0.4225840000000 1.0
C      1  0.4066050000000  0.4905290000000  0.4960850000000 1.0
C      1  0.5427130000000  0.4913970000000  0.5701940000000 1.0
C      1  0.4968000000000  0.4736790000000  0.5784870000000 1.0
C      1  0.4277520000000  0.4725730000000  0.4506660000000 1.0
C      1  0.5756990000000  0.4754750000000  0.4647100000000 1.0
C      1  0.5123130000000  0.5198660000000  0.5936680000000 1.0
C      1  0.5612720000000  0.5254260000000  0.4558920000000 1.0
C      1  0.4312040000000  0.5256730000000  0.4692890000000 1.0
C      1  0.4290320000000  0.4945400000000  0.5430100000000 1.0
C      1  0.5796370000000  0.5100280000000  0.5479420000000 1.0
C      1  0.5011330000000  0.5017410000000  0.4118130000000 1.0
C      1  0.4831470000000  0.4920490000000  0.5019330000000 1.0
END
