TITL C-2782226-7400-1145 -0.00356565332052105 125000 -1020.38368776254 0 0 180 (Ci) n - 1
REM
REM in /home/nfs/bkarasulu/CARBON/AIRSS/Generating-Clusters/REBO/Higher-Symm/SD-CG/HFTN-CG
REM
REM
REM
REM
REM
REM ./C.cell (12c818d87b63d06a65506943cc24bca4)
REM
REM compiler GCC version 9.2.1 20190827 (Red Hat 9.2.1-1)
REM options -cpp -mtune=generic -march=x86-64 -g -O0 -fpre-include=/usr/include/finclude/math-vector-fortran.h
REM seed -1456948079 1137627188 -1872042611 1549515622 1553956359 -1204964800 -314532384 546385093 -105470674 175279587 978119336 -368156618 596656360 -1284657625 374675187 -468384524 -1791316725 -75819150 -359182703 1228872555 -100081453 172171572 1170440786 -1248817962 1447653925 572825986 415888096 1578148740 256936904 -1143732527 111615863 -335821960 -2137351673
REM
CELL 1.54180   50.00000   50.00000   50.00000   90.00000   90.00000   90.00000
LATT -1
SFAC C  
C      1  0.4112330000000  0.4335110000000  0.5302560000000 1.0
C      1  0.5722960000000  0.4337320000000  0.5579460000000 1.0
C      1  0.5141720000000  0.4390320000000  0.4068350000000 1.0
C      1  0.4132870000000  0.5628590000000  0.4706530000000 1.0
C      1  0.5733940000000  0.5667360000000  0.4407140000000 1.0
C      1  0.5176360000000  0.5603960000000  0.5924730000000 1.0
C      1  0.5887670000000  0.5664890000000  0.4697440000000 1.0
C      1  0.4277040000000  0.5662680000000  0.4420540000000 1.0
C      1  0.4858280000000  0.5609680000000  0.5931650000000 1.0
C      1  0.5867130000000  0.4371410000000  0.5293470000000 1.0
C      1  0.4266060000000  0.4332640000000  0.5592860000000 1.0
C      1  0.4823640000000  0.4396040000000  0.4075270000000 1.0
C      1  0.5492630000000  0.5937600000000  0.4892250000000 1.0
C      1  0.4678940000000  0.5929860000000  0.4662110000000 1.0
C      1  0.4855680000000  0.5911670000000  0.5484840000000 1.0
C      1  0.5492880000000  0.4055510000000  0.5042080000000 1.0
C      1  0.4652240000000  0.4058390000000  0.5420640000000 1.0
C      1  0.4803110000000  0.4051610000000  0.4505580000000 1.0
C      1  0.4507370000000  0.4062400000000  0.5107750000000 1.0
C      1  0.5321060000000  0.4070140000000  0.5337890000000 1.0
C      1  0.5144320000000  0.4088330000000  0.4515160000000 1.0
C      1  0.4507120000000  0.5944490000000  0.4957920000000 1.0
C      1  0.5347760000000  0.5941610000000  0.4579360000000 1.0
C      1  0.5196890000000  0.5948390000000  0.5494420000000 1.0
C      1  0.4226420000000  0.4902640000000  0.5241850000000 1.0
C      1  0.5599260000000  0.4900810000000  0.5547860000000 1.0
C      1  0.5149140000000  0.4948240000000  0.4146000000000 1.0
C      1  0.4222740000000  0.5077670000000  0.4694430000000 1.0
C      1  0.5644070000000  0.5075750000000  0.4477590000000 1.0
C      1  0.5153040000000  0.5049330000000  0.5868770000000 1.0
C      1  0.5773580000000  0.5097360000000  0.4758150000000 1.0
C      1  0.4400740000000  0.5099190000000  0.4452140000000 1.0
C      1  0.4850860000000  0.5051760000000  0.5854000000000 1.0
C      1  0.5777260000000  0.4922330000000  0.5305570000000 1.0
C      1  0.4355930000000  0.4924250000000  0.5522410000000 1.0
C      1  0.4846960000000  0.4950670000000  0.4131230000000 1.0
C      1  0.5618810000000  0.4247640000000  0.4786670000000 1.0
C      1  0.4505750000000  0.4224080000000  0.4532850000000 1.0
C      1  0.4877910000000  0.4209340000000  0.5630980000000 1.0
C      1  0.5659040000000  0.5829550000000  0.5174540000000 1.0
C      1  0.4546450000000  0.5763180000000  0.5505540000000 1.0
C      1  0.4794380000000  0.5792740000000  0.4369790000000 1.0
C      1  0.4381190000000  0.5752360000000  0.5213330000000 1.0
C      1  0.5494250000000  0.5775920000000  0.5467150000000 1.0
C      1  0.5122090000000  0.5790660000000  0.4369020000000 1.0
C      1  0.4340960000000  0.4170450000000  0.4825460000000 1.0
C      1  0.5453550000000  0.4236820000000  0.4494460000000 1.0
C      1  0.5205620000000  0.4207260000000  0.5630210000000 1.0
C      1  0.4136030000000  0.5812160000000  0.4993510000000 1.0
C      1  0.5413260000000  0.5810660000000  0.5794100000000 1.0
C      1  0.5432390000000  0.5727450000000  0.4253290000000 1.0
C      1  0.4117250000000  0.4110420000000  0.5046580000000 1.0
C      1  0.5467530000000  0.4341390000000  0.4176440000000 1.0
C      1  0.5485900000000  0.4244590000000  0.5811220000000 1.0
C      1  0.5863970000000  0.4187840000000  0.5006490000000 1.0
C      1  0.4586740000000  0.4189340000000  0.4205900000000 1.0
C      1  0.4567610000000  0.4272550000000  0.5746710000000 1.0
C      1  0.5882750000000  0.5889580000000  0.4953420000000 1.0
C      1  0.4532470000000  0.5658610000000  0.5823560000000 1.0
C      1  0.4514100000000  0.5755410000000  0.4188780000000 1.0
C      1  0.6157080000000  0.5001030000000  0.4807950000000 1.0
C      1  0.4159800000000  0.5113260000000  0.4133350000000 1.0
C      1  0.4531440000000  0.5168110000000  0.6085490000000 1.0
C      1  0.6139880000000  0.4942600000000  0.5139790000000 1.0
C      1  0.4156870000000  0.4920920000000  0.5868860000000 1.0
C      1  0.4485550000000  0.4822970000000  0.3917540000000 1.0
C      1  0.3842920000000  0.4998970000000  0.5192050000000 1.0
C      1  0.5840200000000  0.4886740000000  0.5866650000000 1.0
C      1  0.5468560000000  0.4831890000000  0.3914510000000 1.0
C      1  0.3860120000000  0.5057400000000  0.4860210000000 1.0
C      1  0.5843130000000  0.5079080000000  0.4131140000000 1.0
C      1  0.5514450000000  0.5177030000000  0.6082460000000 1.0
C      1  0.4599330000000  0.5092770000000  0.3965560000000 1.0
C      1  0.4207710000000  0.5186870000000  0.5685190000000 1.0
C      1  0.5993970000000  0.5173040000000  0.5343180000000 1.0
C      1  0.4601350000000  0.4893430000000  0.6004040000000 1.0
C      1  0.4171140000000  0.4862780000000  0.4361540000000 1.0
C      1  0.5934280000000  0.4835520000000  0.4609660000000 1.0
C      1  0.5400670000000  0.4907230000000  0.6034440000000 1.0
C      1  0.5792290000000  0.4813130000000  0.4314810000000 1.0
C      1  0.4006030000000  0.4826960000000  0.4656820000000 1.0
C      1  0.5398650000000  0.5106570000000  0.3995960000000 1.0
C      1  0.5828860000000  0.5137220000000  0.5638460000000 1.0
C      1  0.4065720000000  0.5164480000000  0.5390340000000 1.0
C      1  0.4418390000000  0.4611760000000  0.5602700000000 1.0
C      1  0.5815700000000  0.4655000000000  0.5176900000000 1.0
C      1  0.4730010000000  0.4667330000000  0.4193060000000 1.0
C      1  0.4460820000000  0.5403340000000  0.4369370000000 1.0
C      1  0.5825420000000  0.5397770000000  0.4840640000000 1.0
C      1  0.4752270000000  0.5329610000000  0.5795020000000 1.0
C      1  0.5581610000000  0.5388240000000  0.4397300000000 1.0
C      1  0.4184300000000  0.5345000000000  0.4823100000000 1.0
C      1  0.5269990000000  0.5332670000000  0.5806940000000 1.0
C      1  0.5539180000000  0.4596660000000  0.5630630000000 1.0
C      1  0.4174580000000  0.4602230000000  0.5159360000000 1.0
C      1  0.5247730000000  0.4670390000000  0.4204980000000 1.0
C      1  0.4661470000000  0.4792410000000  0.4998840000000 1.0
C      1  0.5125540000000  0.4809680000000  0.5302960000000 1.0
C      1  0.5152710000000  0.4802460000000  0.4749980000000 1.0
C      1  0.4714680000000  0.5186570000000  0.4979700000000 1.0
C      1  0.5180750000000  0.5194920000000  0.4700160000000 1.0
C      1  0.5167680000000  0.5202880000000  0.5252730000000 1.0
C      1  0.5338530000000  0.5207590000000  0.5001160000000 1.0
C      1  0.4874460000000  0.5190320000000  0.4697040000000 1.0
C      1  0.4847290000000  0.5197540000000  0.5250020000000 1.0
C      1  0.5285320000000  0.4813430000000  0.5020300000000 1.0
C      1  0.4819250000000  0.4805080000000  0.5299840000000 1.0
C      1  0.4832320000000  0.4797120000000  0.4747270000000 1.0
C      1  0.4357860000000  0.5413340000000  0.5182330000000 1.0
C      1  0.5498810000000  0.5431080000000  0.5488370000000 1.0
C      1  0.5210060000000  0.5472660000000  0.4264430000000 1.0
C      1  0.4327980000000  0.4502830000000  0.4759790000000 1.0
C      1  0.5504630000000  0.4573310000000  0.4543900000000 1.0
C      1  0.5106380000000  0.4528180000000  0.5695950000000 1.0
C      1  0.5642140000000  0.4586660000000  0.4817670000000 1.0
C      1  0.4501190000000  0.4568920000000  0.4511630000000 1.0
C      1  0.4789940000000  0.4527340000000  0.5735570000000 1.0
C      1  0.5672020000000  0.5497170000000  0.5240210000000 1.0
C      1  0.4495370000000  0.5426690000000  0.5456100000000 1.0
C      1  0.4893620000000  0.5471820000000  0.4304050000000 1.0
C      1  0.5599710000000  0.4742610000000  0.5912530000000 1.0
C      1  0.5585950000000  0.4642260000000  0.4158980000000 1.0
C      1  0.3957980000000  0.4751800000000  0.4986900000000 1.0
C      1  0.5615590000000  0.5241860000000  0.4116320000000 1.0
C      1  0.5609400000000  0.5309560000000  0.5831480000000 1.0
C      1  0.3997840000000  0.5284020000000  0.5076670000000 1.0
C      1  0.4400290000000  0.5257390000000  0.4087470000000 1.0
C      1  0.4414050000000  0.5357740000000  0.5841020000000 1.0
C      1  0.6042020000000  0.5248200000000  0.5013100000000 1.0
C      1  0.4384410000000  0.4758140000000  0.5883680000000 1.0
C      1  0.4390600000000  0.4690440000000  0.4168520000000 1.0
C      1  0.6002160000000  0.4715980000000  0.4923330000000 1.0
C      1  0.5512180000000  0.5492960000000  0.4934420000000 1.0
C      1  0.4704650000000  0.5472120000000  0.4595440000000 1.0
C      1  0.4829540000000  0.5447330000000  0.5485990000000 1.0
C      1  0.5487580000000  0.4555250000000  0.5118840000000 1.0
C      1  0.4625920000000  0.4551350000000  0.5373370000000 1.0
C      1  0.4835960000000  0.4549690000000  0.4502810000000 1.0
C      1  0.4487820000000  0.4507040000000  0.5065580000000 1.0
C      1  0.5295350000000  0.4527880000000  0.5404560000000 1.0
C      1  0.5170460000000  0.4552670000000  0.4514010000000 1.0
C      1  0.4512420000000  0.5444750000000  0.4881160000000 1.0
C      1  0.5374080000000  0.5448650000000  0.4626630000000 1.0
C      1  0.5164040000000  0.5450310000000  0.5497190000000 1.0
C      1  0.5598860000000  0.4898730000000  0.4948440000000 1.0
C      1  0.4628650000000  0.4889340000000  0.4507760000000 1.0
C      1  0.4750520000000  0.4827600000000  0.5633400000000 1.0
C      1  0.5655610000000  0.5176700000000  0.5129950000000 1.0
C      1  0.4620520000000  0.5108540000000  0.5488960000000 1.0
C      1  0.4787050000000  0.5155440000000  0.4368620000000 1.0
C      1  0.4401140000000  0.5101270000000  0.5051560000000 1.0
C      1  0.5371350000000  0.5110660000000  0.5492240000000 1.0
C      1  0.5249480000000  0.5172400000000  0.4366600000000 1.0
C      1  0.4344390000000  0.4823300000000  0.4870050000000 1.0
C      1  0.5379480000000  0.4891460000000  0.4511040000000 1.0
C      1  0.5212950000000  0.4844560000000  0.5631380000000 1.0
C      1  0.5208210000000  0.5698500000000  0.4747150000000 1.0
C      1  0.4705030000000  0.5697840000000  0.4985610000000 1.0
C      1  0.5142880000000  0.5713270000000  0.5289820000000 1.0
C      1  0.5083740000000  0.4299980000000  0.5263850000000 1.0
C      1  0.4704210000000  0.4275410000000  0.4948420000000 1.0
C      1  0.5168730000000  0.4314680000000  0.4759280000000 1.0
C      1  0.4791790000000  0.4301500000000  0.5252850000000 1.0
C      1  0.5294970000000  0.4302160000000  0.5014390000000 1.0
C      1  0.4857120000000  0.4286730000000  0.4710180000000 1.0
C      1  0.4916260000000  0.5700020000000  0.4736150000000 1.0
C      1  0.5295790000000  0.5724590000000  0.5051580000000 1.0
C      1  0.4831270000000  0.5685320000000  0.5240720000000 1.0
C      1  0.5736550000000  0.5971590000000  0.4663780000000 1.0
C      1  0.4439430000000  0.5964200000000  0.4435720000000 1.0
C      1  0.4761710000000  0.5909320000000  0.5806690000000 1.0
C      1  0.5717180000000  0.4064840000000  0.5287820000000 1.0
C      1  0.4387560000000  0.4014470000000  0.5630130000000 1.0
C      1  0.4912310000000  0.4087690000000  0.4190890000000 1.0
C      1  0.4263450000000  0.4028410000000  0.5336220000000 1.0
C      1  0.5560570000000  0.4035800000000  0.5564280000000 1.0
C      1  0.5238290000000  0.4090680000000  0.4193310000000 1.0
C      1  0.4282820000000  0.5935160000000  0.4712180000000 1.0
C      1  0.5612440000000  0.5985530000000  0.4369870000000 1.0
C      1  0.5087690000000  0.5912310000000  0.5809110000000 1.0
END
