TITL C-2782234-8014-217 -0.00216925964347171 125000 -285.512038411792 0 0 48 (C3) n - 1
REM
REM in /home/nfs/bkarasulu/CARBON/AIRSS/Generating-Clusters/REBO/Higher-Symm/SD-CG/HFTN-CG
REM
REM
REM
REM
REM
REM ./C.cell (12c818d87b63d06a65506943cc24bca4)
REM
REM compiler GCC version 9.2.1 20190827 (Red Hat 9.2.1-1)
REM options -cpp -mtune=generic -march=x86-64 -g -O0 -fpre-include=/usr/include/finclude/math-vector-fortran.h
REM seed 465562611 -2030741835 892414955 306590742 -1026000705 -113579439 2007339684 1398322899 -1132512469 -817840843 -635687160 -1584626226 229305598 -1130828526 -1114538634 -1935786220 176478681 623202152 -353919097 1860356995 2079540186 -1999572520 -945209730 -1003323523 -1502223175 798734271 -1669922667 910727328 715184003 -717205571 -869577413 -1403589897 -1846781044
REM
CELL 1.54180   50.00000   50.00000   50.00000   90.00000   90.00000   90.00000
LATT -1
SFAC C  
C      1  0.5577580000000  0.5040570000000  0.5185450000000 1.0
C      1  0.4550710000000  0.5043810000000  0.5407260000000 1.0
C      1  0.4872050000000  0.5040960000000  0.4407050000000 1.0
C      1  0.5221860000000  0.5190960000000  0.5743200000000 1.0
C      1  0.4245900000000  0.5191800000000  0.4819520000000 1.0
C      1  0.5533800000000  0.5187530000000  0.4436160000000 1.0
C      1  0.5439010000000  0.4971250000000  0.4882200000000 1.0
C      1  0.4882450000000  0.4973860000000  0.5439240000000 1.0
C      1  0.4678320000000  0.4972920000000  0.4678720000000 1.0
C      1  0.5443060000000  0.5285000000000  0.5606370000000 1.0
C      1  0.4254020000000  0.5287200000000  0.5079000000000 1.0
C      1  0.5305250000000  0.5282820000000  0.4312940000000 1.0
C      1  0.5050030000000  0.5259190000000  0.4433120000000 1.0
C      1  0.5466540000000  0.5259810000000  0.5325390000000 1.0
C      1  0.4485560000000  0.5262310000000  0.5239950000000 1.0
C      1  0.4282980000000  0.4667000000000  0.5130600000000 1.0
C      1  0.5244600000000  0.4662770000000  0.4315520000000 1.0
C      1  0.5469680000000  0.4664600000000  0.5555860000000 1.0
C      1  0.4288200000000  0.4720940000000  0.4861780000000 1.0
C      1  0.5474930000000  0.4716900000000  0.4454170000000 1.0
C      1  0.5234570000000  0.4719980000000  0.5685710000000 1.0
C      1  0.4981110000000  0.4757720000000  0.4335740000000 1.0
C      1  0.5584130000000  0.4758010000000  0.5317050000000 1.0
C      1  0.4432790000000  0.4761200000000  0.5348630000000 1.0
C      1  0.5279710000000  0.5474930000000  0.4905340000000 1.0
C      1  0.4943250000000  0.5476600000000  0.5287040000000 1.0
C      1  0.4780920000000  0.5476090000000  0.4804810000000 1.0
C      1  0.4722640000000  0.4419190000000  0.4983010000000 1.0
C      1  0.5152010000000  0.4417610000000  0.4771380000000 1.0
C      1  0.5120600000000  0.4418630000000  0.5249040000000 1.0
C      1  0.4908040000000  0.5634930000000  0.5493110000000 1.0
C      1  0.4620440000000  0.5634090000000  0.4670440000000 1.0
C      1  0.5476700000000  0.5632080000000  0.4832700000000 1.0
C      1  0.5222220000000  0.5363130000000  0.5183630000000 1.0
C      1  0.4730730000000  0.5364310000000  0.5098700000000 1.0
C      1  0.5050020000000  0.5362680000000  0.4715520000000 1.0
C      1  0.4825750000000  0.5095460000000  0.4910780000000 1.0
C      1  0.5164620000000  0.5094500000000  0.4893200000000 1.0
C      1  0.5010410000000  0.5095520000000  0.5195460000000 1.0
C      1  0.5078660000000  0.4956720000000  0.5670300000000 1.0
C      1  0.4380070000000  0.4956780000000  0.4733200000000 1.0
C      1  0.5540910000000  0.4953350000000  0.4596760000000 1.0
C      1  0.5466200000000  0.4687300000000  0.5044300000000 1.0
C      1  0.4727800000000  0.4689980000000  0.5383250000000 1.0
C      1  0.4803460000000  0.4688180000000  0.4574290000000 1.0
C      1  0.4840720000000  0.4477180000000  0.5238370000000 1.0
C      1  0.4871960000000  0.4476120000000  0.4745660000000 1.0
C      1  0.5283040000000  0.4475540000000  0.5019070000000 1.0
END
