TITL C-2782234-8014-249 -0.00050827731993494 125000 -320.761500678417 0 0 58 (Ci) n - 1
REM
REM in /home/nfs/bkarasulu/CARBON/AIRSS/Generating-Clusters/REBO/Higher-Symm/SD-CG/HFTN-CG
REM
REM
REM
REM
REM
REM ./C.cell (12c818d87b63d06a65506943cc24bca4)
REM
REM compiler GCC version 9.2.1 20190827 (Red Hat 9.2.1-1)
REM options -cpp -mtune=generic -march=x86-64 -g -O0 -fpre-include=/usr/include/finclude/math-vector-fortran.h
REM seed -1046813160 -1772948409 349693295 28515493 -696935504 1984595860 852343426 1141948728 1657340070 470369049 -1751341346 907827464 1282194253 634388298 -1019230473 1004976800 2067678644 1483365198 -66580803 -127966066 -1216084847 2102488232 -1821809408 -519395119 1514060862 1019901411 1631225511 2142466472 69167482 420485885 1652223177 -1020088376 -1088727039
REM
CELL 1.54180   50.00000   50.00000   50.00000   90.00000   90.00000   90.00000
LATT -1
SFAC C  
C      1  0.5868750000000  0.4929240000000  0.5152620000000 1.0
C      1  0.4131250000000  0.5070760000000  0.4847380000000 1.0
C      1  0.4955530000000  0.4492810000000  0.5261410000000 1.0
C      1  0.5044470000000  0.5507190000000  0.4738590000000 1.0
C      1  0.4663960000000  0.4836200000000  0.4888770000000 1.0
C      1  0.5336040000000  0.5163800000000  0.5111230000000 1.0
C      1  0.5619570000000  0.5092340000000  0.5273770000000 1.0
C      1  0.4380430000000  0.4907660000000  0.4726230000000 1.0
C      1  0.4518950000000  0.4486570000000  0.5288970000000 1.0
C      1  0.5481050000000  0.5513430000000  0.4711030000000 1.0
C      1  0.5098170000000  0.5428450000000  0.4429700000000 1.0
C      1  0.4901830000000  0.4571550000000  0.5570300000000 1.0
C      1  0.4360500000000  0.4796320000000  0.5038210000000 1.0
C      1  0.5639500000000  0.5203680000000  0.4961790000000 1.0
C      1  0.4954970000000  0.4976060000000  0.4837640000000 1.0
C      1  0.5045030000000  0.5023940000000  0.5162360000000 1.0
C      1  0.4946470000000  0.4696730000000  0.4644440000000 1.0
C      1  0.5053530000000  0.5303270000000  0.5355560000000 1.0
C      1  0.5340970000000  0.5603910000000  0.4489400000000 1.0
C      1  0.4659030000000  0.4396090000000  0.5510600000000 1.0
C      1  0.5063430000000  0.5513300000000  0.5142580000000 1.0
C      1  0.4936570000000  0.4486700000000  0.4857420000000 1.0
C      1  0.5124040000000  0.4690060000000  0.4379060000000 1.0
C      1  0.4875960000000  0.5309940000000  0.5620940000000 1.0
C      1  0.5466130000000  0.5670140000000  0.5236810000000 1.0
C      1  0.4533870000000  0.4329860000000  0.4763190000000 1.0
C      1  0.5673350000000  0.4918730000000  0.4686600000000 1.0
C      1  0.4326650000000  0.5081270000000  0.5313400000000 1.0
C      1  0.5217460000000  0.5332470000000  0.5846220000000 1.0
C      1  0.4782540000000  0.4667530000000  0.4153780000000 1.0
C      1  0.5306960000000  0.4852470000000  0.4326380000000 1.0
C      1  0.4693040000000  0.5147530000000  0.5673620000000 1.0
C      1  0.6003470000000  0.5256710000000  0.5480510000000 1.0
C      1  0.3996530000000  0.4743290000000  0.4519490000000 1.0
C      1  0.4368210000000  0.4749960000000  0.5350440000000 1.0
C      1  0.5631790000000  0.5250040000000  0.4649560000000 1.0
C      1  0.3914690000000  0.4956790000000  0.4686330000000 1.0
C      1  0.6085310000000  0.5043210000000  0.5313670000000 1.0
C      1  0.4179710000000  0.5169550000000  0.5106590000000 1.0
C      1  0.5820290000000  0.4830450000000  0.4893410000000 1.0
C      1  0.4492140000000  0.4490870000000  0.4524990000000 1.0
C      1  0.5507860000000  0.5509130000000  0.5475010000000 1.0
C      1  0.5391230000000  0.5047870000000  0.4544590000000 1.0
C      1  0.4608770000000  0.4952130000000  0.5455410000000 1.0
C      1  0.4891050000000  0.4820630000000  0.5336030000000 1.0
C      1  0.5108950000000  0.5179370000000  0.4663970000000 1.0
C      1  0.5261450000000  0.5855640000000  0.5094210000000 1.0
C      1  0.4738550000000  0.4144360000000  0.4905790000000 1.0
C      1  0.4735090000000  0.4608030000000  0.4419070000000 1.0
C      1  0.5264910000000  0.5391970000000  0.5580930000000 1.0
C      1  0.4280090000000  0.4687910000000  0.4535440000000 1.0
C      1  0.5719910000000  0.5312090000000  0.5464560000000 1.0
C      1  0.5117820000000  0.5762050000000  0.4834430000000 1.0
C      1  0.4882180000000  0.4237950000000  0.5165570000000 1.0
C      1  0.5034910000000  0.4212080000000  0.4798610000000 1.0
C      1  0.4965090000000  0.5787920000000  0.5201390000000 1.0
C      1  0.4645030000000  0.4518610000000  0.5010960000000 1.0
C      1  0.5354970000000  0.5481390000000  0.4989040000000 1.0
END
