TITL C-2782231-7322-801 0.0469994757684384 125000 -203.807647542203 0 0 37 (C1) n - 1
REM
REM in /home/nfs/bkarasulu/CARBON/AIRSS/Generating-Clusters/REBO/Higher-Symm/SD-CG/HFTN-CG
REM
REM
REM
REM
REM
REM ./C.cell (12c818d87b63d06a65506943cc24bca4)
REM
REM compiler GCC version 9.2.1 20190827 (Red Hat 9.2.1-1)
REM options -cpp -mtune=generic -march=x86-64 -g -O0 -fpre-include=/usr/include/finclude/math-vector-fortran.h
REM seed -1818765131 995343286 -847326106 2088672115 1063707507 -768500548 -1796971000 1952241548 -1562242474 -1832291648 -109554618 -1052492081 2035243706 313429691 -1065427606 91328934 -206240265 -199197150 -1183082926 -673107917 1972286148 897049117 947751142 -433566377 2092466623 1627088578 -1925955870 1954876754 987613236 2104494496 449101405 -1930676841 -290070452
REM
CELL 1.54180   50.00000   50.00000   50.00000   90.00000   90.00000   90.00000
LATT -1
SFAC C  
C      1  0.5104720000000  0.4574460000000  0.5372730000000 1.0
C      1  0.4642150000000  0.4728120000000  0.5394370000000 1.0
C      1  0.4467830000000  0.4539030000000  0.4966620000000 1.0
C      1  0.4748810000000  0.4512170000000  0.4545490000000 1.0
C      1  0.5220920000000  0.4668610000000  0.4485740000000 1.0
C      1  0.5411370000000  0.4515100000000  0.4908510000000 1.0
C      1  0.5591550000000  0.4576390000000  0.5357490000000 1.0
C      1  0.4533100000000  0.4939210000000  0.4680720000000 1.0
C      1  0.4828500000000  0.4970800000000  0.4547890000000 1.0
C      1  0.5724020000000  0.4722480000000  0.4635810000000 1.0
C      1  0.5840330000000  0.4692140000000  0.4904190000000 1.0
C      1  0.5290660000000  0.4718700000000  0.5772330000000 1.0
C      1  0.5000730000000  0.4766770000000  0.5781380000000 1.0
C      1  0.4513490000000  0.5012910000000  0.4990610000000 1.0
C      1  0.4346840000000  0.5503440000000  0.5222290000000 1.0
C      1  0.4657960000000  0.5548740000000  0.4663450000000 1.0
C      1  0.4920110000000  0.5492040000000  0.4561100000000 1.0
C      1  0.5115220000000  0.5667000000000  0.4681860000000 1.0
C      1  0.5071810000000  0.5808080000000  0.4919710000000 1.0
C      1  0.4836850000000  0.5785630000000  0.5075200000000 1.0
C      1  0.4549340000000  0.5727840000000  0.5217980000000 1.0
C      1  0.5448290000000  0.4626540000000  0.4642710000000 1.0
C      1  0.5637760000000  0.4577350000000  0.5080370000000 1.0
C      1  0.5358490000000  0.4609090000000  0.5510790000000 1.0
C      1  0.4885050000000  0.4687270000000  0.5525680000000 1.0
C      1  0.4508500000000  0.4753410000000  0.5151650000000 1.0
C      1  0.4530430000000  0.4615070000000  0.4698500000000 1.0
C      1  0.4944700000000  0.4715060000000  0.4491890000000 1.0
C      1  0.4950270000000  0.5218260000000  0.4498410000000 1.0
C      1  0.5849010000000  0.4831320000000  0.4421910000000 1.0
C      1  0.6089330000000  0.4768960000000  0.4977090000000 1.0
C      1  0.5465350000000  0.4775370000000  0.5971070000000 1.0
C      1  0.4866030000000  0.4874250000000  0.5990020000000 1.0
C      1  0.4324490000000  0.5254740000000  0.5114210000000 1.0
C      1  0.4328230000000  0.5053550000000  0.4525240000000 1.0
C      1  0.4720290000000  0.5247540000000  0.5064470000000 1.0
C      1  0.4654270000000  0.5532280000000  0.4968670000000 1.0
END
