TITL C-2782237-5345-355 0.00177748169458961 125000 -401.557721871033 0 0 69 (C1) n - 1
REM
REM in /home/nfs/bkarasulu/CARBON/AIRSS/Generating-Clusters/REBO/Higher-Symm/SD-CG/HFTN-CG
REM
REM
REM
REM
REM
REM ./C.cell (12c818d87b63d06a65506943cc24bca4)
REM
REM compiler GCC version 9.2.1 20190827 (Red Hat 9.2.1-1)
REM options -cpp -mtune=generic -march=x86-64 -g -O0 -fpre-include=/usr/include/finclude/math-vector-fortran.h
REM seed 1793334411 721912926 -1332121288 -1171866745 295695706 -1919551634 746765267 1843636685 405776872 -561468936 1474611824 -779167404 1904268921 1387144883 268277170 1815036258 -1486229596 -1177562342 402546068 1480473353 1659659221 -2022611736 1231553433 -689400922 1908654412 1840887047 462523163 2074523393 -2080071369 108403974 -262343058 532067035 977525145
REM
CELL 1.54180   50.00000   50.00000   50.00000   90.00000   90.00000   90.00000
LATT -1
SFAC C  
C      1  0.4317580000000  0.4889350000000  0.5213830000000 1.0
C      1  0.5273850000000  0.5437790000000  0.5079930000000 1.0
C      1  0.5787220000000  0.4246810000000  0.4988760000000 1.0
C      1  0.4490720000000  0.5490790000000  0.4619990000000 1.0
C      1  0.4965630000000  0.4814610000000  0.4856300000000 1.0
C      1  0.5198860000000  0.4730070000000  0.5175300000000 1.0
C      1  0.4681660000000  0.4861260000000  0.4777410000000 1.0
C      1  0.5303570000000  0.5102330000000  0.4464550000000 1.0
C      1  0.4547470000000  0.4664280000000  0.5116420000000 1.0
C      1  0.4528810000000  0.5730880000000  0.4781060000000 1.0
C      1  0.5080330000000  0.4436780000000  0.4456570000000 1.0
C      1  0.5678550000000  0.5001360000000  0.4964890000000 1.0
C      1  0.5079150000000  0.5633700000000  0.4398840000000 1.0
C      1  0.5356850000000  0.5579080000000  0.4831630000000 1.0
C      1  0.4917930000000  0.4312000000000  0.4994690000000 1.0
C      1  0.5626550000000  0.4454460000000  0.4977970000000 1.0
C      1  0.5091050000000  0.4539850000000  0.4935620000000 1.0
C      1  0.4910240000000  0.4643850000000  0.4293990000000 1.0
C      1  0.5649340000000  0.4880570000000  0.5226950000000 1.0
C      1  0.5581420000000  0.5282870000000  0.4512980000000 1.0
C      1  0.4602760000000  0.4376250000000  0.5076140000000 1.0
C      1  0.4470580000000  0.5850340000000  0.5274120000000 1.0
C      1  0.5246680000000  0.4478600000000  0.4678630000000 1.0
C      1  0.5066220000000  0.5142000000000  0.5536130000000 1.0
C      1  0.5601000000000  0.5436790000000  0.4750490000000 1.0
C      1  0.5136490000000  0.4928640000000  0.5732760000000 1.0
C      1  0.5042670000000  0.5023580000000  0.5253040000000 1.0
C      1  0.4823300000000  0.4240140000000  0.5297110000000 1.0
C      1  0.4659960000000  0.5017090000000  0.4481180000000 1.0
C      1  0.5073630000000  0.5143700000000  0.4276530000000 1.0
C      1  0.4311000000000  0.4799140000000  0.4911570000000 1.0
C      1  0.4328650000000  0.5412810000000  0.5053080000000 1.0
C      1  0.4726060000000  0.5321560000000  0.4538770000000 1.0
C      1  0.4704920000000  0.5446880000000  0.5573750000000 1.0
C      1  0.4796690000000  0.4798820000000  0.5242420000000 1.0
C      1  0.5050440000000  0.4622090000000  0.5648800000000 1.0
C      1  0.5671960000000  0.4727200000000  0.4472970000000 1.0
C      1  0.4437470000000  0.5683260000000  0.5055910000000 1.0
C      1  0.4984400000000  0.5406640000000  0.5604800000000 1.0
C      1  0.4743800000000  0.4419550000000  0.4502520000000 1.0
C      1  0.5315760000000  0.5772960000000  0.5823770000000 1.0
C      1  0.5327720000000  0.4848030000000  0.5471570000000 1.0
C      1  0.5325310000000  0.4506300000000  0.5478440000000 1.0
C      1  0.5483910000000  0.4901460000000  0.4779010000000 1.0
C      1  0.5693090000000  0.5293770000000  0.4986640000000 1.0
C      1  0.4545600000000  0.5219450000000  0.5522280000000 1.0
C      1  0.5055760000000  0.4320150000000  0.5525010000000 1.0
C      1  0.4626300000000  0.4979040000000  0.5655730000000 1.0
C      1  0.5155040000000  0.5595280000000  0.5717560000000 1.0
C      1  0.4426640000000  0.5182610000000  0.5251730000000 1.0
C      1  0.5514440000000  0.4604080000000  0.5217400000000 1.0
C      1  0.5170340000000  0.5027790000000  0.4746070000000 1.0
C      1  0.5522430000000  0.4584270000000  0.4721450000000 1.0
C      1  0.5514170000000  0.5336440000000  0.5236830000000 1.0
C      1  0.4886410000000  0.4047920000000  0.5547020000000 1.0
C      1  0.5520960000000  0.5090460000000  0.5397130000000 1.0
C      1  0.4302910000000  0.5326140000000  0.4773190000000 1.0
C      1  0.4323230000000  0.5030650000000  0.4733630000000 1.0
C      1  0.4887060000000  0.4920610000000  0.4284100000000 1.0
C      1  0.4583860000000  0.5112230000000  0.4958500000000 1.0
C      1  0.4942960000000  0.5395700000000  0.4337700000000 1.0
C      1  0.4501930000000  0.6008510000000  0.5480710000000 1.0
C      1  0.4581740000000  0.4688800000000  0.4516230000000 1.0
C      1  0.5210840000000  0.5703790000000  0.4626990000000 1.0
C      1  0.5063490000000  0.5251390000000  0.5058330000000 1.0
C      1  0.4879570000000  0.5204240000000  0.4812080000000 1.0
C      1  0.4683680000000  0.4273120000000  0.4760940000000 1.0
C      1  0.5608990000000  0.4981110000000  0.4407810000000 1.0
C      1  0.4800350000000  0.4785910000000  0.5543760000000 1.0
END
