TITL C-2782226-7400-602 -0.000290564143674422 125000 -144.877415364475 0 0 27 (C1) n - 1
REM
REM in /home/nfs/bkarasulu/CARBON/AIRSS/Generating-Clusters/REBO/Higher-Symm/SD-CG/HFTN-CG
REM
REM
REM
REM
REM
REM ./C.cell (12c818d87b63d06a65506943cc24bca4)
REM
REM compiler GCC version 9.2.1 20190827 (Red Hat 9.2.1-1)
REM options -cpp -mtune=generic -march=x86-64 -g -O0 -fpre-include=/usr/include/finclude/math-vector-fortran.h
REM seed 531585863 -1562632670 -1126760696 2145585767 -1679337405 818942080 -21194686 -605099034 -2137238134 -786053677 -1618471237 -2035197154 1077648908 431429365 -1371508516 1382269125 429729329 865561433 -1653461152 -522868774 4340735 -366973586 1240669292 -33475878 96789873 -2029363997 515738760 -354373501 -1661183686 1103467135 -1766816380 -1899254980 2010883554
REM
CELL 1.54180   50.00000   50.00000   50.00000   90.00000   90.00000   90.00000
LATT -1
SFAC C  
C      1  0.4854410000000  0.4787990000000  0.4393550000000 1.0
C      1  0.4804260000000  0.4629920000000  0.5494060000000 1.0
C      1  0.4864090000000  0.5526560000000  0.5215030000000 1.0
C      1  0.5150320000000  0.4890030000000  0.4408280000000 1.0
C      1  0.5114760000000  0.4606580000000  0.5475500000000 1.0
C      1  0.5172700000000  0.5541690000000  0.5180330000000 1.0
C      1  0.4820760000000  0.5110720000000  0.4416940000000 1.0
C      1  0.4824880000000  0.5377390000000  0.5502150000000 1.0
C      1  0.4849480000000  0.4478770000000  0.5208820000000 1.0
C      1  0.5115520000000  0.5213240000000  0.4389710000000 1.0
C      1  0.5135340000000  0.5390800000000  0.5471400000000 1.0
C      1  0.5158390000000  0.4451950000000  0.5187650000000 1.0
C      1  0.4692530000000  0.5163770000000  0.4711810000000 1.0
C      1  0.4719760000000  0.4672520000000  0.4977710000000 1.0
C      1  0.4694960000000  0.5170850000000  0.5267200000000 1.0
C      1  0.5274160000000  0.5154830000000  0.4679900000000 1.0
C      1  0.5276220000000  0.4670270000000  0.4980530000000 1.0
C      1  0.5263480000000  0.5162080000000  0.5254870000000 1.0
C      1  0.4709350000000  0.4843220000000  0.4691290000000 1.0
C      1  0.4718820000000  0.5337650000000  0.4990880000000 1.0
C      1  0.4690240000000  0.4839810000000  0.5254280000000 1.0
C      1  0.5291280000000  0.4835380000000  0.4697020000000 1.0
C      1  0.5273950000000  0.5317710000000  0.4969190000000 1.0
C      1  0.5260430000000  0.4828650000000  0.5262930000000 1.0
C      1  0.4977640000000  0.4999240000000  0.5323360000000 1.0
C      1  0.4988810000000  0.5292080000000  0.4798270000000 1.0
C      1  0.4999160000000  0.4706320000000  0.4797340000000 1.0
END
