TITL C-2782235-7892-173 0.00284776176541516 125000 -276.113765006199 0 0 49 (C1) n - 1
REM
REM in /home/nfs/bkarasulu/CARBON/AIRSS/Generating-Clusters/REBO/Higher-Symm/SD-CG/HFTN-CG
REM
REM
REM
REM
REM
REM ./C.cell (12c818d87b63d06a65506943cc24bca4)
REM
REM compiler GCC version 9.2.1 20190827 (Red Hat 9.2.1-1)
REM options -cpp -mtune=generic -march=x86-64 -g -O0 -fpre-include=/usr/include/finclude/math-vector-fortran.h
REM seed 719623496 -1059920083 -1544301814 988921795 1490992011 538646057 -796363523 687513729 858170500 -1180795213 -1555499946 847300046 98204607 -654300786 1803343182 -423196566 -305893842 -2062826667 -1019700004 -152492855 -421622471 -1473840556 1243793143 1364235029 713490233 -1827896404 -1463963637 1153504364 -235782224 -1090579846 1783058519 1186461617 -444488450
REM
CELL 1.54180   50.00000   50.00000   50.00000   90.00000   90.00000   90.00000
LATT -1
SFAC C  
C      1  0.5158790000000  0.5213640000000  0.5273090000000 1.0
C      1  0.5185560000000  0.5195430000000  0.4741340000000 1.0
C      1  0.5135650000000  0.4704470000000  0.5003560000000 1.0
C      1  0.4687120000000  0.5246460000000  0.4630550000000 1.0
C      1  0.4635760000000  0.4489880000000  0.5069530000000 1.0
C      1  0.4604840000000  0.5278100000000  0.5383720000000 1.0
C      1  0.4478740000000  0.5097840000000  0.4728620000000 1.0
C      1  0.4411710000000  0.4657790000000  0.5092210000000 1.0
C      1  0.4383340000000  0.5165050000000  0.5248140000000 1.0
C      1  0.4937500000000  0.5029890000000  0.5653530000000 1.0
C      1  0.5041280000000  0.5610320000000  0.4543130000000 1.0
C      1  0.4841890000000  0.4555440000000  0.4612720000000 1.0
C      1  0.5303590000000  0.4618820000000  0.4752430000000 1.0
C      1  0.5367050000000  0.5084170000000  0.5488170000000 1.0
C      1  0.5422620000000  0.5417780000000  0.4729600000000 1.0
C      1  0.4760270000000  0.5316000000000  0.5017370000000 1.0
C      1  0.4804730000000  0.4870000000000  0.4704580000000 1.0
C      1  0.4828020000000  0.4777980000000  0.5267640000000 1.0
C      1  0.5289790000000  0.4590900000000  0.5250320000000 1.0
C      1  0.5394500000000  0.5435390000000  0.5283940000000 1.0
C      1  0.5386180000000  0.5087450000000  0.4507310000000 1.0
C      1  0.4117830000000  0.4590820000000  0.5086270000000 1.0
C      1  0.4112460000000  0.5089260000000  0.5114850000000 1.0
C      1  0.4279080000000  0.4856570000000  0.4702190000000 1.0
C      1  0.5767640000000  0.5105990000000  0.5167610000000 1.0
C      1  0.5772990000000  0.5054100000000  0.4828760000000 1.0
C      1  0.5712330000000  0.4789890000000  0.5039960000000 1.0
C      1  0.5547050000000  0.4672340000000  0.5291400000000 1.0
C      1  0.5640180000000  0.5403730000000  0.5168760000000 1.0
C      1  0.5612090000000  0.4947870000000  0.4572290000000 1.0
C      1  0.4942960000000  0.5352850000000  0.4624010000000 1.0
C      1  0.4865370000000  0.4553030000000  0.4939260000000 1.0
C      1  0.4881230000000  0.5238770000000  0.5445560000000 1.0
C      1  0.5567100000000  0.4719590000000  0.4758180000000 1.0
C      1  0.5592380000000  0.4952050000000  0.5384070000000 1.0
C      1  0.5653520000000  0.5350930000000  0.4874890000000 1.0
C      1  0.5320020000000  0.5653330000000  0.4605940000000 1.0
C      1  0.5140930000000  0.4512020000000  0.4547380000000 1.0
C      1  0.5220650000000  0.5022060000000  0.5725630000000 1.0
C      1  0.5223190000000  0.4400280000000  0.4309620000000 1.0
C      1  0.5320820000000  0.4935610000000  0.5961380000000 1.0
C      1  0.5456770000000  0.5882440000000  0.4560870000000 1.0
C      1  0.4726490000000  0.5568530000000  0.5031910000000 1.0
C      1  0.4539150000000  0.4719700000000  0.4604350000000 1.0
C      1  0.4835580000000  0.4785830000000  0.5540390000000 1.0
C      1  0.5128550000000  0.5045040000000  0.5007510000000 1.0
C      1  0.4100170000000  0.4854180000000  0.4936610000000 1.0
C      1  0.4477430000000  0.4950210000000  0.5035540000000 1.0
C      1  0.4804660000000  0.4984360000000  0.4998290000000 1.0
END
