TITL C-2782233-7966-106 -0.00181961953461315 125000 -1168.97403739071 0 0 199 (C1) n - 1
REM
REM in /home/nfs/bkarasulu/CARBON/AIRSS/Generating-Clusters/REBO/Higher-Symm/SD-CG/HFTN-CG
REM
REM
REM
REM
REM
REM ./C.cell (12c818d87b63d06a65506943cc24bca4)
REM
REM compiler GCC version 9.2.1 20190827 (Red Hat 9.2.1-1)
REM options -cpp -mtune=generic -march=x86-64 -g -O0 -fpre-include=/usr/include/finclude/math-vector-fortran.h
REM seed 1607693071 1430412267 -825936845 -1598381594 2144537219 649591671 730379832 -1288089095 -57712128 -1126835421 -1383896514 1529737467 951197773 -1249621823 -797797932 1084229954 -670229315 -1332940519 -1907042701 1313927095 257930280 1209018010 1583993749 753337689 -1619130573 -118428658 -2073768643 803623176 637804364 1071057610 -445746269 124718013 -168154937
REM
CELL 1.54180   50.00000   50.00000   50.00000   90.00000   90.00000   90.00000
LATT -1
SFAC C  
C      1  0.5896410000000  0.5181220000000  0.4335870000000 1.0
C      1  0.4129960000000  0.4771590000000  0.5620310000000 1.0
C      1  0.5135750000000  0.5257550000000  0.4627630000000 1.0
C      1  0.4816070000000  0.4765040000000  0.5372590000000 1.0
C      1  0.4923970000000  0.3791310000000  0.5149240000000 1.0
C      1  0.5169200000000  0.6202370000000  0.4865860000000 1.0
C      1  0.4581650000000  0.4777790000000  0.4062090000000 1.0
C      1  0.5347910000000  0.5200550000000  0.5915590000000 1.0
C      1  0.6062220000000  0.5156660000000  0.4794170000000 1.0
C      1  0.3888580000000  0.4890140000000  0.5289880000000 1.0
C      1  0.4763370000000  0.4349900000000  0.4227790000000 1.0
C      1  0.5191810000000  0.5657020000000  0.5728020000000 1.0
C      1  0.4354480000000  0.5013070000000  0.4848720000000 1.0
C      1  0.5639820000000  0.4924270000000  0.5203960000000 1.0
C      1  0.5724230000000  0.4921090000000  0.5825890000000 1.0
C      1  0.4256840000000  0.5045970000000  0.4286300000000 1.0
C      1  0.4656820000000  0.3915790000000  0.4686540000000 1.0
C      1  0.5616620000000  0.6184970000000  0.5408000000000 1.0
C      1  0.4427810000000  0.4563060000000  0.4190060000000 1.0
C      1  0.5471930000000  0.5373370000000  0.5710940000000 1.0
C      1  0.5117900000000  0.5618200000000  0.4883130000000 1.0
C      1  0.4885210000000  0.4397130000000  0.5170550000000 1.0
C      1  0.5428160000000  0.5879890000000  0.5799420000000 1.0
C      1  0.4591460000000  0.4086530000000  0.4106430000000 1.0
C      1  0.4608660000000  0.4515260000000  0.5336660000000 1.0
C      1  0.5366390000000  0.5471440000000  0.4693470000000 1.0
C      1  0.3883890000000  0.4731790000000  0.4774580000000 1.0
C      1  0.6063120000000  0.5275450000000  0.5316370000000 1.0
C      1  0.5225060000000  0.4710520000000  0.5968520000000 1.0
C      1  0.4721170000000  0.5257040000000  0.4095210000000 1.0
C      1  0.5966320000000  0.5350230000000  0.5056820000000 1.0
C      1  0.3939780000000  0.4644250000000  0.5061130000000 1.0
C      1  0.4778970000000  0.5413240000000  0.5707410000000 1.0
C      1  0.5182220000000  0.4549660000000  0.4357860000000 1.0
C      1  0.5837400000000  0.5702530000000  0.5357560000000 1.0
C      1  0.4238180000000  0.4400810000000  0.4755320000000 1.0
C      1  0.5251650000000  0.5312300000000  0.4111980000000 1.0
C      1  0.4731260000000  0.4693390000000  0.5885610000000 1.0
C      1  0.4462170000000  0.4474150000000  0.4480310000000 1.0
C      1  0.5580610000000  0.5521930000000  0.5418910000000 1.0
C      1  0.4995260000000  0.5181040000000  0.3968220000000 1.0
C      1  0.4973390000000  0.4817930000000  0.6040370000000 1.0
C      1  0.4480640000000  0.5839210000000  0.4698940000000 1.0
C      1  0.5417190000000  0.4021880000000  0.5174150000000 1.0
C      1  0.5915370000000  0.4755260000000  0.4328270000000 1.0
C      1  0.4104140000000  0.5260550000000  0.5713510000000 1.0
C      1  0.5485960000000  0.4489960000000  0.4210150000000 1.0
C      1  0.4490120000000  0.5558800000000  0.5813490000000 1.0
C      1  0.4720330000000  0.5549660000000  0.4165230000000 1.0
C      1  0.5265890000000  0.4445790000000  0.5883720000000 1.0
C      1  0.5207930000000  0.6014280000000  0.4652180000000 1.0
C      1  0.4857920000000  0.3988090000000  0.5331960000000 1.0
C      1  0.5945600000000  0.5589970000000  0.4195710000000 1.0
C      1  0.4065820000000  0.4355960000000  0.5834520000000 1.0
C      1  0.4696010000000  0.5413510000000  0.4925920000000 1.0
C      1  0.5285960000000  0.4612420000000  0.5073070000000 1.0
C      1  0.4253850000000  0.4989210000000  0.5853500000000 1.0
C      1  0.5723320000000  0.4970200000000  0.4143710000000 1.0
C      1  0.4229910000000  0.4796190000000  0.4446810000000 1.0
C      1  0.5832140000000  0.5164240000000  0.5622800000000 1.0
C      1  0.4830820000000  0.4242770000000  0.4536370000000 1.0
C      1  0.5201210000000  0.5867460000000  0.5474240000000 1.0
C      1  0.4385520000000  0.3930180000000  0.4867170000000 1.0
C      1  0.5731930000000  0.6150970000000  0.5097840000000 1.0
C      1  0.4677560000000  0.6025040000000  0.4663430000000 1.0
C      1  0.5263210000000  0.3870510000000  0.5344180000000 1.0
C      1  0.5627870000000  0.5098880000000  0.4509380000000 1.0
C      1  0.4343040000000  0.4937240000000  0.5468390000000 1.0
C      1  0.4691980000000  0.5057410000000  0.5318200000000 1.0
C      1  0.5244130000000  0.4954190000000  0.4682060000000 1.0
C      1  0.4789080000000  0.4450240000000  0.5686410000000 1.0
C      1  0.5211320000000  0.5546260000000  0.4334580000000 1.0
C      1  0.5757610000000  0.4690480000000  0.5375870000000 1.0
C      1  0.4252090000000  0.5217320000000  0.4647520000000 1.0
C      1  0.4162290000000  0.4969180000000  0.5115660000000 1.0
C      1  0.5794770000000  0.5010820000000  0.4937010000000 1.0
C      1  0.4743160000000  0.5135100000000  0.4527800000000 1.0
C      1  0.5299360000000  0.4855610000000  0.5520520000000 1.0
C      1  0.4805370000000  0.5762650000000  0.4252220000000 1.0
C      1  0.5339590000000  0.4295260000000  0.5669400000000 1.0
C      1  0.5806030000000  0.4297720000000  0.4577800000000 1.0
C      1  0.4169490000000  0.5671210000000  0.5404750000000 1.0
C      1  0.5361550000000  0.4047100000000  0.4574370000000 1.0
C      1  0.4637760000000  0.5895750000000  0.5339850000000 1.0
C      1  0.5475400000000  0.5269760000000  0.5087770000000 1.0
C      1  0.4627400000000  0.4750490000000  0.4973960000000 1.0
C      1  0.5023740000000  0.5557080000000  0.5987320000000 1.0
C      1  0.4950760000000  0.4465010000000  0.3999930000000 1.0
C      1  0.5769030000000  0.5572290000000  0.5071320000000 1.0
C      1  0.4216470000000  0.4443090000000  0.5068900000000 1.0
C      1  0.5929910000000  0.4842630000000  0.5574320000000 1.0
C      1  0.3991800000000  0.5114150000000  0.4482960000000 1.0
C      1  0.4505300000000  0.4367170000000  0.5602100000000 1.0
C      1  0.5502120000000  0.5621420000000  0.4422730000000 1.0
C      1  0.5463110000000  0.4785020000000  0.4115600000000 1.0
C      1  0.4478870000000  0.5240160000000  0.5902210000000 1.0
C      1  0.5212880000000  0.4307190000000  0.4132800000000 1.0
C      1  0.4786710000000  0.5727840000000  0.5809670000000 1.0
C      1  0.5611790000000  0.4155630000000  0.4973090000000 1.0
C      1  0.4296470000000  0.5795810000000  0.4946150000000 1.0
C      1  0.5418490000000  0.4910910000000  0.5835760000000 1.0
C      1  0.4492710000000  0.5044330000000  0.4126160000000 1.0
C      1  0.6141060000000  0.5028710000000  0.5408850000000 1.0
C      1  0.3801830000000  0.4974990000000  0.4647340000000 1.0
C      1  0.4959040000000  0.4715290000000  0.5069900000000 1.0
C      1  0.5170410000000  0.5340750000000  0.5015240000000 1.0
C      1  0.6051660000000  0.5335230000000  0.4522700000000 1.0
C      1  0.3817110000000  0.4670270000000  0.5538850000000 1.0
C      1  0.4135110000000  0.5278910000000  0.5051090000000 1.0
C      1  0.5863330000000  0.4686320000000  0.4902630000000 1.0
C      1  0.5472830000000  0.5869090000000  0.4692730000000 1.0
C      1  0.4613070000000  0.4119960000000  0.5262140000000 1.0
C      1  0.5683530000000  0.4785130000000  0.4562160000000 1.0
C      1  0.4276040000000  0.5254280000000  0.5422710000000 1.0
C      1  0.5126180000000  0.4156000000000  0.4399450000000 1.0
C      1  0.4876870000000  0.5903190000000  0.5574780000000 1.0
C      1  0.5032330000000  0.4920600000000  0.3872590000000 1.0
C      1  0.4925860000000  0.5087780000000  0.6123820000000 1.0
C      1  0.5676100000000  0.5771800000000  0.5885710000000 1.0
C      1  0.4357560000000  0.4149120000000  0.3967510000000 1.0
C      1  0.4671840000000  0.3991890000000  0.4374480000000 1.0
C      1  0.5419630000000  0.6093590000000  0.5583120000000 1.0
C      1  0.3999620000000  0.5520640000000  0.5211110000000 1.0
C      1  0.5942450000000  0.4392980000000  0.4819750000000 1.0
C      1  0.4666610000000  0.5626240000000  0.5169380000000 1.0
C      1  0.5175650000000  0.4610290000000  0.4680200000000 1.0
C      1  0.5241290000000  0.4585030000000  0.5402690000000 1.0
C      1  0.4852960000000  0.5389550000000  0.4691000000000 1.0
C      1  0.4917630000000  0.6055470000000  0.5269440000000 1.0
C      1  0.5114280000000  0.4079270000000  0.4762850000000 1.0
C      1  0.5868760000000  0.5490990000000  0.4696480000000 1.0
C      1  0.4083640000000  0.4551140000000  0.5360830000000 1.0
C      1  0.5607440000000  0.4109630000000  0.4670950000000 1.0
C      1  0.4343110000000  0.5845330000000  0.5254130000000 1.0
C      1  0.5530750000000  0.5725990000000  0.4980470000000 1.0
C      1  0.4521480000000  0.4317010000000  0.5022240000000 1.0
C      1  0.5902390000000  0.4243840000000  0.5077490000000 1.0
C      1  0.4009860000000  0.5630740000000  0.4910740000000 1.0
C      1  0.5862520000000  0.5992530000000  0.5345300000000 1.0
C      1  0.4434750000000  0.4173010000000  0.4637840000000 1.0
C      1  0.5597490000000  0.4489070000000  0.4997170000000 1.0
C      1  0.4375030000000  0.5475770000000  0.4941000000000 1.0
C      1  0.5077750000000  0.5036090000000  0.5672480000000 1.0
C      1  0.4853860000000  0.4973720000000  0.4279000000000 1.0
C      1  0.6008880000000  0.4855930000000  0.4642170000000 1.0
C      1  0.3949360000000  0.5162080000000  0.5427800000000 1.0
C      1  0.5378990000000  0.4950280000000  0.4366460000000 1.0
C      1  0.4575290000000  0.5098570000000  0.5635550000000 1.0
C      1  0.5068430000000  0.5344510000000  0.5654280000000 1.0
C      1  0.4862660000000  0.4661700000000  0.4334770000000 1.0
C      1  0.4077270000000  0.4608700000000  0.4611540000000 1.0
C      1  0.5953630000000  0.5470750000000  0.5553930000000 1.0
C      1  0.5737990000000  0.5524260000000  0.5785430000000 1.0
C      1  0.4263590000000  0.4402700000000  0.4021310000000 1.0
C      1  0.4657290000000  0.5176330000000  0.6145720000000 1.0
C      1  0.5300310000000  0.4830330000000  0.3860990000000 1.0
C      1  0.4311590000000  0.4460460000000  0.5791690000000 1.0
C      1  0.5690470000000  0.5505930000000  0.4230380000000 1.0
C      1  0.5642990000000  0.5195120000000  0.5370150000000 1.0
C      1  0.4457200000000  0.4734820000000  0.4692880000000 1.0
C      1  0.5417160000000  0.4885640000000  0.4967150000000 1.0
C      1  0.4568630000000  0.5140140000000  0.5039970000000 1.0
C      1  0.4390450000000  0.3957050000000  0.5136150000000 1.0
C      1  0.5681290000000  0.6066780000000  0.4836710000000 1.0
C      1  0.4913120000000  0.3870230000000  0.4823970000000 1.0
C      1  0.5187860000000  0.6080430000000  0.5121990000000 1.0
C      1  0.4494350000000  0.5338400000000  0.4522060000000 1.0
C      1  0.5592630000000  0.4413830000000  0.5486440000000 1.0
C      1  0.4220460000000  0.5565000000000  0.5665480000000 1.0
C      1  0.5759830000000  0.4458540000000  0.4346220000000 1.0
C      1  0.5271010000000  0.5074570000000  0.5286660000000 1.0
C      1  0.4820000000000  0.4960880000000  0.4787690000000 1.0
C      1  0.4717620000000  0.4398050000000  0.4807720000000 1.0
C      1  0.5354770000000  0.5835230000000  0.5176220000000 1.0
C      1  0.5379900000000  0.4299500000000  0.5273210000000 1.0
C      1  0.4504920000000  0.5607440000000  0.4537420000000 1.0
C      1  0.5286400000000  0.5364660000000  0.5424940000000 1.0
C      1  0.4850790000000  0.4667040000000  0.4657290000000 1.0
C      1  0.5571510000000  0.5273070000000  0.4108490000000 1.0
C      1  0.4415220000000  0.4704600000000  0.5909740000000 1.0
C      1  0.5500710000000  0.4653230000000  0.4738720000000 1.0
C      1  0.4465780000000  0.5378870000000  0.5250660000000 1.0
C      1  0.4931490000000  0.5781470000000  0.5066160000000 1.0
C      1  0.5050220000000  0.4357830000000  0.4874210000000 1.0
C      1  0.5003520000000  0.3564980000000  0.4945800000000 1.0
C      1  0.5073300000000  0.6453260000000  0.4826000000000 1.0
C      1  0.4840480000000  0.4721120000000  0.3937010000000 1.0
C      1  0.5114920000000  0.5289240000000  0.6051130000000 1.0
C      1  0.5883700000000  0.4385430000000  0.5321430000000 1.0
C      1  0.4015880000000  0.5442830000000  0.4707960000000 1.0
C      1  0.4931180000000  0.5935300000000  0.4504630000000 1.0
C      1  0.5111010000000  0.4079600000000  0.5539240000000 1.0
C      1  0.5123240000000  0.5125210000000  0.4342130000000 1.0
C      1  0.4816300000000  0.4897130000000  0.5661080000000 1.0
C      1  0.4428890000000  0.4776790000000  0.5211110000000 1.0
C      1  0.5626990000000  0.5278570000000  0.4796260000000 1.0
C      1  0.5027560000000  0.5635100000000  0.4558080000000 1.0
C      1  0.4997600000000  0.4377350000000  0.5480810000000 1.0
C      1  0.5041570000000  0.5044040000000  0.5032700000000 1.0
END
