TITL C-2782228-2999-1088 6.08260217197688e-08 125000 -187.163674212635 0 0 39 (D3) n - 1
REM
REM in /home/nfs/bkarasulu/CARBON/AIRSS/Generating-Clusters/REBO/Higher-Symm/SD-CG/HFTN-CG
REM
REM
REM
REM
REM
REM ./C.cell (12c818d87b63d06a65506943cc24bca4)
REM
REM compiler GCC version 9.2.1 20190827 (Red Hat 9.2.1-1)
REM options -cpp -mtune=generic -march=x86-64 -g -O0 -fpre-include=/usr/include/finclude/math-vector-fortran.h
REM seed -1933576244 -2112690940 -626518828 354389887 -1772111508 -618116990 -895496845 712096892 -1263762055 1246650352 738716946 -1039847359 -728725438 -1192684740 1102037608 356370202 -682742861 -240355927 602030786 1594137261 601583099 -1934304817 -1058762228 514665936 1547021029 -912570879 -850868908 -508908107 -1413997025 1574051109 1145372176 -542471087 197455091
REM
CELL 1.54180   50.00000   50.00000   50.00000   90.00000   90.00000   90.00000
LATT -1
SFAC C  
C      1  0.5784260000000  0.4669570000000  0.5284040000000 1.0
C      1  0.4325200000000  0.4481410000000  0.5288960000000 1.0
C      1  0.4892450000000  0.5847150000000  0.5278600000000 1.0
C      1  0.5783930000000  0.5328800000000  0.4697150000000 1.0
C      1  0.4321920000000  0.5520220000000  0.4706130000000 1.0
C      1  0.4893130000000  0.4152600000000  0.4708990000000 1.0
C      1  0.5085540000000  0.6111250000000  0.5278080000000 1.0
C      1  0.5914110000000  0.4369290000000  0.5284500000000 1.0
C      1  0.3999610000000  0.4513100000000  0.5284970000000 1.0
C      1  0.5087290000000  0.3889290000000  0.4708300000000 1.0
C      1  0.5915840000000  0.5628180000000  0.4695470000000 1.0
C      1  0.3996330000000  0.5488390000000  0.4703400000000 1.0
C      1  0.5267870000000  0.4831470000000  0.4533270000000 1.0
C      1  0.4718270000000  0.4845480000000  0.4536180000000 1.0
C      1  0.5004160000000  0.5310380000000  0.4529920000000 1.0
C      1  0.5273780000000  0.5172160000000  0.5449370000000 1.0
C      1  0.4722410000000  0.5153550000000  0.5453290000000 1.0
C      1  0.5010870000000  0.4687700000000  0.5455770000000 1.0
C      1  0.6105620000000  0.4623660000000  0.5324710000000 1.0
C      1  0.4129000000000  0.4223580000000  0.5334350000000 1.0
C      1  0.4768730000000  0.6147940000000  0.5313930000000 1.0
C      1  0.6105510000000  0.5372360000000  0.4655740000000 1.0
C      1  0.4126200000000  0.5780440000000  0.4674450000000 1.0
C      1  0.4770450000000  0.3851340000000  0.4674060000000 1.0
C      1  0.4824400000000  0.4695470000000  0.4743250000000 1.0
C      1  0.4823200000000  0.5300600000000  0.4739210000000 1.0
C      1  0.5347860000000  0.4999060000000  0.4738590000000 1.0
C      1  0.4825740000000  0.5303980000000  0.5245120000000 1.0
C      1  0.4826940000000  0.4698860000000  0.5249160000000 1.0
C      1  0.5350400000000  0.5002440000000  0.5244510000000 1.0
C      1  0.5569950000000  0.4833990000000  0.5264510000000 1.0
C      1  0.4573040000000  0.4588820000000  0.5269300000000 1.0
C      1  0.4859500000000  0.5578840000000  0.5262060000000 1.0
C      1  0.5568520000000  0.5165920000000  0.4717620000000 1.0
C      1  0.4569540000000  0.5411730000000  0.4722470000000 1.0
C      1  0.4859180000000  0.4420760000000  0.4725910000000 1.0
C      1  0.5190820000000  0.5000440000000  0.4992340000000 1.0
C      1  0.4903890000000  0.5165350000000  0.4992680000000 1.0
C      1  0.4904550000000  0.4834410000000  0.4994890000000 1.0
END
