TITL C-2782240-8521-1209 0.00390212320381624 125000 -522.715883831862 0 0 84 (C1) n - 1
REM
REM in /home/nfs/bkarasulu/CARBON/AIRSS/Generating-Clusters/REBO/Higher-Symm/SD-CG/HFTN-CG
REM
REM
REM
REM
REM
REM ./C.cell (12c818d87b63d06a65506943cc24bca4)
REM
REM compiler GCC version 9.2.1 20190827 (Red Hat 9.2.1-1)
REM options -cpp -mtune=generic -march=x86-64 -g -O0 -fpre-include=/usr/include/finclude/math-vector-fortran.h
REM seed 1956514781 -1538105973 -1922032398 -223015287 -377551917 648992286 -556452841 -1928762623 -1316703039 1664339702 -561731640 1929338772 -1147223980 -1722987575 -359951591 1474317997 -1882661384 -1346183798 1163232166 -31478735 -1886603431 320931473 1791155442 -1676505171 841900855 -1425631359 1026152630 1048230601 -825806165 1696629200 298406477 277868312 575811660
REM
CELL 1.54180   50.00000   50.00000   50.00000   90.00000   90.00000   90.00000
LATT -1
SFAC C  
C      1  0.5533870000000  0.4684550000000  0.4416050000000 1.0
C      1  0.5622230000000  0.4623470000000  0.5618070000000 1.0
C      1  0.5567360000000  0.5652720000000  0.5054430000000 1.0
C      1  0.4379540000000  0.4688420000000  0.4379480000000 1.0
C      1  0.4466710000000  0.4645180000000  0.5545300000000 1.0
C      1  0.4433400000000  0.5674750000000  0.5011290000000 1.0
C      1  0.5216240000000  0.4541510000000  0.4953150000000 1.0
C      1  0.5149660000000  0.5215880000000  0.5467140000000 1.0
C      1  0.5115150000000  0.5282710000000  0.4614500000000 1.0
C      1  0.4881980000000  0.4536800000000  0.4927380000000 1.0
C      1  0.4825750000000  0.5228120000000  0.5395040000000 1.0
C      1  0.4796030000000  0.5236240000000  0.4578500000000 1.0
C      1  0.4812330000000  0.4407220000000  0.4620960000000 1.0
C      1  0.4855880000000  0.5043750000000  0.5675520000000 1.0
C      1  0.4835590000000  0.5568380000000  0.4602580000000 1.0
C      1  0.5138140000000  0.4399020000000  0.4654070000000 1.0
C      1  0.5189890000000  0.5005600000000  0.5724150000000 1.0
C      1  0.5169290000000  0.5612960000000  0.4639720000000 1.0
C      1  0.5377080000000  0.5356440000000  0.5764080000000 1.0
C      1  0.5358200000000  0.5434850000000  0.4336080000000 1.0
C      1  0.5407180000000  0.4165360000000  0.4966250000000 1.0
C      1  0.4639900000000  0.5377720000000  0.5715770000000 1.0
C      1  0.4616680000000  0.5446960000000  0.4290710000000 1.0
C      1  0.4664900000000  0.4201330000000  0.4930190000000 1.0
C      1  0.5662540000000  0.4987010000000  0.4752040000000 1.0
C      1  0.5778630000000  0.4740100000000  0.5185990000000 1.0
C      1  0.5705650000000  0.5222000000000  0.5189850000000 1.0
C      1  0.4272000000000  0.5018000000000  0.4702050000000 1.0
C      1  0.4306430000000  0.4750610000000  0.5115320000000 1.0
C      1  0.4289820000000  0.5244500000000  0.5146160000000 1.0
C      1  0.5332520000000  0.4587710000000  0.4239970000000 1.0
C      1  0.5414390000000  0.4539960000000  0.5791520000000 1.0
C      1  0.5386340000000  0.5869250000000  0.5028950000000 1.0
C      1  0.4567230000000  0.4574710000000  0.4199840000000 1.0
C      1  0.4673440000000  0.4573910000000  0.5724190000000 1.0
C      1  0.4644750000000  0.5859920000000  0.4979110000000 1.0
C      1  0.5700350000000  0.5225920000000  0.4894410000000 1.0
C      1  0.5697650000000  0.4704550000000  0.4886100000000 1.0
C      1  0.5756820000000  0.4985050000000  0.5335960000000 1.0
C      1  0.4267870000000  0.5259380000000  0.4852030000000 1.0
C      1  0.4268040000000  0.4755690000000  0.4835480000000 1.0
C      1  0.4284570000000  0.4993810000000  0.5280090000000 1.0
C      1  0.5133570000000  0.5542000000000  0.4199530000000 1.0
C      1  0.5163920000000  0.4026530000000  0.4996240000000 1.0
C      1  0.5138130000000  0.5415910000000  0.5905560000000 1.0
C      1  0.4862480000000  0.5537230000000  0.4180800000000 1.0
C      1  0.4896880000000  0.4036320000000  0.4936900000000 1.0
C      1  0.4869100000000  0.5433780000000  0.5872370000000 1.0
C      1  0.5501460000000  0.5080580000000  0.5765240000000 1.0
C      1  0.5483010000000  0.5569420000000  0.4576860000000 1.0
C      1  0.5431770000000  0.4312480000000  0.4706410000000 1.0
C      1  0.4534850000000  0.5096510000000  0.5711620000000 1.0
C      1  0.4512610000000  0.5580420000000  0.4540500000000 1.0
C      1  0.4512390000000  0.4331240000000  0.4697900000000 1.0
C      1  0.4622690000000  0.5477780000000  0.5432270000000 1.0
C      1  0.4586320000000  0.5149810000000  0.4344650000000 1.0
C      1  0.4663900000000  0.4404830000000  0.5152610000000 1.0
C      1  0.5378640000000  0.5454730000000  0.5479630000000 1.0
C      1  0.5336950000000  0.5143140000000  0.4406580000000 1.0
C      1  0.5512960000000  0.4470670000000  0.5063260000000 1.0
C      1  0.5097690000000  0.4482210000000  0.4352460000000 1.0
C      1  0.5179970000000  0.4687330000000  0.5804220000000 1.0
C      1  0.5159260000000  0.5840440000000  0.4871950000000 1.0
C      1  0.4810230000000  0.4490100000000  0.4302830000000 1.0
C      1  0.4896880000000  0.4738090000000  0.5763340000000 1.0
C      1  0.4872640000000  0.5801490000000  0.4826720000000 1.0
C      1  0.5674170000000  0.4916640000000  0.5610540000000 1.0
C      1  0.5631040000000  0.5499760000000  0.4809110000000 1.0
C      1  0.5610300000000  0.4518220000000  0.4640840000000 1.0
C      1  0.4377060000000  0.4925780000000  0.5551140000000 1.0
C      1  0.4353440000000  0.5528410000000  0.4768790000000 1.0
C      1  0.4334270000000  0.4547470000000  0.4637770000000 1.0
C      1  0.5532140000000  0.4960190000000  0.4497710000000 1.0
C      1  0.5664150000000  0.4516860000000  0.5353860000000 1.0
C      1  0.5577500000000  0.5469760000000  0.5280020000000 1.0
C      1  0.4377940000000  0.4976410000000  0.4430950000000 1.0
C      1  0.4455500000000  0.4552740000000  0.5270760000000 1.0
C      1  0.4416820000000  0.5493630000000  0.5238080000000 1.0
C      1  0.5182680000000  0.4844310000000  0.4988740000000 1.0
C      1  0.5162360000000  0.5085970000000  0.5189280000000 1.0
C      1  0.5154690000000  0.5139290000000  0.4878470000000 1.0
C      1  0.4784210000000  0.4820680000000  0.4965630000000 1.0
C      1  0.4764780000000  0.5081510000000  0.5146340000000 1.0
C      1  0.4726670000000  0.5097300000000  0.4832040000000 1.0
END
