TITL C-2782226-7400-1263 0.00247230372179632 125000 -1000.4724513648 0 0 171 (C1) n - 1
REM
REM in /home/nfs/bkarasulu/CARBON/AIRSS/Generating-Clusters/REBO/Higher-Symm/SD-CG/HFTN-CG
REM
REM
REM
REM
REM
REM ./C.cell (12c818d87b63d06a65506943cc24bca4)
REM
REM compiler GCC version 9.2.1 20190827 (Red Hat 9.2.1-1)
REM options -cpp -mtune=generic -march=x86-64 -g -O0 -fpre-include=/usr/include/finclude/math-vector-fortran.h
REM seed 347283756 1944677648 -1610018569 774739518 1838202227 -1062024441 1532710535 1629152370 49598776 -1892327055 -1924095617 1603752660 -715738633 -1490521222 -1361214741 75192080 -1055636888 1871431258 -1871679122 894594720 753306708 1115716248 1140990470 1708517027 1733665860 -677914127 86584175 -721205154 -1342544159 62250487 -392689461 1293516481 1428763246
REM
CELL 1.54180   50.00000   50.00000   50.00000   90.00000   90.00000   90.00000
LATT -1
SFAC C  
C      1  0.4240180000000  0.5558030000000  0.4535500000000 1.0
C      1  0.5363490000000  0.5935550000000  0.4535760000000 1.0
C      1  0.5952160000000  0.4992590000000  0.4517730000000 1.0
C      1  0.5274560000000  0.4046500000000  0.4581630000000 1.0
C      1  0.4204650000000  0.4404860000000  0.4536690000000 1.0
C      1  0.4967540000000  0.5939230000000  0.5050280000000 1.0
C      1  0.5858930000000  0.5312070000000  0.5060650000000 1.0
C      1  0.5590470000000  0.4280680000000  0.5082280000000 1.0
C      1  0.4378970000000  0.4013030000000  0.4942640000000 1.0
C      1  0.4153180000000  0.5208630000000  0.5043450000000 1.0
C      1  0.4674220000000  0.5210060000000  0.5123640000000 1.0
C      1  0.5065920000000  0.5387830000000  0.5106830000000 1.0
C      1  0.5319820000000  0.5053210000000  0.5112920000000 1.0
C      1  0.5239490000000  0.4565920000000  0.4942660000000 1.0
C      1  0.4790400000000  0.4791130000000  0.5149380000000 1.0
C      1  0.5148240000000  0.4775840000000  0.5559500000000 1.0
C      1  0.4830210000000  0.4808850000000  0.5540000000000 1.0
C      1  0.4776760000000  0.5114160000000  0.5544800000000 1.0
C      1  0.5038480000000  0.5266240000000  0.5491680000000 1.0
C      1  0.5268590000000  0.5063670000000  0.5568970000000 1.0
C      1  0.5693270000000  0.5694730000000  0.5378950000000 1.0
C      1  0.5837900000000  0.4583620000000  0.5401510000000 1.0
C      1  0.4838470000000  0.3996020000000  0.5365540000000 1.0
C      1  0.4118390000000  0.4885090000000  0.5438060000000 1.0
C      1  0.4545510000000  0.5932650000000  0.5389920000000 1.0
C      1  0.5734130000000  0.5115650000000  0.5902070000000 1.0
C      1  0.5357840000000  0.4078730000000  0.5729810000000 1.0
C      1  0.4410960000000  0.4361000000000  0.5854030000000 1.0
C      1  0.4258890000000  0.5554510000000  0.5846510000000 1.0
C      1  0.5153860000000  0.5867180000000  0.5842890000000 1.0
C      1  0.4951460000000  0.4409200000000  0.4716440000000 1.0
C      1  0.4446660000000  0.4831120000000  0.4831290000000 1.0
C      1  0.4695850000000  0.5532040000000  0.4759280000000 1.0
C      1  0.5379930000000  0.5411810000000  0.4695370000000 1.0
C      1  0.5502030000000  0.4790080000000  0.4693410000000 1.0
C      1  0.5576310000000  0.5258290000000  0.5192290000000 1.0
C      1  0.5422310000000  0.4537500000000  0.5192610000000 1.0
C      1  0.4675570000000  0.4483020000000  0.5092500000000 1.0
C      1  0.4382910000000  0.5129070000000  0.5224930000000 1.0
C      1  0.4930890000000  0.5672230000000  0.5186600000000 1.0
C      1  0.3997180000000  0.5447570000000  0.5153310000000 1.0
C      1  0.5153710000000  0.6180210000000  0.5145400000000 1.0
C      1  0.6094020000000  0.5263660000000  0.5266090000000 1.0
C      1  0.5550060000000  0.4033030000000  0.5282190000000 1.0
C      1  0.4283100000000  0.4078970000000  0.5200250000000 1.0
C      1  0.4969860000000  0.4241060000000  0.4241210000000 1.0
C      1  0.4308500000000  0.4777570000000  0.4294290000000 1.0
C      1  0.4669370000000  0.5581930000000  0.4280000000000 1.0
C      1  0.5440160000000  0.5514330000000  0.4240290000000 1.0
C      1  0.5630900000000  0.4739260000000  0.4245140000000 1.0
C      1  0.5633110000000  0.4971710000000  0.4097790000000 1.0
C      1  0.5247520000000  0.4319830000000  0.4078900000000 1.0
C      1  0.4444230000000  0.4537610000000  0.4125130000000 1.0
C      1  0.4497680000000  0.5357950000000  0.4134190000000 1.0
C      1  0.5154660000000  0.5551730000000  0.4058920000000 1.0
C      1  0.5195480000000  0.4777670000000  0.6085370000000 1.0
C      1  0.4899780000000  0.4718660000000  0.6023300000000 1.0
C      1  0.4745620000000  0.4961490000000  0.6053630000000 1.0
C      1  0.4940430000000  0.5191620000000  0.6111410000000 1.0
C      1  0.5220000000000  0.5062150000000  0.6113480000000 1.0
C      1  0.4647540000000  0.4543570000000  0.5428690000000 1.0
C      1  0.4499870000000  0.5279820000000  0.5476670000000 1.0
C      1  0.5066640000000  0.5570960000000  0.5461660000000 1.0
C      1  0.5557870000000  0.5118570000000  0.5465830000000 1.0
C      1  0.5257290000000  0.4483030000000  0.5439690000000 1.0
C      1  0.5060210000000  0.4228070000000  0.5360590000000 1.0
C      1  0.4337560000000  0.4667190000000  0.5494060000000 1.0
C      1  0.4496310000000  0.5602250000000  0.5423200000000 1.0
C      1  0.5371930000000  0.5681950000000  0.5450960000000 1.0
C      1  0.5738990000000  0.4863420000000  0.5484050000000 1.0
C      1  0.4495660000000  0.6036800000000  0.5127980000000 1.0
C      1  0.5748420000000  0.5775950000000  0.5113400000000 1.0
C      1  0.5947420000000  0.4585810000000  0.5140800000000 1.0
C      1  0.4824420000000  0.3851950000000  0.5117620000000 1.0
C      1  0.3957310000000  0.4811290000000  0.5211820000000 1.0
C      1  0.5552330000000  0.5052600000000  0.4480890000000 1.0
C      1  0.5155500000000  0.4438120000000  0.4446310000000 1.0
C      1  0.4494960000000  0.4678180000000  0.4560510000000 1.0
C      1  0.4676280000000  0.5331830000000  0.4500870000000 1.0
C      1  0.5178650000000  0.5538140000000  0.4455700000000 1.0
C      1  0.5537490000000  0.5304310000000  0.5740790000000 1.0
C      1  0.5442090000000  0.4373860000000  0.5696080000000 1.0
C      1  0.4667210000000  0.4322580000000  0.5687820000000 1.0
C      1  0.4346170000000  0.5267260000000  0.5780070000000 1.0
C      1  0.4922810000000  0.5693200000000  0.5726390000000 1.0
C      1  0.4986230000000  0.5339860000000  0.3855570000000 1.0
C      1  0.5248890000000  0.5225760000000  0.4040980000000 1.0
C      1  0.5220600000000  0.4934030000000  0.3885640000000 1.0
C      1  0.4950330000000  0.4859380000000  0.3864440000000 1.0
C      1  0.4794500000000  0.5123230000000  0.3834100000000 1.0
C      1  0.5137330000000  0.6038890000000  0.4771780000000 1.0
C      1  0.5996340000000  0.5102830000000  0.4825510000000 1.0
C      1  0.5508340000000  0.4149470000000  0.4808560000000 1.0
C      1  0.4298720000000  0.4205870000000  0.4748360000000 1.0
C      1  0.4244940000000  0.5336550000000  0.4780540000000 1.0
C      1  0.5029710000000  0.5906340000000  0.4473700000000 1.0
C      1  0.5899270000000  0.5188920000000  0.4333280000000 1.0
C      1  0.5535180000000  0.4230880000000  0.4477530000000 1.0
C      1  0.4539970000000  0.4365420000000  0.4472270000000 1.0
C      1  0.4204820000000  0.5312360000000  0.4300320000000 1.0
C      1  0.4655120000000  0.5196370000000  0.5834670000000 1.0
C      1  0.4921610000000  0.5410320000000  0.5858280000000 1.0
C      1  0.5226530000000  0.5258040000000  0.5844250000000 1.0
C      1  0.5217290000000  0.4582860000000  0.5822970000000 1.0
C      1  0.4883240000000  0.4547360000000  0.5750960000000 1.0
C      1  0.5184390000000  0.3999820000000  0.5562690000000 1.0
C      1  0.4245660000000  0.4522360000000  0.5751950000000 1.0
C      1  0.4326020000000  0.5724370000000  0.5668990000000 1.0
C      1  0.5365950000000  0.5868750000000  0.5705150000000 1.0
C      1  0.5834770000000  0.4920590000000  0.5777100000000 1.0
C      1  0.4651660000000  0.3953720000000  0.4909340000000 1.0
C      1  0.3997080000000  0.4965270000000  0.4977440000000 1.0
C      1  0.4701260000000  0.6016980000000  0.4931160000000 1.0
C      1  0.5826720000000  0.5576540000000  0.4928430000000 1.0
C      1  0.5813360000000  0.4439600000000  0.4947850000000 1.0
C      1  0.4914190000000  0.5287590000000  0.4818430000000 1.0
C      1  0.5217130000000  0.5170530000000  0.4809580000000 1.0
C      1  0.5201860000000  0.4850810000000  0.4789910000000 1.0
C      1  0.4892520000000  0.4726210000000  0.4829020000000 1.0
C      1  0.4713110000000  0.5021120000000  0.4839560000000 1.0
C      1  0.4788970000000  0.4107240000000  0.4708260000000 1.0
C      1  0.4124380000000  0.4830500000000  0.4760280000000 1.0
C      1  0.4640650000000  0.5864270000000  0.4701410000000 1.0
C      1  0.5682440000000  0.5570080000000  0.4688150000000 1.0
C      1  0.5753770000000  0.4559400000000  0.4700860000000 1.0
C      1  0.5732420000000  0.4397430000000  0.5572410000000 1.0
C      1  0.4684900000000  0.4034040000000  0.5585590000000 1.0
C      1  0.4140490000000  0.5098150000000  0.5601450000000 1.0
C      1  0.4692950000000  0.5878760000000  0.5633830000000 1.0
C      1  0.5702010000000  0.5554540000000  0.5634820000000 1.0
C      1  0.5545220000000  0.4815580000000  0.5207650000000 1.0
C      1  0.4989100000000  0.4421490000000  0.5112350000000 1.0
C      1  0.4470360000000  0.4837390000000  0.5229520000000 1.0
C      1  0.4653530000000  0.5518020000000  0.5156250000000 1.0
C      1  0.5359000000000  0.5489530000000  0.5181760000000 1.0
C      1  0.4852200000000  0.5143680000000  0.4342650000000 1.0
C      1  0.5122320000000  0.5057520000000  0.4282570000000 1.0
C      1  0.5113300000000  0.4773660000000  0.4235220000000 1.0
C      1  0.4814480000000  0.4688630000000  0.4118420000000 1.0
C      1  0.4681990000000  0.5003530000000  0.4120150000000 1.0
C      1  0.5415520000000  0.6172250000000  0.5071430000000 1.0
C      1  0.6189950000000  0.5028150000000  0.5251460000000 1.0
C      1  0.5317290000000  0.3992120000000  0.5121270000000 1.0
C      1  0.4213570000000  0.4344940000000  0.5230500000000 1.0
C      1  0.4118050000000  0.5673480000000  0.5080470000000 1.0
C      1  0.4715500000000  0.4397650000000  0.4206030000000 1.0
C      1  0.4377760000000  0.5041820000000  0.4184220000000 1.0
C      1  0.4944970000000  0.5689590000000  0.4257360000000 1.0
C      1  0.5595040000000  0.5269410000000  0.4233170000000 1.0
C      1  0.5371480000000  0.4588770000000  0.4230970000000 1.0
C      1  0.4433760000000  0.5637450000000  0.4953240000000 1.0
C      1  0.5377270000000  0.5665920000000  0.4926560000000 1.0
C      1  0.5710590000000  0.4862360000000  0.4956880000000 1.0
C      1  0.5116630000000  0.4186230000000  0.4921060000000 1.0
C      1  0.4292550000000  0.4630810000000  0.5062260000000 1.0
C      1  0.4403410000000  0.5198740000000  0.4550530000000 1.0
C      1  0.5115200000000  0.5703360000000  0.4743530000000 1.0
C      1  0.5669910000000  0.5137930000000  0.4759700000000 1.0
C      1  0.5350190000000  0.4420330000000  0.4700190000000 1.0
C      1  0.4538930000000  0.4443220000000  0.4809190000000 1.0
C      1  0.4098590000000  0.4675000000000  0.4520750000000 1.0
C      1  0.4474560000000  0.5723500000000  0.4488410000000 1.0
C      1  0.5534970000000  0.5717850000000  0.4471030000000 1.0
C      1  0.5822670000000  0.4737430000000  0.4462770000000 1.0
C      1  0.5009650000000  0.4071080000000  0.4505510000000 1.0
C      1  0.5079880000000  0.3856510000000  0.4981910000000 1.0
C      1  0.3971950000000  0.4521960000000  0.5151490000000 1.0
C      1  0.4252300000000  0.5933430000000  0.5000360000000 1.0
C      1  0.5534630000000  0.5934590000000  0.4991850000000 1.0
C      1  0.6045210000000  0.4855090000000  0.5035140000000 1.0
C      1  0.4981210000000  0.5061830000000  0.5153390000000 1.0
END
