TITL C-2782231-7322-1075 0.00235067854042065 125000 -112.353397226178 0 0 22 (Ci) n - 1
REM
REM in /home/nfs/bkarasulu/CARBON/AIRSS/Generating-Clusters/REBO/Higher-Symm/SD-CG/HFTN-CG
REM
REM
REM
REM
REM
REM ./C.cell (12c818d87b63d06a65506943cc24bca4)
REM
REM compiler GCC version 9.2.1 20190827 (Red Hat 9.2.1-1)
REM options -cpp -mtune=generic -march=x86-64 -g -O0 -fpre-include=/usr/include/finclude/math-vector-fortran.h
REM seed -1061992868 -694878747 -1208763816 1674902226 1055411966 1758310545 2019350719 1910359930 636120148 1578147288 -1083925675 -443356365 -368063998 1640172307 941258794 2085582367 -214281289 744483666 -1273682495 -1913982331 15610019 -285840750 1745320698 -1603089887 1778062781 1268451678 395798333 1055772521 -479384157 -1760418719 -1607028076 -419866106 1763754428
REM
CELL 1.54180   50.00000   50.00000   50.00000   90.00000   90.00000   90.00000
LATT -1
SFAC C  
C      1  0.4898000000000  0.5151170000000  0.5573640000000 1.0
C      1  0.4604050000000  0.5151170000000  0.5427430000000 1.0
C      1  0.4435820000000  0.5151170000000  0.5145510000000 1.0
C      1  0.4446710000000  0.5151170000000  0.4817400000000 1.0
C      1  0.4633270000000  0.5151170000000  0.4547250000000 1.0
C      1  0.4936260000000  0.5151170000000  0.4420860000000 1.0
C      1  0.5259490000000  0.5151170000000  0.4478330000000 1.0
C      1  0.5500330000000  0.5151170000000  0.4701430000000 1.0
C      1  0.5582320000000  0.5151170000000  0.5019330000000 1.0
C      1  0.5479430000000  0.5151170000000  0.5331090000000 1.0
C      1  0.5224320000000  0.5151170000000  0.5537730000000 1.0
C      1  0.4740510000000  0.4848830000000  0.5521670000000 1.0
C      1  0.4499670000000  0.4848830000000  0.5298570000000 1.0
C      1  0.4417680000000  0.4848830000000  0.4980670000000 1.0
C      1  0.4520570000000  0.4848830000000  0.4668910000000 1.0
C      1  0.4775680000000  0.4848830000000  0.4462270000000 1.0
C      1  0.5102000000000  0.4848830000000  0.4426360000000 1.0
C      1  0.5395950000000  0.4848830000000  0.4572570000000 1.0
C      1  0.5564180000000  0.4848830000000  0.4854490000000 1.0
C      1  0.5553290000000  0.4848830000000  0.5182600000000 1.0
C      1  0.5366730000000  0.4848830000000  0.5452750000000 1.0
C      1  0.5063740000000  0.4848830000000  0.5579140000000 1.0
END
