TITL C-2782233-7966-544 -0.00578296462266132 125000 -522.33391596703 0 0 90 (D6) n - 1
REM
REM in /home/nfs/bkarasulu/CARBON/AIRSS/Generating-Clusters/REBO/Higher-Symm/SD-CG/HFTN-CG
REM
REM
REM
REM
REM
REM ./C.cell (12c818d87b63d06a65506943cc24bca4)
REM
REM compiler GCC version 9.2.1 20190827 (Red Hat 9.2.1-1)
REM options -cpp -mtune=generic -march=x86-64 -g -O0 -fpre-include=/usr/include/finclude/math-vector-fortran.h
REM seed -1124872987 -548313986 -1894594708 76287313 573608721 743917478 111226386 124327958 139035248 -1559962614 2002206840 1422670892 1760547455 -1195518620 -864293939 455441025 165661007 -1951348643 -1875002942 1580122352 1036564781 -1277032719 -702309223 -984614725 -69186251 -1532090690 -1121389178 1742336293 24336077 1683221265 -938360683 -440229482 548705762
REM
CELL 1.54180   50.00000   50.00000   50.00000   90.00000   90.00000   90.00000
LATT -1
SFAC C  
C      1  0.5795110000000  0.5254850000000  0.5092580000000 1.0
C      1  0.5177090000000  0.5816590000000  0.5095620000000 1.0
C      1  0.4380410000000  0.5565220000000  0.5098880000000 1.0
C      1  0.4204850000000  0.4745140000000  0.5092200000000 1.0
C      1  0.4822870000000  0.4183400000000  0.5095500000000 1.0
C      1  0.5619540000000  0.4434770000000  0.5099130000000 1.0
C      1  0.4200700000000  0.5253810000000  0.4890430000000 1.0
C      1  0.4823030000000  0.5816000000000  0.4897200000000 1.0
C      1  0.5618560000000  0.5561790000000  0.4894210000000 1.0
C      1  0.5799350000000  0.4746200000000  0.4890780000000 1.0
C      1  0.5177020000000  0.4184000000000  0.4897250000000 1.0
C      1  0.4381490000000  0.4438210000000  0.4893890000000 1.0
C      1  0.5115620000000  0.4685040000000  0.4675650000000 1.0
C      1  0.5339970000000  0.4941240000000  0.4677910000000 1.0
C      1  0.5220510000000  0.5260000000000  0.4677550000000 1.0
C      1  0.4884520000000  0.5314980000000  0.4675620000000 1.0
C      1  0.4660180000000  0.5058770000000  0.4677760000000 1.0
C      1  0.4779630000000  0.4740020000000  0.4677440000000 1.0
C      1  0.4885050000000  0.4679070000000  0.5312080000000 1.0
C      1  0.4669390000000  0.4942520000000  0.5313900000000 1.0
C      1  0.4779040000000  0.5264930000000  0.5311730000000 1.0
C      1  0.5114810000000  0.5320920000000  0.5312150000000 1.0
C      1  0.5330470000000  0.5057470000000  0.5314060000000 1.0
C      1  0.5220810000000  0.4735050000000  0.5311820000000 1.0
C      1  0.4985960000000  0.5573130000000  0.4392060000000 1.0
C      1  0.4496350000000  0.5276260000000  0.4389490000000 1.0
C      1  0.4509520000000  0.4700770000000  0.4389650000000 1.0
C      1  0.5014310000000  0.4426900000000  0.4392030000000 1.0
C      1  0.5503930000000  0.4723770000000  0.4389710000000 1.0
C      1  0.5490760000000  0.5299260000000  0.4389890000000 1.0
C      1  0.5013600000000  0.5574500000000  0.5599860000000 1.0
C      1  0.5503240000000  0.5274360000000  0.5597690000000 1.0
C      1  0.5491040000000  0.4701900000000  0.5600120000000 1.0
C      1  0.4986120000000  0.4425470000000  0.5599820000000 1.0
C      1  0.4496490000000  0.4725610000000  0.5597450000000 1.0
C      1  0.4508680000000  0.5298070000000  0.5599910000000 1.0
C      1  0.4836740000000  0.4700400000000  0.4288580000000 1.0
C      1  0.5178170000000  0.4708630000000  0.4286840000000 1.0
C      1  0.5342030000000  0.5008320000000  0.4288540000000 1.0
C      1  0.5163580000000  0.5299640000000  0.4288670000000 1.0
C      1  0.4822160000000  0.5291400000000  0.4286780000000 1.0
C      1  0.4658290000000  0.4991720000000  0.4288380000000 1.0
C      1  0.5163640000000  0.4699790000000  0.5701180000000 1.0
C      1  0.4822120000000  0.4708610000000  0.5700940000000 1.0
C      1  0.4658490000000  0.5008390000000  0.5702730000000 1.0
C      1  0.4836040000000  0.5300170000000  0.5701120000000 1.0
C      1  0.5177550000000  0.5291350000000  0.5701040000000 1.0
C      1  0.5341190000000  0.4991580000000  0.5702880000000 1.0
C      1  0.5006600000000  0.5795190000000  0.5404630000000 1.0
C      1  0.4313660000000  0.5398110000000  0.5402910000000 1.0
C      1  0.4310270000000  0.4609560000000  0.5401140000000 1.0
C      1  0.4993220000000  0.4204790000000  0.5404590000000 1.0
C      1  0.5686150000000  0.4601870000000  0.5403200000000 1.0
C      1  0.5689540000000  0.5390420000000  0.5401480000000 1.0
C      1  0.4993260000000  0.5792470000000  0.4588320000000 1.0
C      1  0.5685340000000  0.5403530000000  0.4585170000000 1.0
C      1  0.5688070000000  0.4604890000000  0.4586710000000 1.0
C      1  0.5006930000000  0.4207550000000  0.4588290000000 1.0
C      1  0.4314850000000  0.4596500000000  0.4584840000000 1.0
C      1  0.4312120000000  0.5395130000000  0.4586410000000 1.0
C      1  0.4353410000000  0.4963640000000  0.5231830000000 1.0
C      1  0.4705070000000  0.4417610000000  0.5239000000000 1.0
C      1  0.5358960000000  0.4447270000000  0.5245750000000 1.0
C      1  0.5646490000000  0.5036350000000  0.5232130000000 1.0
C      1  0.5294820000000  0.5582380000000  0.5239160000000 1.0
C      1  0.4640930000000  0.5552720000000  0.5245610000000 1.0
C      1  0.5658240000000  0.4965570000000  0.4744090000000 1.0
C      1  0.5291940000000  0.4421960000000  0.4757680000000 1.0
C      1  0.4643230000000  0.4453380000000  0.4750440000000 1.0
C      1  0.4341870000000  0.5034440000000  0.4743790000000 1.0
C      1  0.4708170000000  0.5578050000000  0.4757580000000 1.0
C      1  0.5356880000000  0.5546630000000  0.4750630000000 1.0
C      1  0.4220340000000  0.4786540000000  0.4800120000000 1.0
C      1  0.4795250000000  0.4222500000000  0.4803750000000 1.0
C      1  0.5568700000000  0.4436240000000  0.4807850000000 1.0
C      1  0.5779750000000  0.5213470000000  0.4800480000000 1.0
C      1  0.5204840000000  0.5777510000000  0.4803880000000 1.0
C      1  0.4431390000000  0.5563760000000  0.4807620000000 1.0
C      1  0.5772550000000  0.4789540000000  0.5182050000000 1.0
C      1  0.5205080000000  0.4218060000000  0.5189340000000 1.0
C      1  0.4429110000000  0.4433780000000  0.5185650000000 1.0
C      1  0.4227360000000  0.5210450000000  0.5181700000000 1.0
C      1  0.4794830000000  0.5781930000000  0.5189290000000 1.0
C      1  0.5570800000000  0.5566210000000  0.5185940000000 1.0
C      1  0.4704010000000  0.5170860000000  0.4994740000000 1.0
C      1  0.5294010000000  0.5169170000000  0.4995840000000 1.0
C      1  0.4999450000000  0.5339200000000  0.4993850000000 1.0
C      1  0.5295990000000  0.4829140000000  0.4994870000000 1.0
C      1  0.4705990000000  0.4830830000000  0.4995700000000 1.0
C      1  0.5000550000000  0.4660800000000  0.4993830000000 1.0
END
