TITL C-2782233-7966-730 -0.0031815719689488 125000 -738.8900104265 0 0 134 (C1) n - 1
REM
REM in /home/nfs/bkarasulu/CARBON/AIRSS/Generating-Clusters/REBO/Higher-Symm/SD-CG/HFTN-CG
REM
REM
REM
REM
REM
REM ./C.cell (12c818d87b63d06a65506943cc24bca4)
REM
REM compiler GCC version 9.2.1 20190827 (Red Hat 9.2.1-1)
REM options -cpp -mtune=generic -march=x86-64 -g -O0 -fpre-include=/usr/include/finclude/math-vector-fortran.h
REM seed -1392560587 -268715765 2089503085 -687218276 1055244635 812221322 125700107 -457187603 -1940975488 -643926678 836552178 -69455067 1745602899 -1622187810 -951343160 1973514357 -1340239208 1322601427 923494014 -95963421 511922212 1618394692 -1459056832 1199505258 664577597 -1890133553 828645815 891048929 1929068911 -1418967120 1075093206 56819246 1873242718
REM
CELL 1.54180   50.00000   50.00000   50.00000   90.00000   90.00000   90.00000
LATT -1
SFAC C  
C      1  0.4480580000000  0.4394910000000  0.5268800000000 1.0
C      1  0.4223370000000  0.4742420000000  0.4684420000000 1.0
C      1  0.4198760000000  0.5131190000000  0.5301340000000 1.0
C      1  0.4392000000000  0.5491200000000  0.4705340000000 1.0
C      1  0.4739520000000  0.5734410000000  0.5308400000000 1.0
C      1  0.5192090000000  0.5819850000000  0.4679130000000 1.0
C      1  0.5547880000000  0.5597180000000  0.5326850000000 1.0
C      1  0.5741740000000  0.5292990000000  0.4686130000000 1.0
C      1  0.5804840000000  0.4882930000000  0.5255720000000 1.0
C      1  0.5604060000000  0.4426770000000  0.4691110000000 1.0
C      1  0.5245300000000  0.4193970000000  0.5331900000000 1.0
C      1  0.4877910000000  0.4213510000000  0.4687250000000 1.0
C      1  0.4706170000000  0.5064400000000  0.4805320000000 1.0
C      1  0.4766950000000  0.5218010000000  0.5250420000000 1.0
C      1  0.4916650000000  0.5310520000000  0.4775920000000 1.0
C      1  0.5050050000000  0.5304250000000  0.5193070000000 1.0
C      1  0.5218920000000  0.5251230000000  0.4792360000000 1.0
C      1  0.5275350000000  0.5106560000000  0.5159670000000 1.0
C      1  0.5316190000000  0.4943010000000  0.4782920000000 1.0
C      1  0.5214310000000  0.4792260000000  0.5193280000000 1.0
C      1  0.5123820000000  0.4707650000000  0.4809720000000 1.0
C      1  0.4920080000000  0.4704100000000  0.5169300000000 1.0
C      1  0.4816060000000  0.4778540000000  0.4790640000000 1.0
C      1  0.4683970000000  0.4918500000000  0.5188580000000 1.0
C      1  0.4626410000000  0.4168710000000  0.5126950000000 1.0
C      1  0.4232720000000  0.4474280000000  0.4834860000000 1.0
C      1  0.4063180000000  0.4896430000000  0.5160600000000 1.0
C      1  0.4169300000000  0.5354440000000  0.4861470000000 1.0
C      1  0.4468330000000  0.5718770000000  0.5161950000000 1.0
C      1  0.4915900000000  0.5889610000000  0.4799540000000 1.0
C      1  0.5386470000000  0.5822250000000  0.5188350000000 1.0
C      1  0.5742510000000  0.5552390000000  0.4839630000000 1.0
C      1  0.5927410000000  0.5128930000000  0.5125680000000 1.0
C      1  0.5808620000000  0.4623930000000  0.4809750000000 1.0
C      1  0.5519620000000  0.4238280000000  0.5186640000000 1.0
C      1  0.5101260000000  0.4080320000000  0.4848240000000 1.0
C      1  0.4716600000000  0.4567490000000  0.5373790000000 1.0
C      1  0.4523430000000  0.4767330000000  0.4610550000000 1.0
C      1  0.4466840000000  0.5000640000000  0.5397120000000 1.0
C      1  0.4563120000000  0.5253200000000  0.4591580000000 1.0
C      1  0.4771760000000  0.5449180000000  0.5465750000000 1.0
C      1  0.5021710000000  0.5572020000000  0.4583110000000 1.0
C      1  0.5238520000000  0.5506700000000  0.5382550000000 1.0
C      1  0.5450180000000  0.5260260000000  0.4580470000000 1.0
C      1  0.5525360000000  0.5001870000000  0.5330640000000 1.0
C      1  0.5479990000000  0.4704600000000  0.4598680000000 1.0
C      1  0.5293860000000  0.4511370000000  0.5367940000000 1.0
C      1  0.5012700000000  0.4488930000000  0.4598850000000 1.0
C      1  0.5293200000000  0.4477570000000  0.4960490000000 1.0
C      1  0.4987680000000  0.4411510000000  0.5040890000000 1.0
C      1  0.4701420000000  0.4495200000000  0.4908930000000 1.0
C      1  0.4497570000000  0.4708400000000  0.5021210000000 1.0
C      1  0.4403540000000  0.5009130000000  0.4921690000000 1.0
C      1  0.4496780000000  0.5270910000000  0.5074690000000 1.0
C      1  0.4705990000000  0.5476210000000  0.4952190000000 1.0
C      1  0.5004880000000  0.5589540000000  0.5047550000000 1.0
C      1  0.5301940000000  0.5507680000000  0.4959100000000 1.0
C      1  0.5528460000000  0.5298100000000  0.5062090000000 1.0
C      1  0.5593970000000  0.5013910000000  0.4937280000000 1.0
C      1  0.5504540000000  0.4716420000000  0.5051530000000 1.0
C      1  0.4229630000000  0.4759880000000  0.5434980000000 1.0
C      1  0.4236740000000  0.5148230000000  0.4587050000000 1.0
C      1  0.4435220000000  0.5519280000000  0.5441380000000 1.0
C      1  0.4728930000000  0.5743860000000  0.4552780000000 1.0
C      1  0.5118710000000  0.5820190000000  0.5398500000000 1.0
C      1  0.5509570000000  0.5597440000000  0.4582970000000 1.0
C      1  0.5739790000000  0.5248080000000  0.5397350000000 1.0
C      1  0.5785170000000  0.4844680000000  0.4547710000000 1.0
C      1  0.5616250000000  0.4475820000000  0.5413980000000 1.0
C      1  0.5259570000000  0.4253320000000  0.4591570000000 1.0
C      1  0.4818880000000  0.4244730000000  0.5409520000000 1.0
C      1  0.4452910000000  0.4435870000000  0.4571440000000 1.0
C      1  0.4718890000000  0.5028900000000  0.4114490000000 1.0
C      1  0.4729520000000  0.5058900000000  0.5913650000000 1.0
C      1  0.4879670000000  0.5270490000000  0.4077600000000 1.0
C      1  0.4950020000000  0.5252650000000  0.5945680000000 1.0
C      1  0.5176690000000  0.5234150000000  0.4103760000000 1.0
C      1  0.5166290000000  0.5166420000000  0.6090790000000 1.0
C      1  0.5295920000000  0.4966610000000  0.4080980000000 1.0
C      1  0.5290120000000  0.4915790000000  0.6036980000000 1.0
C      1  0.5116400000000  0.4729170000000  0.4116070000000 1.0
C      1  0.5109420000000  0.4699540000000  0.5996060000000 1.0
C      1  0.4826200000000  0.4749560000000  0.4087530000000 1.0
C      1  0.4831900000000  0.4771660000000  0.5920360000000 1.0
C      1  0.5400960000000  0.5043260000000  0.4406530000000 1.0
C      1  0.5406470000000  0.4857540000000  0.5542320000000 1.0
C      1  0.5210550000000  0.4790860000000  0.4429120000000 1.0
C      1  0.5071120000000  0.4641170000000  0.5533980000000 1.0
C      1  0.4845370000000  0.4635030000000  0.4419560000000 1.0
C      1  0.4692320000000  0.4744750000000  0.5603900000000 1.0
C      1  0.4732160000000  0.4930020000000  0.4430220000000 1.0
C      1  0.4586510000000  0.5129410000000  0.5616670000000 1.0
C      1  0.4767760000000  0.5324480000000  0.4406210000000 1.0
C      1  0.4997050000000  0.5375290000000  0.5672850000000 1.0
C      1  0.5088250000000  0.5289480000000  0.4416810000000 1.0
C      1  0.5217110000000  0.5208930000000  0.5541750000000 1.0
C      1  0.5603640000000  0.5260040000000  0.4152420000000 1.0
C      1  0.5522370000000  0.4919530000000  0.5831140000000 1.0
C      1  0.5489110000000  0.4621280000000  0.4207720000000 1.0
C      1  0.5203370000000  0.4449010000000  0.5849780000000 1.0
C      1  0.4922930000000  0.4343800000000  0.4171740000000 1.0
C      1  0.4602330000000  0.4541860000000  0.5841560000000 1.0
C      1  0.4438550000000  0.4766690000000  0.4219990000000 1.0
C      1  0.4394830000000  0.5113610000000  0.5879270000000 1.0
C      1  0.4479230000000  0.5392810000000  0.4151730000000 1.0
C      1  0.4749330000000  0.5651110000000  0.5809560000000 1.0
C      1  0.5085840000000  0.5612650000000  0.4191120000000 1.0
C      1  0.5363500000000  0.5504720000000  0.5761480000000 1.0
C      1  0.5794150000000  0.4590500000000  0.5146820000000 1.0
C      1  0.5460190000000  0.4210020000000  0.4865930000000 1.0
C      1  0.5000900000000  0.4100100000000  0.5160140000000 1.0
C      1  0.4581000000000  0.4215470000000  0.4796630000000 1.0
C      1  0.4235780000000  0.4555420000000  0.5161950000000 1.0
C      1  0.4083130000000  0.4982540000000  0.4843300000000 1.0
C      1  0.4226670000000  0.5423830000000  0.5188940000000 1.0
C      1  0.4538300000000  0.5736400000000  0.4835190000000 1.0
C      1  0.4946750000000  0.5903360000000  0.5124430000000 1.0
C      1  0.5445090000000  0.5791110000000  0.4859490000000 1.0
C      1  0.5789040000000  0.5483830000000  0.5154850000000 1.0
C      1  0.5890640000000  0.5040440000000  0.4799570000000 1.0
C      1  0.5482670000000  0.4588060000000  0.5710140000000 1.0
C      1  0.5240430000000  0.4399980000000  0.4283640000000 1.0
C      1  0.4891340000000  0.4413650000000  0.5699020000000 1.0
C      1  0.4613590000000  0.4472780000000  0.4269300000000 1.0
C      1  0.4392300000000  0.4800490000000  0.5734510000000 1.0
C      1  0.4371560000000  0.5095480000000  0.4278830000000 1.0
C      1  0.4506820000000  0.5422940000000  0.5761640000000 1.0
C      1  0.4744270000000  0.5600090000000  0.4241920000000 1.0
C      1  0.5075340000000  0.5683140000000  0.5701240000000 1.0
C      1  0.5400080000000  0.5506760000000  0.4271480000000 1.0
C      1  0.5526470000000  0.5221030000000  0.5663890000000 1.0
C      1  0.5650690000000  0.4925860000000  0.4242600000000 1.0
C      1  0.5013310000000  0.5010140000000  0.4531940000000 1.0
C      1  0.5095230000000  0.4921820000000  0.5572070000000 1.0
END
