TITL C-2782235-7892-1473 -0.00079211825449851 125000 -715.707002455283 0 0 122 (C1) n - 1
REM
REM in /home/nfs/bkarasulu/CARBON/AIRSS/Generating-Clusters/REBO/Higher-Symm/SD-CG/HFTN-CG
REM
REM
REM
REM
REM
REM ./C.cell (12c818d87b63d06a65506943cc24bca4)
REM
REM compiler GCC version 9.2.1 20190827 (Red Hat 9.2.1-1)
REM options -cpp -mtune=generic -march=x86-64 -g -O0 -fpre-include=/usr/include/finclude/math-vector-fortran.h
REM seed 1984635646 -636438696 1966827428 -374425158 -719529736 -1988975952 1832008830 742893273 1421750580 78652680 121886740 80482048 -1645337102 894370660 80019448 -951459149 21113950 -1113227550 453227577 1507149600 -1123237540 1671451666 224983735 1222022222 1800167987 2145295989 -1111408755 539817105 -1251574239 -2020192599 988467797 -86672292 -1523550275
REM
CELL 1.54180   50.00000   50.00000   50.00000   90.00000   90.00000   90.00000
LATT -1
SFAC C  
C      1  0.4694440000000  0.5651770000000  0.4318600000000 1.0
C      1  0.4287290000000  0.5566360000000  0.5302000000000 1.0
C      1  0.5292980000000  0.5612600000000  0.5681390000000 1.0
C      1  0.5663480000000  0.5650190000000  0.4715510000000 1.0
C      1  0.4749680000000  0.4391250000000  0.5682220000000 1.0
C      1  0.4340970000000  0.4355090000000  0.4719350000000 1.0
C      1  0.5322680000000  0.4412300000000  0.4329620000000 1.0
C      1  0.5690350000000  0.4296780000000  0.5311030000000 1.0
C      1  0.5366910000000  0.5156440000000  0.4728680000000 1.0
C      1  0.4733260000000  0.5144080000000  0.4611380000000 1.0
C      1  0.4601480000000  0.5153630000000  0.5247380000000 1.0
C      1  0.5250550000000  0.5164310000000  0.5382720000000 1.0
C      1  0.5383940000000  0.4878840000000  0.5265080000000 1.0
C      1  0.4725060000000  0.4863970000000  0.5377690000000 1.0
C      1  0.4617920000000  0.4852990000000  0.4748210000000 1.0
C      1  0.5272720000000  0.4858270000000  0.4609760000000 1.0
C      1  0.5515580000000  0.5481360000000  0.5554700000000 1.0
C      1  0.5555230000000  0.5511910000000  0.4487610000000 1.0
C      1  0.4484780000000  0.5486770000000  0.4429110000000 1.0
C      1  0.4449450000000  0.5532380000000  0.5577990000000 1.0
C      1  0.5533510000000  0.4559470000000  0.4459470000000 1.0
C      1  0.5592190000000  0.4411810000000  0.5560020000000 1.0
C      1  0.4516950000000  0.4515840000000  0.5566930000000 1.0
C      1  0.4451780000000  0.4509470000000  0.4501840000000 1.0
C      1  0.5275870000000  0.4283260000000  0.5123680000000 1.0
C      1  0.5153530000000  0.4291370000000  0.4728610000000 1.0
C      1  0.4756880000000  0.4256860000000  0.4861400000000 1.0
C      1  0.4906640000000  0.4239700000000  0.5270560000000 1.0
C      1  0.5241830000000  0.5750460000000  0.4881330000000 1.0
C      1  0.5114630000000  0.5740210000000  0.5269910000000 1.0
C      1  0.4694760000000  0.5722420000000  0.5134250000000 1.0
C      1  0.4848300000000  0.5744650000000  0.4735370000000 1.0
C      1  0.5641000000000  0.5246940000000  0.4424100000000 1.0
C      1  0.4469140000000  0.5226640000000  0.4314440000000 1.0
C      1  0.4317390000000  0.5283450000000  0.5701690000000 1.0
C      1  0.5564710000000  0.5210730000000  0.5625580000000 1.0
C      1  0.5722370000000  0.4655770000000  0.5626240000000 1.0
C      1  0.4435300000000  0.4763990000000  0.5642920000000 1.0
C      1  0.4336770000000  0.4765140000000  0.4463990000000 1.0
C      1  0.5582450000000  0.4808190000000  0.4361690000000 1.0
C      1  0.3940890000000  0.4877790000000  0.5197850000000 1.0
C      1  0.5130190000000  0.4813370000000  0.6072380000000 1.0
C      1  0.6123550000000  0.4776380000000  0.4792750000000 1.0
C      1  0.4880670000000  0.4742940000000  0.3920250000000 1.0
C      1  0.3931970000000  0.5262660000000  0.4826720000000 1.0
C      1  0.5119430000000  0.5208820000000  0.3913270000000 1.0
C      1  0.6077990000000  0.5147280000000  0.5189590000000 1.0
C      1  0.4841770000000  0.5235220000000  0.6069380000000 1.0
C      1  0.5242270000000  0.5247360000000  0.4430140000000 1.0
C      1  0.4440440000000  0.5207980000000  0.4711640000000 1.0
C      1  0.4697430000000  0.5219560000000  0.5556500000000 1.0
C      1  0.5530390000000  0.5268050000000  0.5217020000000 1.0
C      1  0.5267910000000  0.4790430000000  0.5559540000000 1.0
C      1  0.4455250000000  0.4738560000000  0.5240780000000 1.0
C      1  0.4735020000000  0.4784870000000  0.4440250000000 1.0
C      1  0.5575610000000  0.4818650000000  0.4761180000000 1.0
C      1  0.5281450000000  0.5043510000000  0.5979500000000 1.0
C      1  0.6057190000000  0.5040140000000  0.4703090000000 1.0
C      1  0.4702020000000  0.4964620000000  0.3971910000000 1.0
C      1  0.3973370000000  0.5144860000000  0.5296970000000 1.0
C      1  0.5288790000000  0.4993840000000  0.4002460000000 1.0
C      1  0.6005450000000  0.4882020000000  0.5267550000000 1.0
C      1  0.4693450000000  0.5000790000000  0.5990380000000 1.0
C      1  0.4003400000000  0.5002880000000  0.4721320000000 1.0
C      1  0.4885880000000  0.4794140000000  0.5916300000000 1.0
C      1  0.5983040000000  0.4697080000000  0.5027400000000 1.0
C      1  0.5120650000000  0.4767330000000  0.4082070000000 1.0
C      1  0.4081960000000  0.4829110000000  0.4947910000000 1.0
C      1  0.4873690000000  0.5202610000000  0.4068520000000 1.0
C      1  0.5962570000000  0.5219110000000  0.4938650000000 1.0
C      1  0.5085290000000  0.5254320000000  0.5912220000000 1.0
C      1  0.4088630000000  0.5308410000000  0.5066760000000 1.0
C      1  0.5746350000000  0.5070910000000  0.4641670000000 1.0
C      1  0.4591480000000  0.4982270000000  0.4246690000000 1.0
C      1  0.4125290000000  0.5335750000000  0.5463930000000 1.0
C      1  0.5431610000000  0.4987900000000  0.5740890000000 1.0
C      1  0.5752170000000  0.4842870000000  0.5420670000000 1.0
C      1  0.4509520000000  0.5043730000000  0.5754960000000 1.0
C      1  0.4248110000000  0.5011410000000  0.4568660000000 1.0
C      1  0.5454540000000  0.5073190000000  0.4236600000000 1.0
C      1  0.4677480000000  0.5518700000000  0.4793670000000 1.0
C      1  0.4792430000000  0.5512640000000  0.5307720000000 1.0
C      1  0.5295380000000  0.5514750000000  0.5197010000000 1.0
C      1  0.5182640000000  0.5532150000000  0.4701350000000 1.0
C      1  0.4734010000000  0.4464170000000  0.5199640000000 1.0
C      1  0.4808730000000  0.4486130000000  0.4693470000000 1.0
C      1  0.5323470000000  0.4514760000000  0.4805600000000 1.0
C      1  0.5201680000000  0.4504060000000  0.5292250000000 1.0
C      1  0.4767430000000  0.5550740000000  0.5622710000000 1.0
C      1  0.5612250000000  0.5597860000000  0.5250020000000 1.0
C      1  0.5237820000000  0.5586710000000  0.4391300000000 1.0
C      1  0.4365380000000  0.5539950000000  0.4745690000000 1.0
C      1  0.4765490000000  0.4449450000000  0.4380740000000 1.0
C      1  0.5638900000000  0.4481860000000  0.4774500000000 1.0
C      1  0.5280900000000  0.4451290000000  0.5593600000000 1.0
C      1  0.4423210000000  0.4407080000000  0.5263080000000 1.0
C      1  0.4941210000000  0.4792420000000  0.5630220000000 1.0
C      1  0.5658990000000  0.4792110000000  0.5090260000000 1.0
C      1  0.5064260000000  0.4768370000000  0.4367810000000 1.0
C      1  0.4370110000000  0.4811960000000  0.4971870000000 1.0
C      1  0.4927150000000  0.5204570000000  0.4355000000000 1.0
C      1  0.5629210000000  0.5183980000000  0.4943780000000 1.0
C      1  0.5028980000000  0.5248160000000  0.5627260000000 1.0
C      1  0.4370700000000  0.5257030000000  0.5028110000000 1.0
C      1  0.4418120000000  0.5658440000000  0.5061950000000 1.0
C      1  0.5051280000000  0.5695420000000  0.5551350000000 1.0
C      1  0.5521570000000  0.5734460000000  0.4951840000000 1.0
C      1  0.4934750000000  0.5727690000000  0.4458460000000 1.0
C      1  0.4483260000000  0.4271120000000  0.4956700000000 1.0
C      1  0.5074990000000  0.4322270000000  0.4447860000000 1.0
C      1  0.5556790000000  0.4304770000000  0.5053930000000 1.0
C      1  0.4984070000000  0.4290360000000  0.5547770000000 1.0
C      1  0.4778390000000  0.4723730000000  0.5008480000000 1.0
C      1  0.5008000000000  0.4749270000000  0.5242860000000 1.0
C      1  0.5237970000000  0.4762770000000  0.4994150000000 1.0
C      1  0.4998020000000  0.4735690000000  0.4757480000000 1.0
C      1  0.4765280000000  0.5280510000000  0.4985030000000 1.0
C      1  0.4991500000000  0.5283600000000  0.4739980000000 1.0
C      1  0.5201740000000  0.5262610000000  0.4992780000000 1.0
C      1  0.4980910000000  0.5273180000000  0.5235730000000 1.0
C      1  0.4964290000000  0.5870080000000  0.5010880000000 1.0
C      1  0.5026990000000  0.4130970000000  0.4986240000000 1.0
END
