TITL C-2782235-7892-699 0.000516086136630473 125000 -244.137815390243 0 0 42 (C1) n - 1
REM
REM in /home/nfs/bkarasulu/CARBON/AIRSS/Generating-Clusters/REBO/Higher-Symm/SD-CG/HFTN-CG
REM
REM
REM
REM
REM
REM ./C.cell (12c818d87b63d06a65506943cc24bca4)
REM
REM compiler GCC version 9.2.1 20190827 (Red Hat 9.2.1-1)
REM options -cpp -mtune=generic -march=x86-64 -g -O0 -fpre-include=/usr/include/finclude/math-vector-fortran.h
REM seed -362948508 394119966 -122553696 527532770 378705551 -12005415 76291461 -1195148766 -1642508832 415679392 -1509838682 -1210651149 -976456350 -534396300 -789596903 1050674655 -1813313123 1579137047 -208169151 -1605204812 139804670 -343623793 -1602908972 -303863885 1601273510 -1743515596 -545601778 -314066867 -664817402 474541401 859315254 -1011020339 1708964684
REM
CELL 1.54180   50.00000   50.00000   50.00000   90.00000   90.00000   90.00000
LATT -1
SFAC C  
C      1  0.5701040000000  0.5317730000000  0.5118780000000 1.0
C      1  0.4295280000000  0.4706420000000  0.5114180000000 1.0
C      1  0.5712820000000  0.5300180000000  0.4843800000000 1.0
C      1  0.4289790000000  0.4724300000000  0.4840090000000 1.0
C      1  0.5739850000000  0.4697380000000  0.5090230000000 1.0
C      1  0.4281310000000  0.5281250000000  0.5127540000000 1.0
C      1  0.5763010000000  0.4660180000000  0.4819530000000 1.0
C      1  0.4291320000000  0.5298930000000  0.4853700000000 1.0
C      1  0.5516970000000  0.5162330000000  0.5246490000000 1.0
C      1  0.4470670000000  0.4851010000000  0.5279840000000 1.0
C      1  0.5531480000000  0.5138030000000  0.4719770000000 1.0
C      1  0.4468610000000  0.4876740000000  0.4685420000000 1.0
C      1  0.5503240000000  0.4876660000000  0.5173040000000 1.0
C      1  0.4462540000000  0.5129980000000  0.5279520000000 1.0
C      1  0.5505010000000  0.4855080000000  0.4807820000000 1.0
C      1  0.4474000000000  0.5155640000000  0.4696100000000 1.0
C      1  0.4738840000000  0.5235830000000  0.5326490000000 1.0
C      1  0.5248890000000  0.4769890000000  0.5285310000000 1.0
C      1  0.4755940000000  0.5248800000000  0.4650980000000 1.0
C      1  0.5239320000000  0.4758910000000  0.4704760000000 1.0
C      1  0.4754150000000  0.4758850000000  0.5326670000000 1.0
C      1  0.5235990000000  0.5247180000000  0.5317230000000 1.0
C      1  0.4747080000000  0.4771920000000  0.4641040000000 1.0
C      1  0.5255100000000  0.5233860000000  0.4647220000000 1.0
C      1  0.5183250000000  0.4817320000000  0.4391280000000 1.0
C      1  0.4855410000000  0.5166730000000  0.4355010000000 1.0
C      1  0.5185790000000  0.4834080000000  0.5591700000000 1.0
C      1  0.4840650000000  0.5162490000000  0.5619990000000 1.0
C      1  0.5161630000000  0.5129300000000  0.4352620000000 1.0
C      1  0.4876210000000  0.4850890000000  0.4347870000000 1.0
C      1  0.5147170000000  0.5143470000000  0.5617940000000 1.0
C      1  0.4877040000000  0.4849110000000  0.5626150000000 1.0
C      1  0.4814820000000  0.4536280000000  0.4819990000000 1.0
C      1  0.5165530000000  0.5469030000000  0.4819310000000 1.0
C      1  0.4842560000000  0.4532710000000  0.5138110000000 1.0
C      1  0.5128230000000  0.5466830000000  0.5130390000000 1.0
C      1  0.4857310000000  0.5466590000000  0.4840040000000 1.0
C      1  0.5118640000000  0.4524770000000  0.4852470000000 1.0
C      1  0.4820180000000  0.5467380000000  0.5149720000000 1.0
C      1  0.5151920000000  0.4517550000000  0.5155180000000 1.0
C      1  0.4998170000000  0.5005040000000  0.4691810000000 1.0
C      1  0.4993240000000  0.5003320000000  0.5280570000000 1.0
END
