TITL C-2782240-8521-445 0.00245455995523929 125000 -243.165157159653 0 0 47 (C4h) n - 1
REM
REM in /home/nfs/bkarasulu/CARBON/AIRSS/Generating-Clusters/REBO/Higher-Symm/SD-CG/HFTN-CG
REM
REM
REM
REM
REM
REM ./C.cell (12c818d87b63d06a65506943cc24bca4)
REM
REM compiler GCC version 9.2.1 20190827 (Red Hat 9.2.1-1)
REM options -cpp -mtune=generic -march=x86-64 -g -O0 -fpre-include=/usr/include/finclude/math-vector-fortran.h
REM seed 1329041721 -1128916942 1849015792 -1229855965 -1216435912 -806269790 -83363585 -1237563597 1201833940 1345945996 170830586 -1867389543 1331439699 -1351920778 1715216113 -812855738 -875605699 -588802694 -91487223 -141364966 2067954724 820400455 -97606189 1495612812 2082145357 -1739212514 -405554789 1866505375 180943897 -548841551 -1860662933 1550786752 1783667363
REM
CELL 1.54180   50.00000   50.00000   50.00000   90.00000   90.00000   90.00000
LATT -1
SFAC C  
C      1  0.4397290000000  0.4872400000000  0.4736680000000 1.0
C      1  0.4867340000000  0.5609340000000  0.4736680000000 1.0
C      1  0.5604270000000  0.5139290000000  0.4736650000000 1.0
C      1  0.5134230000000  0.4402360000000  0.4736650000000 1.0
C      1  0.4397300000000  0.4872390000000  0.5253810000000 1.0
C      1  0.4867350000000  0.5609330000000  0.5253810000000 1.0
C      1  0.5604290000000  0.5139280000000  0.5253780000000 1.0
C      1  0.5134240000000  0.4402350000000  0.5253780000000 1.0
C      1  0.4810750000000  0.4492260000000  0.4713710000000 1.0
C      1  0.4487190000000  0.5195880000000  0.4713730000000 1.0
C      1  0.5190810000000  0.5519430000000  0.4713720000000 1.0
C      1  0.5514370000000  0.4815810000000  0.4713700000000 1.0
C      1  0.4810760000000  0.4492250000000  0.5276740000000 1.0
C      1  0.4487210000000  0.5195870000000  0.5276760000000 1.0
C      1  0.5190830000000  0.5519430000000  0.5276750000000 1.0
C      1  0.5514380000000  0.4815810000000  0.5276730000000 1.0
C      1  0.4606460000000  0.5451230000000  0.4841300000000 1.0
C      1  0.5446170000000  0.5400170000000  0.4841280000000 1.0
C      1  0.5395110000000  0.4560460000000  0.4841270000000 1.0
C      1  0.4555400000000  0.4611520000000  0.4841290000000 1.0
C      1  0.4606470000000  0.5451220000000  0.5149190000000 1.0
C      1  0.5446170000000  0.5400160000000  0.5149170000000 1.0
C      1  0.5395110000000  0.4560460000000  0.5149160000000 1.0
C      1  0.4555410000000  0.4611520000000  0.5149180000000 1.0
C      1  0.4718660000000  0.5051710000000  0.4509600000000 1.0
C      1  0.5046640000000  0.5287960000000  0.4509590000000 1.0
C      1  0.5282890000000  0.4959990000000  0.4509580000000 1.0
C      1  0.4954910000000  0.4723740000000  0.4509590000000 1.0
C      1  0.4718690000000  0.5051700000000  0.5480880000000 1.0
C      1  0.5046660000000  0.5287950000000  0.5480880000000 1.0
C      1  0.5282910000000  0.4959970000000  0.5480860000000 1.0
C      1  0.4954940000000  0.4723720000000  0.5480870000000 1.0
C      1  0.5109900000000  0.4743580000000  0.4796100000000 1.0
C      1  0.4738520000000  0.4896730000000  0.4796110000000 1.0
C      1  0.4891670000000  0.5268110000000  0.4796120000000 1.0
C      1  0.5263050000000  0.5114960000000  0.4796110000000 1.0
C      1  0.5109910000000  0.4743570000000  0.5194340000000 1.0
C      1  0.4738530000000  0.4896720000000  0.5194360000000 1.0
C      1  0.4891680000000  0.5268100000000  0.5194360000000 1.0
C      1  0.5263060000000  0.5114950000000  0.5194350000000 1.0
C      1  0.4334220000000  0.5076380000000  0.4995250000000 1.0
C      1  0.5071320000000  0.5672410000000  0.4995240000000 1.0
C      1  0.5667360000000  0.4935310000000  0.4995210000000 1.0
C      1  0.4930250000000  0.4339270000000  0.4995220000000 1.0
C      1  0.5000770000000  0.5005850000000  0.4344730000000 1.0
C      1  0.5000800000000  0.5005830000000  0.5645730000000 1.0
C      1  0.5000790000000  0.5005840000000  0.4995230000000 1.0
END
