TITL C-2782235-7892-1434 -2.03963760422548e-07 125000 -126.314404467619 0 0 22 (C3v) n - 1
REM
REM in /home/nfs/bkarasulu/CARBON/AIRSS/Generating-Clusters/REBO/Higher-Symm/SD-CG/HFTN-CG
REM
REM
REM
REM
REM
REM ./C.cell (12c818d87b63d06a65506943cc24bca4)
REM
REM compiler GCC version 9.2.1 20190827 (Red Hat 9.2.1-1)
REM options -cpp -mtune=generic -march=x86-64 -g -O0 -fpre-include=/usr/include/finclude/math-vector-fortran.h
REM seed -1743396566 1267919003 -1876436881 -1917804396 1428598970 1337092254 -982684197 759133041 1078703945 -1964872950 1600298186 808828057 -1196240433 -1618473537 194266115 605218652 1012200661 -370307067 1420079940 -1909299542 1016616003 979185638 214036956 279801848 -550549385 -1654511545 233080433 -1194835051 -836105405 -216521153 -746143449 895146699 535036344
REM
CELL 1.54180   50.00000   50.00000   50.00000   90.00000   90.00000   90.00000
LATT -1
SFAC C  
C      1  0.4691860000000  0.5448510000000  0.5216450000000 1.0
C      1  0.4692420000000  0.4587970000000  0.5278920000000 1.0
C      1  0.4693760000000  0.4964140000000  0.4502430000000 1.0
C      1  0.5327600000000  0.4560330000000  0.5035010000000 1.0
C      1  0.5328010000000  0.5191120000000  0.4602030000000 1.0
C      1  0.5326340000000  0.5250700000000  0.5364800000000 1.0
C      1  0.5091530000000  0.4708860000000  0.5022900000000 1.0
C      1  0.5091800000000  0.5126630000000  0.4736130000000 1.0
C      1  0.5090700000000  0.5166090000000  0.5241310000000 1.0
C      1  0.4829000000000  0.5240170000000  0.5348980000000 1.0
C      1  0.4830210000000  0.4577780000000  0.5032560000000 1.0
C      1  0.4830600000000  0.5183000000000  0.4617130000000 1.0
C      1  0.4692950000000  0.5409350000000  0.4715110000000 1.0
C      1  0.4691600000000  0.5041720000000  0.5495670000000 1.0
C      1  0.4693500000000  0.4549540000000  0.4787020000000 1.0
C      1  0.5549210000000  0.4420900000000  0.5046390000000 1.0
C      1  0.5549750000000  0.5251660000000  0.4476130000000 1.0
C      1  0.5547550000000  0.5330140000000  0.5480730000000 1.0
C      1  0.4639100000000  0.4707580000000  0.4572910000000 1.0
C      1  0.4637620000000  0.5515580000000  0.4958890000000 1.0
C      1  0.4637150000000  0.4777310000000  0.5465650000000 1.0
C      1  0.5097910000000  0.5000530000000  0.5000130000000 1.0
END
