TITL C-2782231-7322-1067 -0.00165173446520107 125000 -1057.11832796488 0 0 181 (C1) n - 1
REM
REM in /home/nfs/bkarasulu/CARBON/AIRSS/Generating-Clusters/REBO/Higher-Symm/SD-CG/HFTN-CG
REM
REM
REM
REM
REM
REM ./C.cell (12c818d87b63d06a65506943cc24bca4)
REM
REM compiler GCC version 9.2.1 20190827 (Red Hat 9.2.1-1)
REM options -cpp -mtune=generic -march=x86-64 -g -O0 -fpre-include=/usr/include/finclude/math-vector-fortran.h
REM seed 297987611 1074631733 -470253897 1288034133 -573435299 367332040 922778444 -2054966703 1179163747 1588033270 1527560371 -927298612 -676770238 1654399510 -1391471303 1856978953 -1077129846 -64219916 324479081 437487225 -1742709528 -1451851080 -53068955 1761981106 -555371446 -17240522 -541853969 -478257397 -1718942776 -2126984138 -54158116 -1116727408 -495842888
REM
CELL 1.54180   50.00000   50.00000   50.00000   90.00000   90.00000   90.00000
LATT -1
SFAC C  
C      1  0.5174930000000  0.5155610000000  0.4424540000000 1.0
C      1  0.4850930000000  0.5248060000000  0.4428490000000 1.0
C      1  0.4699830000000  0.4959420000000  0.4393380000000 1.0
C      1  0.5006800000000  0.4881980000000  0.4417320000000 1.0
C      1  0.4765780000000  0.5122870000000  0.5459870000000 1.0
C      1  0.5086150000000  0.5142580000000  0.5577490000000 1.0
C      1  0.5181410000000  0.4848270000000  0.5502190000000 1.0
C      1  0.4853740000000  0.4822470000000  0.5599320000000 1.0
C      1  0.5517030000000  0.5492890000000  0.4398200000000 1.0
C      1  0.4453810000000  0.5412560000000  0.4365480000000 1.0
C      1  0.4510260000000  0.4162220000000  0.4355070000000 1.0
C      1  0.5628780000000  0.4666720000000  0.4377550000000 1.0
C      1  0.4501840000000  0.5645580000000  0.5625800000000 1.0
C      1  0.5351670000000  0.5441190000000  0.5555450000000 1.0
C      1  0.5420540000000  0.4399360000000  0.5699840000000 1.0
C      1  0.4718460000000  0.4311000000000  0.5314610000000 1.0
C      1  0.5872550000000  0.5672650000000  0.5342550000000 1.0
C      1  0.4330010000000  0.5859170000000  0.5204010000000 1.0
C      1  0.4269030000000  0.4188480000000  0.5370550000000 1.0
C      1  0.5703550000000  0.4139810000000  0.5354920000000 1.0
C      1  0.4255730000000  0.5742720000000  0.4704020000000 1.0
C      1  0.5661950000000  0.5849470000000  0.4733860000000 1.0
C      1  0.5861520000000  0.4308640000000  0.4636570000000 1.0
C      1  0.4326890000000  0.4050160000000  0.4835110000000 1.0
C      1  0.5028230000000  0.5535400000000  0.5585310000000 1.0
C      1  0.4390410000000  0.5048240000000  0.5396600000000 1.0
C      1  0.4910710000000  0.4310080000000  0.5549890000000 1.0
C      1  0.5687460000000  0.4976240000000  0.5438620000000 1.0
C      1  0.4998790000000  0.5618710000000  0.4453310000000 1.0
C      1  0.5573120000000  0.5185470000000  0.4521170000000 1.0
C      1  0.5002630000000  0.4237970000000  0.4533790000000 1.0
C      1  0.4192450000000  0.4966780000000  0.4513780000000 1.0
C      1  0.5368210000000  0.4089540000000  0.5144590000000 1.0
C      1  0.5944130000000  0.5243070000000  0.5107650000000 1.0
C      1  0.4835940000000  0.6005050000000  0.5079190000000 1.0
C      1  0.3869310000000  0.4745960000000  0.5224470000000 1.0
C      1  0.4725280000000  0.4066400000000  0.4818720000000 1.0
C      1  0.4009300000000  0.5316280000000  0.4971180000000 1.0
C      1  0.5277760000000  0.5889990000000  0.4871400000000 1.0
C      1  0.5912030000000  0.4771370000000  0.4884840000000 1.0
C      1  0.4829240000000  0.5359830000000  0.4703840000000 1.0
C      1  0.4541420000000  0.4853130000000  0.4670580000000 1.0
C      1  0.5040560000000  0.4770810000000  0.4710000000000 1.0
C      1  0.5317160000000  0.5154500000000  0.4703460000000 1.0
C      1  0.5057220000000  0.5345130000000  0.5304760000000 1.0
C      1  0.5228950000000  0.4871580000000  0.5168820000000 1.0
C      1  0.4863720000000  0.4753440000000  0.5279640000000 1.0
C      1  0.4749930000000  0.5117660000000  0.5135710000000 1.0
C      1  0.5871110000000  0.4937810000000  0.4205430000000 1.0
C      1  0.5116440000000  0.5856230000000  0.4158680000000 1.0
C      1  0.4187120000000  0.5182010000000  0.4178610000000 1.0
C      1  0.4946930000000  0.4278540000000  0.4142890000000 1.0
C      1  0.4313080000000  0.4859700000000  0.5846840000000 1.0
C      1  0.4888970000000  0.5880920000000  0.5782680000000 1.0
C      1  0.5757530000000  0.5130870000000  0.5799110000000 1.0
C      1  0.5122220000000  0.4194910000000  0.5869130000000 1.0
C      1  0.6020520000000  0.5516050000000  0.5573450000000 1.0
C      1  0.4496670000000  0.5918950000000  0.5492520000000 1.0
C      1  0.4199390000000  0.4361410000000  0.5659420000000 1.0
C      1  0.5556560000000  0.4124200000000  0.5612880000000 1.0
C      1  0.4205250000000  0.5604070000000  0.4444560000000 1.0
C      1  0.5536310000000  0.5808420000000  0.4456390000000 1.0
C      1  0.5899880000000  0.4509430000000  0.4429150000000 1.0
C      1  0.4453960000000  0.3952590000000  0.4550230000000 1.0
C      1  0.4990110000000  0.5357510000000  0.4134810000000 1.0
C      1  0.4609060000000  0.4880620000000  0.4118710000000 1.0
C      1  0.5102250000000  0.4743490000000  0.4152790000000 1.0
C      1  0.5168510000000  0.5067440000000  0.4102130000000 1.0
C      1  0.5078130000000  0.5218020000000  0.5879090000000 1.0
C      1  0.5200010000000  0.4898870000000  0.5909740000000 1.0
C      1  0.4905960000000  0.4727170000000  0.5904510000000 1.0
C      1  0.4767750000000  0.5228400000000  0.5941450000000 1.0
C      1  0.3961300000000  0.4867870000000  0.4727500000000 1.0
C      1  0.5309070000000  0.4120000000000  0.4610220000000 1.0
C      1  0.5949200000000  0.5247130000000  0.4630880000000 1.0
C      1  0.4843030000000  0.5960400000000  0.4589540000000 1.0
C      1  0.5883590000000  0.4711550000000  0.5423630000000 1.0
C      1  0.4876680000000  0.4012740000000  0.5287970000000 1.0
C      1  0.4014240000000  0.5131250000000  0.5488590000000 1.0
C      1  0.5260820000000  0.5914280000000  0.5394300000000 1.0
C      1  0.5343860000000  0.4416640000000  0.6013890000000 1.0
C      1  0.5497620000000  0.5349080000000  0.5836500000000 1.0
C      1  0.4691790000000  0.5625700000000  0.5900670000000 1.0
C      1  0.4397030000000  0.4543900000000  0.5863420000000 1.0
C      1  0.4614120000000  0.4372750000000  0.4120750000000 1.0
C      1  0.4455560000000  0.5335470000000  0.4042090000000 1.0
C      1  0.5456160000000  0.5522400000000  0.4090320000000 1.0
C      1  0.5594240000000  0.4790940000000  0.4076890000000 1.0
C      1  0.5503090000000  0.5407150000000  0.5000330000000 1.0
C      1  0.4567750000000  0.5515760000000  0.4856240000000 1.0
C      1  0.4424370000000  0.4593810000000  0.4858140000000 1.0
C      1  0.5371530000000  0.4484330000000  0.4862360000000 1.0
C      1  0.4397250000000  0.5525690000000  0.5151010000000 1.0
C      1  0.5392660000000  0.5559490000000  0.5272390000000 1.0
C      1  0.5508380000000  0.4596450000000  0.5115100000000 1.0
C      1  0.4639700000000  0.4438280000000  0.5074490000000 1.0
C      1  0.5108360000000  0.4554950000000  0.5224780000000 1.0
C      1  0.5292350000000  0.5175190000000  0.5236610000000 1.0
C      1  0.4810780000000  0.5493380000000  0.5172200000000 1.0
C      1  0.4588960000000  0.4829330000000  0.5130970000000 1.0
C      1  0.4763770000000  0.4638020000000  0.4620640000000 1.0
C      1  0.4554830000000  0.5118130000000  0.4856560000000 1.0
C      1  0.5137430000000  0.5350000000000  0.4851620000000 1.0
C      1  0.5319200000000  0.4875350000000  0.4838360000000 1.0
C      1  0.6005540000000  0.4794120000000  0.4411870000000 1.0
C      1  0.5285750000000  0.5941180000000  0.4389590000000 1.0
C      1  0.4062790000000  0.5335270000000  0.4392660000000 1.0
C      1  0.4723320000000  0.3797780000000  0.4608590000000 1.0
C      1  0.4094220000000  0.4686070000000  0.5663290000000 1.0
C      1  0.4778180000000  0.6013870000000  0.5540970000000 1.0
C      1  0.5972770000000  0.5241030000000  0.5609110000000 1.0
C      1  0.5257310000000  0.4044200000000  0.5625640000000 1.0
C      1  0.5364980000000  0.4568810000000  0.4207100000000 1.0
C      1  0.5617210000000  0.5283640000000  0.4065780000000 1.0
C      1  0.4702400000000  0.5525080000000  0.4182450000000 1.0
C      1  0.4428390000000  0.4643570000000  0.4122040000000 1.0
C      1  0.4668010000000  0.4492600000000  0.5914220000000 1.0
C      1  0.4485620000000  0.5366540000000  0.5808060000000 1.0
C      1  0.5233970000000  0.5516890000000  0.5926330000000 1.0
C      1  0.5460160000000  0.4686910000000  0.5841610000000 1.0
C      1  0.5187480000000  0.4413180000000  0.5488690000000 1.0
C      1  0.5547380000000  0.5223370000000  0.5419660000000 1.0
C      1  0.4725960000000  0.5447000000000  0.5500030000000 1.0
C      1  0.4369560000000  0.4750550000000  0.5351600000000 1.0
C      1  0.4743250000000  0.4353700000000  0.4496310000000 1.0
C      1  0.4384930000000  0.5210380000000  0.4592580000000 1.0
C      1  0.5227600000000  0.5522040000000  0.4575180000000 1.0
C      1  0.5573300000000  0.4859910000000  0.4623270000000 1.0
C      1  0.5109730000000  0.4432260000000  0.4949640000000 1.0
C      1  0.5572300000000  0.5109350000000  0.5038510000000 1.0
C      1  0.4878560000000  0.5645010000000  0.4870140000000 1.0
C      1  0.4286250000000  0.4878880000000  0.4987680000000 1.0
C      1  0.4846880000000  0.4454730000000  0.4867950000000 1.0
C      1  0.4358910000000  0.5192270000000  0.5119960000000 1.0
C      1  0.5167970000000  0.5621420000000  0.5040110000000 1.0
C      1  0.5651050000000  0.4841330000000  0.5058480000000 1.0
C      1  0.4584900000000  0.5077230000000  0.3932560000000 1.0
C      1  0.4885160000000  0.4567700000000  0.4053330000000 1.0
C      1  0.5459870000000  0.5054510000000  0.3999850000000 1.0
C      1  0.5188660000000  0.5595300000000  0.4054070000000 1.0
C      1  0.5476360000000  0.5058280000000  0.5977850000000 1.0
C      1  0.5031530000000  0.4464970000000  0.6064320000000 1.0
C      1  0.4564370000000  0.5015540000000  0.5980520000000 1.0
C      1  0.4993450000000  0.5685810000000  0.6029470000000 1.0
C      1  0.5017870000000  0.3952240000000  0.4682950000000 1.0
C      1  0.6012940000000  0.4947930000000  0.4662220000000 1.0
C      1  0.5130420000000  0.5982800000000  0.4631370000000 1.0
C      1  0.3954430000000  0.5192350000000  0.4664330000000 1.0
C      1  0.5157720000000  0.4007080000000  0.5352860000000 1.0
C      1  0.3954640000000  0.4844650000000  0.5475290000000 1.0
C      1  0.4982830000000  0.6030580000000  0.5326290000000 1.0
C      1  0.6003090000000  0.5025760000000  0.5347560000000 1.0
C      1  0.4308450000000  0.4498660000000  0.5382680000000 1.0
C      1  0.5449910000000  0.4365220000000  0.5304620000000 1.0
C      1  0.5766990000000  0.5387080000000  0.5295900000000 1.0
C      1  0.4641460000000  0.5769020000000  0.5156550000000 1.0
C      1  0.5678290000000  0.4558590000000  0.4757590000000 1.0
C      1  0.4504220000000  0.4308950000000  0.4724210000000 1.0
C      1  0.4250020000000  0.5423720000000  0.4797260000000 1.0
C      1  0.5469660000000  0.5589070000000  0.4782150000000 1.0
C      1  0.5243370000000  0.4287990000000  0.4313680000000 1.0
C      1  0.5823220000000  0.5235930000000  0.4312970000000 1.0
C      1  0.4800400000000  0.5826750000000  0.4279890000000 1.0
C      1  0.4223010000000  0.4867270000000  0.4216470000000 1.0
C      1  0.4798960000000  0.4259790000000  0.5816720000000 1.0
C      1  0.4293340000000  0.5158290000000  0.5685130000000 1.0
C      1  0.5205550000000  0.5781460000000  0.5704480000000 1.0
C      1  0.5707670000000  0.4803900000000  0.5710760000000 1.0
C      1  0.4648870000000  0.3984570000000  0.5096690000000 1.0
C      1  0.5900030000000  0.4537360000000  0.5131880000000 1.0
C      1  0.5482320000000  0.5845300000000  0.5140240000000 1.0
C      1  0.3984380000000  0.5270170000000  0.5236260000000 1.0
C      1  0.5516920000000  0.4117040000000  0.4872710000000 1.0
C      1  0.3888050000000  0.4753890000000  0.4954910000000 1.0
C      1  0.4675750000000  0.5984910000000  0.4820950000000 1.0
C      1  0.5903190000000  0.5410530000000  0.4871700000000 1.0
C      1  0.4398130000000  0.5911010000000  0.4874230000000 1.0
C      1  0.4355460000000  0.4037030000000  0.5145930000000 1.0
C      1  0.5753960000000  0.4268280000000  0.5066750000000 1.0
C      1  0.5775050000000  0.5696740000000  0.5016010000000 1.0
C      1  0.4950400000000  0.4909800000000  0.4986080000000 1.0
END
