TITL C-2782237-5345-296 -0.00128590351205351 125000 -724.720617141067 0 0 125 (C1) n - 1
REM
REM in /home/nfs/bkarasulu/CARBON/AIRSS/Generating-Clusters/REBO/Higher-Symm/SD-CG/HFTN-CG
REM
REM
REM
REM
REM
REM ./C.cell (12c818d87b63d06a65506943cc24bca4)
REM
REM compiler GCC version 9.2.1 20190827 (Red Hat 9.2.1-1)
REM options -cpp -mtune=generic -march=x86-64 -g -O0 -fpre-include=/usr/include/finclude/math-vector-fortran.h
REM seed 1487715286 -183137377 1517803271 -646017134 942789433 -988941868 466635412 -1959463071 -279244813 1969881112 -511004477 -704375915 -1475735927 949550643 1611202924 777496071 1093343115 -301037926 -1335151584 -1015802979 -1656096432 1558811124 1958024439 1111857199 1835092937 42821548 -1984301004 -1291582801 856639867 98721905 -32481274 -10556874 975091341
REM
CELL 1.54180   50.00000   50.00000   50.00000   90.00000   90.00000   90.00000
LATT -1
SFAC C  
C      1  0.5711230000000  0.4384040000000  0.5479530000000 1.0
C      1  0.5730660000000  0.5236110000000  0.5758710000000 1.0
C      1  0.5718620000000  0.5845580000000  0.5036200000000 1.0
C      1  0.5659760000000  0.5259310000000  0.4274660000000 1.0
C      1  0.5728160000000  0.4345040000000  0.4553100000000 1.0
C      1  0.4275350000000  0.4401450000000  0.5455690000000 1.0
C      1  0.4291830000000  0.5243480000000  0.5699400000000 1.0
C      1  0.4294180000000  0.5679010000000  0.4917190000000 1.0
C      1  0.4348450000000  0.5245630000000  0.4359380000000 1.0
C      1  0.4234540000000  0.4419160000000  0.4547820000000 1.0
C      1  0.4524010000000  0.4758780000000  0.4274720000000 1.0
C      1  0.4511840000000  0.4223990000000  0.5003880000000 1.0
C      1  0.4538320000000  0.4771780000000  0.5746880000000 1.0
C      1  0.4538970000000  0.5633070000000  0.5419900000000 1.0
C      1  0.4582870000000  0.5632240000000  0.4531320000000 1.0
C      1  0.5718330000000  0.4152170000000  0.4361760000000 1.0
C      1  0.5720710000000  0.4128920000000  0.5569400000000 1.0
C      1  0.5733060000000  0.5240230000000  0.6029700000000 1.0
C      1  0.5745260000000  0.6102560000000  0.5119360000000 1.0
C      1  0.5590170000000  0.5421250000000  0.4067560000000 1.0
C      1  0.4786220000000  0.5185540000000  0.5521870000000 1.0
C      1  0.4784410000000  0.5566920000000  0.4978810000000 1.0
C      1  0.4767200000000  0.5173830000000  0.4459560000000 1.0
C      1  0.4777020000000  0.4537710000000  0.4670070000000 1.0
C      1  0.4767280000000  0.4539730000000  0.5337500000000 1.0
C      1  0.5437880000000  0.5228470000000  0.4731880000000 1.0
C      1  0.5367230000000  0.4766780000000  0.4704510000000 1.0
C      1  0.5348850000000  0.4799320000000  0.5045100000000 1.0
C      1  0.5339120000000  0.5061470000000  0.5264900000000 1.0
C      1  0.5335770000000  0.5372350000000  0.5149390000000 1.0
C      1  0.4253680000000  0.4964830000000  0.4414440000000 1.0
C      1  0.4230810000000  0.4337160000000  0.4830830000000 1.0
C      1  0.4258230000000  0.4637500000000  0.5601840000000 1.0
C      1  0.4266540000000  0.5444940000000  0.5508530000000 1.0
C      1  0.4150370000000  0.5552950000000  0.4703120000000 1.0
C      1  0.3924950000000  0.4774650000000  0.5191920000000 1.0
C      1  0.3904670000000  0.5085300000000  0.5301510000000 1.0
C      1  0.3842340000000  0.5278690000000  0.5045670000000 1.0
C      1  0.3851180000000  0.5087170000000  0.4772100000000 1.0
C      1  0.3913640000000  0.4776880000000  0.4863110000000 1.0
C      1  0.5258000000000  0.4357390000000  0.4818850000000 1.0
C      1  0.5254530000000  0.4614370000000  0.5546440000000 1.0
C      1  0.5285690000000  0.5391480000000  0.5481780000000 1.0
C      1  0.5287310000000  0.5532750000000  0.4773300000000 1.0
C      1  0.5276300000000  0.4928370000000  0.4425130000000 1.0
C      1  0.4603720000000  0.4264550000000  0.4708380000000 1.0
C      1  0.4629600000000  0.4495320000000  0.5626370000000 1.0
C      1  0.4639020000000  0.5443670000000  0.5649860000000 1.0
C      1  0.4579390000000  0.5752810000000  0.4815430000000 1.0
C      1  0.4590620000000  0.5061800000000  0.4226340000000 1.0
C      1  0.5988630000000  0.4821420000000  0.4763850000000 1.0
C      1  0.5955150000000  0.4770390000000  0.5089420000000 1.0
C      1  0.5970030000000  0.5059480000000  0.5270060000000 1.0
C      1  0.5923610000000  0.5304190000000  0.5038120000000 1.0
C      1  0.5959760000000  0.5160510000000  0.4736240000000 1.0
C      1  0.5168860000000  0.5851080000000  0.4564120000000 1.0
C      1  0.5149510000000  0.4846020000000  0.4055530000000 1.0
C      1  0.5049070000000  0.4017720000000  0.4817270000000 1.0
C      1  0.4998480000000  0.4532460000000  0.5840900000000 1.0
C      1  0.5085380000000  0.5663550000000  0.5693740000000 1.0
C      1  0.5089630000000  0.5210630000000  0.4389020000000 1.0
C      1  0.5068560000000  0.4443880000000  0.4559200000000 1.0
C      1  0.5071910000000  0.4404940000000  0.5354120000000 1.0
C      1  0.5090880000000  0.5162850000000  0.5642570000000 1.0
C      1  0.5091030000000  0.5660420000000  0.5022090000000 1.0
C      1  0.4668700000000  0.5126550000000  0.3965670000000 1.0
C      1  0.4655690000000  0.4270040000000  0.4405180000000 1.0
C      1  0.4654170000000  0.4206970000000  0.5518740000000 1.0
C      1  0.4675760000000  0.5264630000000  0.5894040000000 1.0
C      1  0.4719840000000  0.5951560000000  0.5050450000000 1.0
C      1  0.5671550000000  0.5545570000000  0.4663390000000 1.0
C      1  0.5760950000000  0.4817380000000  0.4435870000000 1.0
C      1  0.5690500000000  0.4482710000000  0.5004990000000 1.0
C      1  0.5675090000000  0.4830810000000  0.5506500000000 1.0
C      1  0.5741320000000  0.5472650000000  0.5351230000000 1.0
C      1  0.5541110000000  0.4347870000000  0.4784250000000 1.0
C      1  0.5534120000000  0.4593050000000  0.5585530000000 1.0
C      1  0.5574630000000  0.5415260000000  0.5592870000000 1.0
C      1  0.5531170000000  0.5762110000000  0.4835080000000 1.0
C      1  0.5558940000000  0.4989470000000  0.4299890000000 1.0
C      1  0.5049290000000  0.4114710000000  0.4581190000000 1.0
C      1  0.4994970000000  0.4340000000000  0.5674820000000 1.0
C      1  0.5084390000000  0.5443350000000  0.5822270000000 1.0
C      1  0.5155160000000  0.5907390000000  0.4812750000000 1.0
C      1  0.5146550000000  0.5097990000000  0.4087730000000 1.0
C      1  0.5873440000000  0.5627280000000  0.5142990000000 1.0
C      1  0.5806790000000  0.5357040000000  0.4503990000000 1.0
C      1  0.5903800000000  0.4578940000000  0.4533330000000 1.0
C      1  0.5846300000000  0.4487620000000  0.5248450000000 1.0
C      1  0.5864440000000  0.5036210000000  0.5596470000000 1.0
C      1  0.5059240000000  0.4802250000000  0.4769480000000 1.0
C      1  0.5030740000000  0.4682300000000  0.5074860000000 1.0
C      1  0.5044340000000  0.4954290000000  0.5252710000000 1.0
C      1  0.5051500000000  0.5224170000000  0.5043770000000 1.0
C      1  0.5164890000000  0.5100700000000  0.4786120000000 1.0
C      1  0.4333190000000  0.5494210000000  0.4485380000000 1.0
C      1  0.4297630000000  0.4571230000000  0.4364260000000 1.0
C      1  0.4252330000000  0.4335000000000  0.5186910000000 1.0
C      1  0.4267870000000  0.4966080000000  0.5697020000000 1.0
C      1  0.4272650000000  0.5609450000000  0.5207540000000 1.0
C      1  0.5662080000000  0.5032650000000  0.4682250000000 1.0
C      1  0.5665170000000  0.4726310000000  0.4813280000000 1.0
C      1  0.5652470000000  0.4833020000000  0.5194430000000 1.0
C      1  0.5646930000000  0.5165300000000  0.5290030000000 1.0
C      1  0.5602960000000  0.5394770000000  0.4968650000000 1.0
C      1  0.4736910000000  0.4794490000000  0.4829110000000 1.0
C      1  0.4706280000000  0.4773860000000  0.5147050000000 1.0
C      1  0.4735210000000  0.5084790000000  0.5243070000000 1.0
C      1  0.4739530000000  0.5270390000000  0.4979130000000 1.0
C      1  0.4681840000000  0.5085840000000  0.4737720000000 1.0
C      1  0.4750450000000  0.4232360000000  0.5193060000000 1.0
C      1  0.4772190000000  0.4961740000000  0.5776170000000 1.0
C      1  0.4785960000000  0.5731430000000  0.5269720000000 1.0
C      1  0.4813260000000  0.5487740000000  0.4455370000000 1.0
C      1  0.4769770000000  0.4582990000000  0.4334380000000 1.0
C      1  0.4039650000000  0.4853070000000  0.5488880000000 1.0
C      1  0.4032440000000  0.5391170000000  0.5287540000000 1.0
C      1  0.3922700000000  0.5407120000000  0.4756560000000 1.0
C      1  0.4059670000000  0.4903580000000  0.4592100000000 1.0
C      1  0.4035550000000  0.4516880000000  0.5020040000000 1.0
C      1  0.5098290000000  0.5651950000000  0.5362030000000 1.0
C      1  0.5127190000000  0.5535390000000  0.4483120000000 1.0
C      1  0.5096220000000  0.4659860000000  0.4315820000000 1.0
C      1  0.5068660000000  0.4230380000000  0.5072330000000 1.0
C      1  0.5077280000000  0.4838060000000  0.5731530000000 1.0
END
