TITL C-2782238-9940-969 -0.00183544654336115 125000 -424.584586153459 0 0 72 (C3) n - 1
REM
REM in /home/nfs/bkarasulu/CARBON/AIRSS/Generating-Clusters/REBO/Higher-Symm/SD-CG/HFTN-CG
REM
REM
REM
REM
REM
REM ./C.cell (12c818d87b63d06a65506943cc24bca4)
REM
REM compiler GCC version 9.2.1 20190827 (Red Hat 9.2.1-1)
REM options -cpp -mtune=generic -march=x86-64 -g -O0 -fpre-include=/usr/include/finclude/math-vector-fortran.h
REM seed 2047506416 1276443480 1382764285 1353385536 -525478853 1484249734 43248523 979241944 864449922 1874001337 -1161175907 -340356368 597025768 -714421925 220192121 -974879820 -1657121451 2141050899 -290464065 -97563103 -883726780 -1953787003 1690729162 -11530641 -1248416271 -1693249136 -759734961 -1054425039 1988059679 -489645322 72603873 -426087002 1385248219
REM
CELL 1.54180   50.00000   50.00000   50.00000   90.00000   90.00000   90.00000
LATT -1
SFAC C  
C      1  0.4825190000000  0.5000970000000  0.4191270000000 1.0
C      1  0.4191290000000  0.4825070000000  0.5000950000000 1.0
C      1  0.5001070000000  0.4191270000000  0.4825150000000 1.0
C      1  0.5222210000000  0.4984060000000  0.4234590000000 1.0
C      1  0.5322770000000  0.5055660000000  0.5747040000000 1.0
C      1  0.4797270000000  0.5008810000000  0.5732190000000 1.0
C      1  0.5746990000000  0.5322880000000  0.5055670000000 1.0
C      1  0.5732220000000  0.4797380000000  0.5008860000000 1.0
C      1  0.4234560000000  0.5222100000000  0.4984000000000 1.0
C      1  0.5008770000000  0.5732200000000  0.4797310000000 1.0
C      1  0.4984100000000  0.4234580000000  0.5222170000000 1.0
C      1  0.5055550000000  0.5747030000000  0.5322820000000 1.0
C      1  0.4991690000000  0.4731850000000  0.4241230000000 1.0
C      1  0.4731920000000  0.4241210000000  0.4991610000000 1.0
C      1  0.4241250000000  0.4991560000000  0.4731810000000 1.0
C      1  0.5036850000000  0.5267920000000  0.4187740000000 1.0
C      1  0.5064470000000  0.5216950000000  0.5753700000000 1.0
C      1  0.5080320000000  0.4818370000000  0.5739450000000 1.0
C      1  0.5216870000000  0.5753710000000  0.5064540000000 1.0
C      1  0.4818290000000  0.5739430000000  0.5080330000000 1.0
C      1  0.5267990000000  0.4187760000000  0.5036850000000 1.0
C      1  0.5739450000000  0.5080400000000  0.4818400000000 1.0
C      1  0.4187720000000  0.5036760000000  0.5267880000000 1.0
C      1  0.5753680000000  0.5064600000000  0.5216980000000 1.0
C      1  0.4586680000000  0.4855200000000  0.4967610000000 1.0
C      1  0.4967670000000  0.4586660000000  0.4855230000000 1.0
C      1  0.4855260000000  0.4967620000000  0.4586660000000 1.0
C      1  0.5370820000000  0.5188160000000  0.4979630000000 1.0
C      1  0.5412090000000  0.4693480000000  0.4998810000000 1.0
C      1  0.4557620000000  0.5251300000000  0.4931410000000 1.0
C      1  0.4998770000000  0.5412060000000  0.4693440000000 1.0
C      1  0.4931460000000  0.4557640000000  0.5251340000000 1.0
C      1  0.4979570000000  0.5370840000000  0.5188120000000 1.0
C      1  0.5251370000000  0.4931460000000  0.4557660000000 1.0
C      1  0.5188110000000  0.4979630000000  0.5370850000000 1.0
C      1  0.4693420000000  0.4998760000000  0.5412050000000 1.0
C      1  0.4737330000000  0.4639560000000  0.5018190000000 1.0
C      1  0.4639590000000  0.5018170000000  0.4737280000000 1.0
C      1  0.5018240000000  0.4737300000000  0.4639580000000 1.0
C      1  0.5167570000000  0.5370090000000  0.4964680000000 1.0
C      1  0.4775360000000  0.5442070000000  0.4941780000000 1.0
C      1  0.5200370000000  0.4506360000000  0.5026800000000 1.0
C      1  0.5442110000000  0.4941840000000  0.4775420000000 1.0
C      1  0.4506330000000  0.5026750000000  0.5200300000000 1.0
C      1  0.5370070000000  0.4964710000000  0.5167620000000 1.0
C      1  0.5026800000000  0.5200330000000  0.4506350000000 1.0
C      1  0.4964640000000  0.5167600000000  0.5370070000000 1.0
C      1  0.4941790000000  0.4775390000000  0.5442090000000 1.0
C      1  0.5228090000000  0.5504210000000  0.4342440000000 1.0
C      1  0.4342380000000  0.5228040000000  0.5504160000000 1.0
C      1  0.5504240000000  0.4342470000000  0.5228130000000 1.0
C      1  0.4803230000000  0.4520990000000  0.4382950000000 1.0
C      1  0.4819610000000  0.5400120000000  0.5661220000000 1.0
C      1  0.5254620000000  0.4570830000000  0.5582690000000 1.0
C      1  0.5661220000000  0.4819730000000  0.5400170000000 1.0
C      1  0.5582680000000  0.5254670000000  0.4570840000000 1.0
C      1  0.4383000000000  0.4803100000000  0.4520970000000 1.0
C      1  0.4570740000000  0.5582640000000  0.5254590000000 1.0
C      1  0.4521070000000  0.4382910000000  0.4803130000000 1.0
C      1  0.5400090000000  0.5661260000000  0.4819700000000 1.0
C      1  0.5395660000000  0.5249380000000  0.4363360000000 1.0
C      1  0.5249380000000  0.4363360000000  0.5395660000000 1.0
C      1  0.4363290000000  0.5395590000000  0.5249310000000 1.0
C      1  0.4608610000000  0.4781210000000  0.4335070000000 1.0
C      1  0.5457980000000  0.4809560000000  0.5609540000000 1.0
C      1  0.4549350000000  0.5240800000000  0.5692960000000 1.0
C      1  0.4809440000000  0.5609500000000  0.5457980000000 1.0
C      1  0.5240810000000  0.5693000000000  0.4549420000000 1.0
C      1  0.4781330000000  0.4335070000000  0.4608550000000 1.0
C      1  0.5693010000000  0.4549470000000  0.5240880000000 1.0
C      1  0.4335140000000  0.4608500000000  0.4781210000000 1.0
C      1  0.5609490000000  0.5458050000000  0.4809550000000 1.0
END
