TITL C-2782230-7391-1267 -0.002492096154709 125000 -384.755356935913 0 0 64 (C2) n - 1
REM
REM in /home/nfs/bkarasulu/CARBON/AIRSS/Generating-Clusters/REBO/Higher-Symm/SD-CG/HFTN-CG
REM
REM
REM
REM
REM
REM ./C.cell (12c818d87b63d06a65506943cc24bca4)
REM
REM compiler GCC version 9.2.1 20190827 (Red Hat 9.2.1-1)
REM options -cpp -mtune=generic -march=x86-64 -g -O0 -fpre-include=/usr/include/finclude/math-vector-fortran.h
REM seed 93055244 -1605142491 -275369322 -509292875 493242139 971365803 -1939717466 -67896091 12656489 205147717 -630019495 274042874 686775745 667043924 1924069132 395954431 916791348 793062961 2124755849 2005133655 1232551582 -728077936 -182464338 -915784433 1982918629 -496967073 -1825343234 674973333 1530578854 -477658818 -442542069 87318014 -1464520758
REM
CELL 1.54180   50.00000   50.00000   50.00000   90.00000   90.00000   90.00000
LATT -1
SFAC C  
C      1  0.4664440000000  0.5090210000000  0.4246060000000 1.0
C      1  0.5036310000000  0.4286960000000  0.4794260000000 1.0
C      1  0.4267390000000  0.4816620000000  0.5045780000000 1.0
C      1  0.5348970000000  0.4918370000000  0.4246060000000 1.0
C      1  0.4707280000000  0.4938320000000  0.5760520000000 1.0
C      1  0.5306090000000  0.5070190000000  0.5760530000000 1.0
C      1  0.4977090000000  0.5721600000000  0.4794290000000 1.0
C      1  0.5156820000000  0.5664710000000  0.5294370000000 1.0
C      1  0.4856570000000  0.4343820000000  0.5294330000000 1.0
C      1  0.5746000000000  0.5191920000000  0.5045800000000 1.0
C      1  0.4282310000000  0.5228720000000  0.4989460000000 1.0
C      1  0.5731090000000  0.4779830000000  0.4989470000000 1.0
C      1  0.5156640000000  0.4672010000000  0.4266550000000 1.0
C      1  0.4266850000000  0.4988640000000  0.4750340000000 1.0
C      1  0.4826220000000  0.4252740000000  0.5013990000000 1.0
C      1  0.4856770000000  0.5336570000000  0.4266560000000 1.0
C      1  0.4861650000000  0.4663170000000  0.5714550000000 1.0
C      1  0.5151730000000  0.5345340000000  0.5714560000000 1.0
C      1  0.5746550000000  0.5019920000000  0.4750360000000 1.0
C      1  0.5699230000000  0.4948190000000  0.5275520000000 1.0
C      1  0.4314160000000  0.5060350000000  0.5275510000000 1.0
C      1  0.5187170000000  0.5755810000000  0.5014030000000 1.0
C      1  0.5314730000000  0.4330600000000  0.4881360000000 1.0
C      1  0.4698670000000  0.5677950000000  0.4881380000000 1.0
C      1  0.4694290000000  0.5555050000000  0.5149730000000 1.0
C      1  0.5412340000000  0.5043050000000  0.4683920000000 1.0
C      1  0.5108350000000  0.4634400000000  0.5580110000000 1.0
C      1  0.5319100000000  0.4453490000000  0.5149710000000 1.0
C      1  0.4808740000000  0.4575660000000  0.4941990000000 1.0
C      1  0.5204660000000  0.5432890000000  0.4942010000000 1.0
C      1  0.4601060000000  0.4965510000000  0.4683910000000 1.0
C      1  0.5370170000000  0.4947930000000  0.5307160000000 1.0
C      1  0.4643220000000  0.5060610000000  0.5307160000000 1.0
C      1  0.4905030000000  0.5374120000000  0.5580130000000 1.0
C      1  0.5074760000000  0.5309820000000  0.4444130000000 1.0
C      1  0.4938650000000  0.4698750000000  0.4444110000000 1.0
C      1  0.5420360000000  0.4733230000000  0.5086280000000 1.0
C      1  0.4981060000000  0.5382570000000  0.4723590000000 1.0
C      1  0.4741510000000  0.5144130000000  0.5574130000000 1.0
C      1  0.4593040000000  0.5275320000000  0.5086280000000 1.0
C      1  0.4547490000000  0.4748580000000  0.4896360000000 1.0
C      1  0.5465910000000  0.5259970000000  0.4896390000000 1.0
C      1  0.5032350000000  0.4625990000000  0.4723570000000 1.0
C      1  0.4893370000000  0.5566760000000  0.5361770000000 1.0
C      1  0.5120020000000  0.4441770000000  0.5361740000000 1.0
C      1  0.5271880000000  0.4864390000000  0.5574130000000 1.0
C      1  0.5292020000000  0.5131930000000  0.4424930000000 1.0
C      1  0.4721380000000  0.4876650000000  0.4424910000000 1.0
C      1  0.5477790000000  0.4439490000000  0.4679450000000 1.0
C      1  0.5681210000000  0.4698520000000  0.4662750000000 1.0
C      1  0.5466600000000  0.4640240000000  0.4404950000000 1.0
C      1  0.4524800000000  0.4675450000000  0.5656020000000 1.0
C      1  0.4535610000000  0.5569070000000  0.4679470000000 1.0
C      1  0.4640890000000  0.4539550000000  0.5375810000000 1.0
C      1  0.4332200000000  0.5310050000000  0.4662750000000 1.0
C      1  0.4546800000000  0.5368330000000  0.4404950000000 1.0
C      1  0.4358420000000  0.4733990000000  0.5364670000000 1.0
C      1  0.5372500000000  0.5468980000000  0.5375840000000 1.0
C      1  0.5654970000000  0.5274540000000  0.5364690000000 1.0
C      1  0.5488580000000  0.5333070000000  0.5656040000000 1.0
C      1  0.5303130000000  0.5217530000000  0.5184570000000 1.0
C      1  0.4710260000000  0.4791010000000  0.5184550000000 1.0
C      1  0.5271000000000  0.4801560000000  0.4815920000000 1.0
C      1  0.4742400000000  0.5207000000000  0.4815930000000 1.0
END
