TITL C-2782239-8622-1390 0.000515346435392562 125000 -142.204290776133 0 0 26 (C1) n - 1
REM
REM in /home/nfs/bkarasulu/CARBON/AIRSS/Generating-Clusters/REBO/Higher-Symm/SD-CG/HFTN-CG
REM
REM
REM
REM
REM
REM ./C.cell (12c818d87b63d06a65506943cc24bca4)
REM
REM compiler GCC version 9.2.1 20190827 (Red Hat 9.2.1-1)
REM options -cpp -mtune=generic -march=x86-64 -g -O0 -fpre-include=/usr/include/finclude/math-vector-fortran.h
REM seed -242123225 -1428520768 1575551168 1253657627 1691852560 525509875 -1822059991 918276451 -1778409593 -1553394311 -480220564 -746903061 1494080338 1957171817 -1871275226 118054122 -1157719318 435002390 1603062186 1502582034 -372669056 1018710510 982768310 271153452 1352176329 2004383996 317213968 -1145638354 165819418 271965954 -906617839 725545318 -1484941652
REM
CELL 1.54180   50.00000   50.00000   50.00000   90.00000   90.00000   90.00000
LATT -1
SFAC C  
C      1  0.4754610000000  0.5304000000000  0.5205520000000 1.0
C      1  0.4588400000000  0.5088440000000  0.4535530000000 1.0
C      1  0.5346970000000  0.5178130000000  0.4453600000000 1.0
C      1  0.5428790000000  0.5205900000000  0.5200670000000 1.0
C      1  0.5069590000000  0.5187590000000  0.5634340000000 1.0
C      1  0.4781700000000  0.4757400000000  0.5221830000000 1.0
C      1  0.4787800000000  0.4790940000000  0.4894060000000 1.0
C      1  0.5064490000000  0.4797300000000  0.4704820000000 1.0
C      1  0.5305300000000  0.4853570000000  0.4889500000000 1.0
C      1  0.5056950000000  0.4699530000000  0.5358680000000 1.0
C      1  0.5342760000000  0.5153580000000  0.5460370000000 1.0
C      1  0.4818990000000  0.5261840000000  0.5521410000000 1.0
C      1  0.4774350000000  0.5288360000000  0.4925970000000 1.0
C      1  0.4840270000000  0.5209720000000  0.4451910000000 1.0
C      1  0.5257210000000  0.5296960000000  0.4722610000000 1.0
C      1  0.5161660000000  0.4894120000000  0.5533260000000 1.0
C      1  0.4688340000000  0.5024470000000  0.5343330000000 1.0
C      1  0.4632070000000  0.5050220000000  0.4820500000000 1.0
C      1  0.5080540000000  0.5028870000000  0.4484560000000 1.0
C      1  0.5352860000000  0.5129630000000  0.4940790000000 1.0
C      1  0.5243170000000  0.4527760000000  0.5235410000000 1.0
C      1  0.4597660000000  0.4547090000000  0.5285320000000 1.0
C      1  0.4633740000000  0.4539580000000  0.4788200000000 1.0
C      1  0.5089670000000  0.4542430000000  0.4576610000000 1.0
C      1  0.5397570000000  0.4629200000000  0.5031860000000 1.0
C      1  0.4968370000000  0.5351730000000  0.4707700000000 1.0
END
