TITL C-2782232-2968-948 -0.000627202035658748 125000 -1101.59892822958 0 0 189 (C1) n - 1
REM
REM in /home/nfs/bkarasulu/CARBON/AIRSS/Generating-Clusters/REBO/Higher-Symm/SD-CG/HFTN-CG
REM
REM
REM
REM
REM
REM ./C.cell (12c818d87b63d06a65506943cc24bca4)
REM
REM compiler GCC version 9.2.1 20190827 (Red Hat 9.2.1-1)
REM options -cpp -mtune=generic -march=x86-64 -g -O0 -fpre-include=/usr/include/finclude/math-vector-fortran.h
REM seed -948551816 -2094837307 1965193389 1342146195 -197761314 734142488 961656228 -1448996773 2055124002 1258041339 47325329 -1819906653 -192448055 2124279386 780786552 1197633964 -1359216722 -695059156 1325726617 -205593382 -1649206411 597189195 767030232 1409667023 -902551165 -1225055165 1897470776 1780532640 -1538740916 -779313978 631768909 -1952727172 1231914188
REM
CELL 1.54180   50.00000   50.00000   50.00000   90.00000   90.00000   90.00000
LATT -1
SFAC C  
C      1  0.4501330000000  0.4467780000000  0.4099950000000 1.0
C      1  0.5092190000000  0.3996540000000  0.5349660000000 1.0
C      1  0.4694730000000  0.3972080000000  0.4511240000000 1.0
C      1  0.4757300000000  0.4515850000000  0.5255010000000 1.0
C      1  0.5552690000000  0.4501700000000  0.4210840000000 1.0
C      1  0.4479210000000  0.5054820000000  0.5885890000000 1.0
C      1  0.3939710000000  0.4924440000000  0.5115690000000 1.0
C      1  0.4889920000000  0.5104290000000  0.4581220000000 1.0
C      1  0.5035020000000  0.5497650000000  0.5427190000000 1.0
C      1  0.4237450000000  0.4406810000000  0.4221940000000 1.0
C      1  0.5299930000000  0.5047870000000  0.5398190000000 1.0
C      1  0.4967850000000  0.5345170000000  0.6122620000000 1.0
C      1  0.4381340000000  0.5266430000000  0.5635610000000 1.0
C      1  0.5212560000000  0.4173880000000  0.3850600000000 1.0
C      1  0.4209540000000  0.5501730000000  0.4457390000000 1.0
C      1  0.4208780000000  0.5362510000000  0.5084610000000 1.0
C      1  0.4903470000000  0.5698810000000  0.5107590000000 1.0
C      1  0.4168420000000  0.5753920000000  0.4779630000000 1.0
C      1  0.4675300000000  0.5317170000000  0.4180960000000 1.0
C      1  0.4071100000000  0.4522410000000  0.5365370000000 1.0
C      1  0.4640610000000  0.5227640000000  0.3871240000000 1.0
C      1  0.5529840000000  0.5482590000000  0.4240080000000 1.0
C      1  0.6377310000000  0.4922860000000  0.5270630000000 1.0
C      1  0.4996000000000  0.4429210000000  0.4692510000000 1.0
C      1  0.4430930000000  0.4018650000000  0.4721380000000 1.0
C      1  0.4029840000000  0.5087780000000  0.4858350000000 1.0
C      1  0.4949220000000  0.3935070000000  0.4447680000000 1.0
C      1  0.5305380000000  0.4127720000000  0.5515220000000 1.0
C      1  0.4645210000000  0.5807970000000  0.5301720000000 1.0
C      1  0.4873010000000  0.4881290000000  0.4910940000000 1.0
C      1  0.4464670000000  0.4139690000000  0.5029960000000 1.0
C      1  0.4696260000000  0.5646590000000  0.4610630000000 1.0
C      1  0.4207360000000  0.4852670000000  0.4075240000000 1.0
C      1  0.4910250000000  0.4247460000000  0.5849560000000 1.0
C      1  0.4563750000000  0.5171870000000  0.5216000000000 1.0
C      1  0.5708920000000  0.5671740000000  0.4451900000000 1.0
C      1  0.5354060000000  0.4834640000000  0.4436000000000 1.0
C      1  0.4595180000000  0.4434570000000  0.5000860000000 1.0
C      1  0.4335740000000  0.5781840000000  0.5409990000000 1.0
C      1  0.5751760000000  0.4963440000000  0.4175080000000 1.0
C      1  0.4721740000000  0.4060000000000  0.5668260000000 1.0
C      1  0.4318280000000  0.5041890000000  0.5033410000000 1.0
C      1  0.5927540000000  0.5510480000000  0.5417830000000 1.0
C      1  0.5003420000000  0.5256560000000  0.4866130000000 1.0
C      1  0.5436580000000  0.4974900000000  0.5094640000000 1.0
C      1  0.5565940000000  0.4556300000000  0.4830690000000 1.0
C      1  0.5201280000000  0.4575180000000  0.4383100000000 1.0
C      1  0.4438180000000  0.4174740000000  0.5676330000000 1.0
C      1  0.5272870000000  0.4641810000000  0.5378490000000 1.0
C      1  0.6066870000000  0.4972550000000  0.5657760000000 1.0
C      1  0.4502210000000  0.5542910000000  0.5563730000000 1.0
C      1  0.5468450000000  0.5514410000000  0.4728830000000 1.0
C      1  0.4806550000000  0.6115810000000  0.4962710000000 1.0
C      1  0.5483940000000  0.5319010000000  0.6124220000000 1.0
C      1  0.6628570000000  0.4987210000000  0.5181550000000 1.0
C      1  0.5897200000000  0.5204600000000  0.4963610000000 1.0
C      1  0.5587320000000  0.4672470000000  0.5386290000000 1.0
C      1  0.4796700000000  0.3939540000000  0.4936000000000 1.0
C      1  0.5046580000000  0.4419460000000  0.6088080000000 1.0
C      1  0.5461460000000  0.4536950000000  0.5817810000000 1.0
C      1  0.4569230000000  0.5010600000000  0.5503310000000 1.0
C      1  0.4266680000000  0.4287680000000  0.5447190000000 1.0
C      1  0.5393690000000  0.6096320000000  0.4425470000000 1.0
C      1  0.5277490000000  0.5387780000000  0.5641820000000 1.0
C      1  0.5887800000000  0.4602240000000  0.4605660000000 1.0
C      1  0.5937540000000  0.4596470000000  0.5208790000000 1.0
C      1  0.5125610000000  0.4670920000000  0.5649560000000 1.0
C      1  0.5623700000000  0.5240650000000  0.5861890000000 1.0
C      1  0.5592670000000  0.5297900000000  0.4523410000000 1.0
C      1  0.5940690000000  0.5167270000000  0.5823110000000 1.0
C      1  0.5308420000000  0.5684410000000  0.4122940000000 1.0
C      1  0.4269400000000  0.4669120000000  0.5556570000000 1.0
C      1  0.5355270000000  0.4833000000000  0.5933580000000 1.0
C      1  0.5182570000000  0.5373930000000  0.4621750000000 1.0
C      1  0.4572380000000  0.4542770000000  0.4699420000000 1.0
C      1  0.5828090000000  0.5476600000000  0.5731770000000 1.0
C      1  0.5478500000000  0.5825640000000  0.4614330000000 1.0
C      1  0.4804400000000  0.4849130000000  0.5986280000000 1.0
C      1  0.5709100000000  0.4971770000000  0.4909550000000 1.0
C      1  0.4205130000000  0.5333340000000  0.4212510000000 1.0
C      1  0.5883900000000  0.5595800000000  0.4883080000000 1.0
C      1  0.4518460000000  0.4767240000000  0.5058450000000 1.0
C      1  0.5187710000000  0.5781920000000  0.5489670000000 1.0
C      1  0.5592290000000  0.5470820000000  0.5008850000000 1.0
C      1  0.5563020000000  0.5666640000000  0.5628260000000 1.0
C      1  0.4079230000000  0.5123520000000  0.5568840000000 1.0
C      1  0.5239480000000  0.5157660000000  0.4404530000000 1.0
C      1  0.5831660000000  0.5188770000000  0.5423200000000 1.0
C      1  0.5691010000000  0.4928750000000  0.5517930000000 1.0
C      1  0.5062730000000  0.4705550000000  0.5963980000000 1.0
C      1  0.4644790000000  0.5966900000000  0.4720300000000 1.0
C      1  0.5077810000000  0.4536550000000  0.5165760000000 1.0
C      1  0.4378880000000  0.5742290000000  0.4387580000000 1.0
C      1  0.4027290000000  0.5427580000000  0.5315730000000 1.0
C      1  0.4727510000000  0.5675760000000  0.5738780000000 1.0
C      1  0.4957180000000  0.5351750000000  0.5701260000000 1.0
C      1  0.5354080000000  0.4315750000000  0.4503420000000 1.0
C      1  0.5798770000000  0.5213260000000  0.4274150000000 1.0
C      1  0.5293630000000  0.5669870000000  0.5182630000000 1.0
C      1  0.5576850000000  0.4115990000000  0.5309950000000 1.0
C      1  0.5146460000000  0.5924030000000  0.5030770000000 1.0
C      1  0.6168720000000  0.5128140000000  0.5376360000000 1.0
C      1  0.5223730000000  0.5871670000000  0.4314500000000 1.0
C      1  0.5673360000000  0.4360370000000  0.4499710000000 1.0
C      1  0.5365800000000  0.4782410000000  0.4832060000000 1.0
C      1  0.3943150000000  0.5549280000000  0.4638120000000 1.0
C      1  0.4257110000000  0.4276820000000  0.4471360000000 1.0
C      1  0.4101500000000  0.5886430000000  0.5387740000000 1.0
C      1  0.6249460000000  0.4671320000000  0.5295600000000 1.0
C      1  0.5295250000000  0.5752620000000  0.5798290000000 1.0
C      1  0.5361560000000  0.6053350000000  0.5257030000000 1.0
C      1  0.4689830000000  0.5138250000000  0.4923930000000 1.0
C      1  0.6025740000000  0.4710220000000  0.5519150000000 1.0
C      1  0.4833650000000  0.5083990000000  0.5669390000000 1.0
C      1  0.5090810000000  0.4666630000000  0.4874170000000 1.0
C      1  0.5641490000000  0.4227380000000  0.4813180000000 1.0
C      1  0.4751340000000  0.4793220000000  0.4622090000000 1.0
C      1  0.4954920000000  0.5736360000000  0.5810400000000 1.0
C      1  0.5195030000000  0.4043500000000  0.4437060000000 1.0
C      1  0.4818970000000  0.6063740000000  0.5245320000000 1.0
C      1  0.4585990000000  0.5476940000000  0.5242880000000 1.0
C      1  0.6069880000000  0.5288900000000  0.5118870000000 1.0
C      1  0.4216480000000  0.5064040000000  0.4267800000000 1.0
C      1  0.5861200000000  0.4697800000000  0.4909420000000 1.0
C      1  0.5523330000000  0.5027900000000  0.4651930000000 1.0
C      1  0.3905010000000  0.5052550000000  0.5362870000000 1.0
C      1  0.4706170000000  0.5351420000000  0.4475190000000 1.0
C      1  0.3792940000000  0.5299280000000  0.4616770000000 1.0
C      1  0.4510290000000  0.4771950000000  0.4027400000000 1.0
C      1  0.4569040000000  0.4276340000000  0.4551610000000 1.0
C      1  0.4766720000000  0.4382810000000  0.4177510000000 1.0
C      1  0.5628820000000  0.4473560000000  0.5142110000000 1.0
C      1  0.5194440000000  0.4345730000000  0.5725040000000 1.0
C      1  0.4291720000000  0.4722780000000  0.4627840000000 1.0
C      1  0.5337910000000  0.4345810000000  0.5081100000000 1.0
C      1  0.5500650000000  0.4805480000000  0.4063620000000 1.0
C      1  0.4411000000000  0.5404570000000  0.4024880000000 1.0
C      1  0.5163470000000  0.4058430000000  0.5077090000000 1.0
C      1  0.4643740000000  0.4435350000000  0.5772960000000 1.0
C      1  0.5798510000000  0.5666920000000  0.5194990000000 1.0
C      1  0.4974420000000  0.5889060000000  0.4763140000000 1.0
C      1  0.5285490000000  0.5288440000000  0.4100120000000 1.0
C      1  0.4814090000000  0.4831220000000  0.5224840000000 1.0
C      1  0.4820530000000  0.3963750000000  0.5421700000000 1.0
C      1  0.4355980000000  0.5910730000000  0.4614060000000 1.0
C      1  0.5198680000000  0.5231540000000  0.6285810000000 1.0
C      1  0.4063040000000  0.4641490000000  0.4215370000000 1.0
C      1  0.4266810000000  0.4310180000000  0.4810770000000 1.0
C      1  0.4420350000000  0.4967720000000  0.4483750000000 1.0
C      1  0.5078520000000  0.5537930000000  0.4005160000000 1.0
C      1  0.4606870000000  0.4766760000000  0.5746170000000 1.0
C      1  0.3883050000000  0.4996840000000  0.4593960000000 1.0
C      1  0.4512300000000  0.5185930000000  0.4678430000000 1.0
C      1  0.5151080000000  0.5712770000000  0.4590230000000 1.0
C      1  0.5232520000000  0.5470530000000  0.5968770000000 1.0
C      1  0.4028110000000  0.4658290000000  0.5119390000000 1.0
C      1  0.4235880000000  0.4903230000000  0.5702000000000 1.0
C      1  0.5279890000000  0.4376990000000  0.4115780000000 1.0
C      1  0.4323120000000  0.5630240000000  0.4984100000000 1.0
C      1  0.4850170000000  0.4175310000000  0.4817420000000 1.0
C      1  0.5540210000000  0.5354000000000  0.5488060000000 1.0
C      1  0.5250310000000  0.4951920000000  0.4068210000000 1.0
C      1  0.5074460000000  0.5419260000000  0.5108940000000 1.0
C      1  0.4633590000000  0.5633440000000  0.4939130000000 1.0
C      1  0.5558290000000  0.5799440000000  0.5340250000000 1.0
C      1  0.4771750000000  0.5167440000000  0.6002160000000 1.0
C      1  0.4628390000000  0.4952410000000  0.3804880000000 1.0
C      1  0.5919220000000  0.5615650000000  0.4617320000000 1.0
C      1  0.4246930000000  0.4607700000000  0.4921500000000 1.0
C      1  0.4999220000000  0.4920520000000  0.5458320000000 1.0
C      1  0.5401280000000  0.4995800000000  0.6190280000000 1.0
C      1  0.4833090000000  0.5663390000000  0.4064110000000 1.0
C      1  0.5639790000000  0.4086100000000  0.5046950000000 1.0
C      1  0.4656410000000  0.5704430000000  0.4275870000000 1.0
C      1  0.4996150000000  0.4944870000000  0.4296140000000 1.0
C      1  0.4545660000000  0.4492340000000  0.5465730000000 1.0
C      1  0.5453280000000  0.5281910000000  0.5192790000000 1.0
C      1  0.4885930000000  0.4508120000000  0.4407350000000 1.0
C      1  0.5702150000000  0.4730620000000  0.5764440000000 1.0
C      1  0.5062330000000  0.6068110000000  0.5392660000000 1.0
C      1  0.4673380000000  0.4866210000000  0.4296900000000 1.0
C      1  0.4969210000000  0.4282960000000  0.4015950000000 1.0
C      1  0.5684150000000  0.4747200000000  0.4408670000000 1.0
C      1  0.5243310000000  0.4223590000000  0.4790790000000 1.0
C      1  0.4007750000000  0.4763560000000  0.4483730000000 1.0
C      1  0.5541520000000  0.4372380000000  0.5531160000000 1.0
C      1  0.5446150000000  0.5031810000000  0.5705270000000 1.0
C      1  0.4250190000000  0.5320520000000  0.4744880000000 1.0
C      1  0.4650320000000  0.3943260000000  0.5197590000000 1.0
END
