TITL C-2782239-8622-1305 0.00782278956567713 125000 -848.475753136939 0 0 148 (C1) n - 1
REM
REM in /home/nfs/bkarasulu/CARBON/AIRSS/Generating-Clusters/REBO/Higher-Symm/SD-CG/HFTN-CG
REM
REM
REM
REM
REM
REM ./C.cell (12c818d87b63d06a65506943cc24bca4)
REM
REM compiler GCC version 9.2.1 20190827 (Red Hat 9.2.1-1)
REM options -cpp -mtune=generic -march=x86-64 -g -O0 -fpre-include=/usr/include/finclude/math-vector-fortran.h
REM seed 2105154510 -721515465 -731696847 1145333194 2052864152 -1673897301 -1980874824 -464112696 -1248943812 -37632816 -1516180210 -120705445 -591673025 495250609 20355045 -2133696063 -796715019 861575067 -1685611831 117183665 -1643283014 511597202 546762668 1648188751 -742684393 1927350901 -519028262 -309152881 924590298 2129515276 -936727051 -897778759 -2099768015
REM
CELL 1.54180   50.00000   50.00000   50.00000   90.00000   90.00000   90.00000
LATT -1
SFAC C  
C      1  0.4986730000000  0.5843530000000  0.4820160000000 1.0
C      1  0.5035470000000  0.5814720000000  0.5224470000000 1.0
C      1  0.4913370000000  0.4173320000000  0.4751080000000 1.0
C      1  0.4970130000000  0.4142170000000  0.5301690000000 1.0
C      1  0.4740030000000  0.5786870000000  0.5051290000000 1.0
C      1  0.5282140000000  0.5850930000000  0.4987190000000 1.0
C      1  0.4747970000000  0.4188650000000  0.5048140000000 1.0
C      1  0.5141550000000  0.4147290000000  0.5004050000000 1.0
C      1  0.4511490000000  0.4744600000000  0.5321220000000 1.0
C      1  0.5664520000000  0.4959530000000  0.4655080000000 1.0
C      1  0.5416370000000  0.5185360000000  0.5178590000000 1.0
C      1  0.4507010000000  0.5155140000000  0.4711270000000 1.0
C      1  0.5391980000000  0.4835140000000  0.4534260000000 1.0
C      1  0.4796020000000  0.4827500000000  0.5448960000000 1.0
C      1  0.5303950000000  0.5266450000000  0.5471410000000 1.0
C      1  0.4735510000000  0.5164420000000  0.4514000000000 1.0
C      1  0.5339570000000  0.4284230000000  0.5249770000000 1.0
C      1  0.4585380000000  0.4391580000000  0.4821250000000 1.0
C      1  0.4530160000000  0.5589920000000  0.5252960000000 1.0
C      1  0.5481160000000  0.5627720000000  0.4781930000000 1.0
C      1  0.5152630000000  0.4383810000000  0.5503040000000 1.0
C      1  0.4736930000000  0.4386760000000  0.4533400000000 1.0
C      1  0.5212900000000  0.5670660000000  0.4614100000000 1.0
C      1  0.4796310000000  0.5663830000000  0.5426720000000 1.0
C      1  0.4031960000000  0.5251020000000  0.5343980000000 1.0
C      1  0.5974030000000  0.5283380000000  0.4703960000000 1.0
C      1  0.5958560000000  0.4771610000000  0.5287770000000 1.0
C      1  0.4061870000000  0.4666900000000  0.4672420000000 1.0
C      1  0.5368440000000  0.5377930000000  0.4081190000000 1.0
C      1  0.4692050000000  0.5309640000000  0.5923890000000 1.0
C      1  0.5296090000000  0.4745830000000  0.5944970000000 1.0
C      1  0.4692610000000  0.4698370000000  0.4039820000000 1.0
C      1  0.5458040000000  0.4168150000000  0.4891360000000 1.0
C      1  0.4457790000000  0.4232100000000  0.5164890000000 1.0
C      1  0.4431960000000  0.5769270000000  0.4911060000000 1.0
C      1  0.5579990000000  0.5875280000000  0.5077960000000 1.0
C      1  0.4863510000000  0.4129820000000  0.5604170000000 1.0
C      1  0.5056870000000  0.4164590000000  0.4452520000000 1.0
C      1  0.4862240000000  0.5828850000000  0.4512940000000 1.0
C      1  0.5164110000000  0.5779730000000  0.5529020000000 1.0
C      1  0.5906680000000  0.4980000000000  0.4458780000000 1.0
C      1  0.4292350000000  0.4955110000000  0.5401450000000 1.0
C      1  0.4264080000000  0.4999930000000  0.4589480000000 1.0
C      1  0.5674670000000  0.5049080000000  0.5284640000000 1.0
C      1  0.4654360000000  0.4992220000000  0.5684220000000 1.0
C      1  0.5468930000000  0.5043590000000  0.4275920000000 1.0
C      1  0.4615260000000  0.5020310000000  0.4260690000000 1.0
C      1  0.5349030000000  0.5039350000000  0.5680220000000 1.0
C      1  0.5303550000000  0.4514890000000  0.5012060000000 1.0
C      1  0.4838690000000  0.4570310000000  0.4971800000000 1.0
C      1  0.4642920000000  0.5405060000000  0.4990000000000 1.0
C      1  0.5237840000000  0.5458840000000  0.4952230000000 1.0
C      1  0.5023780000000  0.4525550000000  0.5219000000000 1.0
C      1  0.4980610000000  0.4557790000000  0.4681170000000 1.0
C      1  0.4984430000000  0.5461310000000  0.4718760000000 1.0
C      1  0.4900080000000  0.5462890000000  0.5173720000000 1.0
C      1  0.4548870000000  0.4514710000000  0.4301980000000 1.0
C      1  0.5388960000000  0.4483760000000  0.5731910000000 1.0
C      1  0.5437720000000  0.5543570000000  0.4387570000000 1.0
C      1  0.4587540000000  0.5503080000000  0.5644790000000 1.0
C      1  0.4351660000000  0.4477570000000  0.4585390000000 1.0
C      1  0.5539240000000  0.4312500000000  0.5496180000000 1.0
C      1  0.4298340000000  0.5452310000000  0.5462500000000 1.0
C      1  0.5719920000000  0.5490900000000  0.4582160000000 1.0
C      1  0.4845410000000  0.5279230000000  0.4061070000000 1.0
C      1  0.5212420000000  0.5310660000000  0.5939610000000 1.0
C      1  0.5214570000000  0.4794780000000  0.4061410000000 1.0
C      1  0.4787380000000  0.4756570000000  0.5974300000000 1.0
C      1  0.4054280000000  0.5243030000000  0.4827540000000 1.0
C      1  0.5985010000000  0.5285760000000  0.5200120000000 1.0
C      1  0.4061200000000  0.4690640000000  0.5211390000000 1.0
C      1  0.5914850000000  0.4698080000000  0.4822540000000 1.0
C      1  0.4722250000000  0.5519690000000  0.4498720000000 1.0
C      1  0.5391060000000  0.5579420000000  0.5529290000000 1.0
C      1  0.5275750000000  0.4511390000000  0.4523580000000 1.0
C      1  0.4786840000000  0.4498250000000  0.5468970000000 1.0
C      1  0.4470680000000  0.5511920000000  0.4710730000000 1.0
C      1  0.5464320000000  0.5513690000000  0.5203660000000 1.0
C      1  0.4461500000000  0.4425580000000  0.5396360000000 1.0
C      1  0.5493810000000  0.4454740000000  0.4734380000000 1.0
C      1  0.5588050000000  0.4755660000000  0.4196750000000 1.0
C      1  0.4420070000000  0.4800170000000  0.5823500000000 1.0
C      1  0.4381410000000  0.5246100000000  0.4179440000000 1.0
C      1  0.5640630000000  0.5188900000000  0.5768860000000 1.0
C      1  0.4181010000000  0.4782680000000  0.5669040000000 1.0
C      1  0.5805300000000  0.4712500000000  0.4373990000000 1.0
C      1  0.4177290000000  0.5229150000000  0.4366950000000 1.0
C      1  0.5799320000000  0.5217290000000  0.5542800000000 1.0
C      1  0.4161860000000  0.5368850000000  0.5080820000000 1.0
C      1  0.5827670000000  0.5424840000000  0.4960750000000 1.0
C      1  0.5803510000000  0.4578420000000  0.5084040000000 1.0
C      1  0.4175560000000  0.4574650000000  0.4957060000000 1.0
C      1  0.5074040000000  0.5417740000000  0.4200070000000 1.0
C      1  0.4966020000000  0.5436290000000  0.5816390000000 1.0
C      1  0.5019530000000  0.4596450000000  0.5816390000000 1.0
C      1  0.4972440000000  0.4614990000000  0.4172810000000 1.0
C      1  0.5642840000000  0.5313420000000  0.4235750000000 1.0
C      1  0.4430450000000  0.5224940000000  0.5761930000000 1.0
C      1  0.4400250000000  0.4783620000000  0.4154930000000 1.0
C      1  0.5558090000000  0.4779020000000  0.5730680000000 1.0
C      1  0.4165650000000  0.5179070000000  0.5625990000000 1.0
C      1  0.5914020000000  0.5290300000000  0.4380510000000 1.0
C      1  0.4232660000000  0.4735290000000  0.4404550000000 1.0
C      1  0.5771720000000  0.4821010000000  0.5524760000000 1.0
C      1  0.4999380000000  0.5707100000000  0.4279770000000 1.0
C      1  0.5005490000000  0.5735280000000  0.5755950000000 1.0
C      1  0.5036310000000  0.4325820000000  0.4263100000000 1.0
C      1  0.4898290000000  0.4292980000000  0.5794330000000 1.0
C      1  0.4197930000000  0.5680690000000  0.5054120000000 1.0
C      1  0.5769030000000  0.5716660000000  0.5042970000000 1.0
C      1  0.4244360000000  0.4278340000000  0.4993440000000 1.0
C      1  0.5690720000000  0.4289370000000  0.5040560000000 1.0
C      1  0.4855040000000  0.5027320000000  0.6027360000000 1.0
C      1  0.5193900000000  0.5095640000000  0.3996700000000 1.0
C      1  0.5147630000000  0.5043540000000  0.6023050000000 1.0
C      1  0.4874870000000  0.4980400000000  0.3971660000000 1.0
C      1  0.6014050000000  0.4975980000000  0.4847880000000 1.0
C      1  0.3972210000000  0.4966050000000  0.5164710000000 1.0
C      1  0.6045720000000  0.5013920000000  0.5139640000000 1.0
C      1  0.3978910000000  0.4948150000000  0.4853150000000 1.0
C      1  0.5364670000000  0.4564890000000  0.4220830000000 1.0
C      1  0.4628090000000  0.4583580000000  0.5757420000000 1.0
C      1  0.4625500000000  0.5412840000000  0.4188770000000 1.0
C      1  0.5445620000000  0.5405580000000  0.5816700000000 1.0
C      1  0.4170990000000  0.4578660000000  0.5447520000000 1.0
C      1  0.5762100000000  0.4573220000000  0.4620470000000 1.0
C      1  0.4169140000000  0.5386970000000  0.4613840000000 1.0
C      1  0.5762330000000  0.5461340000000  0.5351480000000 1.0
C      1  0.5037660000000  0.5228550000000  0.5308920000000 1.0
C      1  0.5021230000000  0.5143190000000  0.4667590000000 1.0
C      1  0.5048870000000  0.4918390000000  0.5287160000000 1.0
C      1  0.5080140000000  0.4849040000000  0.4592320000000 1.0
C      1  0.5185720000000  0.5123480000000  0.4953720000000 1.0
C      1  0.4609690000000  0.5085050000000  0.4990240000000 1.0
C      1  0.5248020000000  0.4830900000000  0.5050450000000 1.0
C      1  0.4630330000000  0.4783890000000  0.5041300000000 1.0
C      1  0.4835300000000  0.4797050000000  0.4397610000000 1.0
C      1  0.5171980000000  0.4776950000000  0.5569930000000 1.0
C      1  0.5207590000000  0.5216960000000  0.4405090000000 1.0
C      1  0.4867880000000  0.5229070000000  0.5577890000000 1.0
C      1  0.4405770000000  0.4786780000000  0.4823750000000 1.0
C      1  0.5565260000000  0.4773570000000  0.5168610000000 1.0
C      1  0.4394090000000  0.5173600000000  0.5198820000000 1.0
C      1  0.5609560000000  0.5198310000000  0.4830760000000 1.0
C      1  0.5393260000000  0.4670890000000  0.5383780000000 1.0
C      1  0.4601090000000  0.4787750000000  0.4585740000000 1.0
C      1  0.4641950000000  0.5225810000000  0.5363010000000 1.0
C      1  0.5402720000000  0.5260410000000  0.4650880000000 1.0
END
