TITL C-2782231-7322-61 0.000227585804204991 125000 -234.949998156375 0 0 42 (C1) n - 1
REM
REM in /home/nfs/bkarasulu/CARBON/AIRSS/Generating-Clusters/REBO/Higher-Symm/SD-CG/HFTN-CG
REM
REM
REM
REM
REM
REM ./C.cell (12c818d87b63d06a65506943cc24bca4)
REM
REM compiler GCC version 9.2.1 20190827 (Red Hat 9.2.1-1)
REM options -cpp -mtune=generic -march=x86-64 -g -O0 -fpre-include=/usr/include/finclude/math-vector-fortran.h
REM seed 229099520 1045872 2113507884 994665100 38697442 839557727 -668423067 -1034187337 -553062100 1329543479 -1796810359 1837556497 463760862 461148906 1442086484 -414743881 -531902783 -1206918304 180039968 -920066705 300559432 1136891426 986143710 -880394154 586316505 -367631672 1970929500 229852456 77222458 344190287 1932122251 -1242133963 266559479
REM
CELL 1.54180   50.00000   50.00000   50.00000   90.00000   90.00000   90.00000
LATT -1
SFAC C  
C      1  0.4922390000000  0.5381020000000  0.5435520000000 1.0
C      1  0.5098000000000  0.4613470000000  0.5441600000000 1.0
C      1  0.5233890000000  0.5327610000000  0.5441330000000 1.0
C      1  0.4792360000000  0.4675370000000  0.5412710000000 1.0
C      1  0.4729810000000  0.5215940000000  0.5564080000000 1.0
C      1  0.5283400000000  0.4781050000000  0.5582470000000 1.0
C      1  0.5338940000000  0.5090840000000  0.5634030000000 1.0
C      1  0.4676270000000  0.4904090000000  0.5610860000000 1.0
C      1  0.4574170000000  0.5276470000000  0.5113000000000 1.0
C      1  0.5466760000000  0.4716320000000  0.5139860000000 1.0
C      1  0.5444430000000  0.5301080000000  0.5167130000000 1.0
C      1  0.4593600000000  0.4706830000000  0.5133960000000 1.0
C      1  0.4668530000000  0.5820800000000  0.4724400000000 1.0
C      1  0.5299720000000  0.4202320000000  0.4733570000000 1.0
C      1  0.5254830000000  0.5802330000000  0.4733950000000 1.0
C      1  0.4708890000000  0.4173330000000  0.4735550000000 1.0
C      1  0.5523150000000  0.4835900000000  0.5391490000000 1.0
C      1  0.4504480000000  0.5162100000000  0.5362240000000 1.0
C      1  0.4445210000000  0.4862370000000  0.5372360000000 1.0
C      1  0.5579600000000  0.5136200000000  0.5405420000000 1.0
C      1  0.4558490000000  0.4850730000000  0.4868170000000 1.0
C      1  0.5442970000000  0.5152440000000  0.4899260000000 1.0
C      1  0.5455190000000  0.4864870000000  0.4899470000000 1.0
C      1  0.4552170000000  0.5134800000000  0.4870380000000 1.0
C      1  0.4798920000000  0.5559150000000  0.4798340000000 1.0
C      1  0.5155550000000  0.4448570000000  0.4838750000000 1.0
C      1  0.5116270000000  0.5551660000000  0.4838900000000 1.0
C      1  0.4836370000000  0.4439360000000  0.4799400000000 1.0
C      1  0.5220200000000  0.4519220000000  0.5153730000000 1.0
C      1  0.4833100000000  0.5479580000000  0.5122400000000 1.0
C      1  0.4881430000000  0.4525360000000  0.5118330000000 1.0
C      1  0.5172650000000  0.5494310000000  0.5150480000000 1.0
C      1  0.4695700000000  0.5301050000000  0.4649060000000 1.0
C      1  0.5256980000000  0.4725990000000  0.4718690000000 1.0
C      1  0.5232620000000  0.5280460000000  0.4715060000000 1.0
C      1  0.4718440000000  0.4693100000000  0.4644410000000 1.0
C      1  0.5177240000000  0.4833520000000  0.4427850000000 1.0
C      1  0.4829280000000  0.5169870000000  0.4387780000000 1.0
C      1  0.4863990000000  0.4857870000000  0.4384810000000 1.0
C      1  0.5143090000000  0.5141340000000  0.4417850000000 1.0
C      1  0.4951340000000  0.5131430000000  0.4766180000000 1.0
C      1  0.4969590000000  0.4859850000000  0.4768320000000 1.0
END
