TITL C-2782238-9940-807 0.00263985406492713 125000 -782.658988137866 0 0 133 (C1) n - 1
REM
REM in /home/nfs/bkarasulu/CARBON/AIRSS/Generating-Clusters/REBO/Higher-Symm/SD-CG/HFTN-CG
REM
REM
REM
REM
REM
REM ./C.cell (12c818d87b63d06a65506943cc24bca4)
REM
REM compiler GCC version 9.2.1 20190827 (Red Hat 9.2.1-1)
REM options -cpp -mtune=generic -march=x86-64 -g -O0 -fpre-include=/usr/include/finclude/math-vector-fortran.h
REM seed 21401903 869124116 -1510122662 1771138728 1182282117 154340828 -1773199232 -359101750 -760910475 1083161925 1208372564 1305536755 1258588384 -1448750662 6952796 2117227682 1011724531 -1655274507 -1825986683 -692620231 949011011 1083075982 131533634 -494229965 1129285165 1903128604 1785548048 544347722 -554057801 -892876996 -1958251208 -95973077 288540837
REM
CELL 1.54180   50.00000   50.00000   50.00000   90.00000   90.00000   90.00000
LATT -1
SFAC C  
C      1  0.5306840000000  0.5901950000000  0.4732490000000 1.0
C      1  0.5567390000000  0.5244830000000  0.5365760000000 1.0
C      1  0.4185560000000  0.5493120000000  0.4963470000000 1.0
C      1  0.5101030000000  0.4496150000000  0.4763400000000 1.0
C      1  0.4227060000000  0.5374480000000  0.4703100000000 1.0
C      1  0.4406240000000  0.5094840000000  0.5615990000000 1.0
C      1  0.4850070000000  0.4803640000000  0.4788640000000 1.0
C      1  0.5300360000000  0.5144640000000  0.4543410000000 1.0
C      1  0.4621950000000  0.4964810000000  0.4588490000000 1.0
C      1  0.5295710000000  0.5440040000000  0.5411010000000 1.0
C      1  0.4796690000000  0.4562470000000  0.4273510000000 1.0
C      1  0.5835410000000  0.3939850000000  0.5275840000000 1.0
C      1  0.4724970000000  0.5773910000000  0.5488550000000 1.0
C      1  0.4948610000000  0.4994960000000  0.5474320000000 1.0
C      1  0.5023490000000  0.6021490000000  0.5148700000000 1.0
C      1  0.4744240000000  0.5887330000000  0.5196980000000 1.0
C      1  0.5491220000000  0.4075490000000  0.4986450000000 1.0
C      1  0.4751500000000  0.4911680000000  0.5693790000000 1.0
C      1  0.5018670000000  0.4977230000000  0.4565740000000 1.0
C      1  0.4815230000000  0.4253290000000  0.5746020000000 1.0
C      1  0.5363080000000  0.3994060000000  0.5251100000000 1.0
C      1  0.4800630000000  0.3963990000000  0.5004050000000 1.0
C      1  0.4221830000000  0.4497090000000  0.5150930000000 1.0
C      1  0.4509470000000  0.4680500000000  0.4153210000000 1.0
C      1  0.5859790000000  0.5382090000000  0.4793750000000 1.0
C      1  0.4183810000000  0.4966600000000  0.5396890000000 1.0
C      1  0.5780480000000  0.5474790000000  0.5336300000000 1.0
C      1  0.5484540000000  0.5477430000000  0.4893160000000 1.0
C      1  0.4372500000000  0.4192140000000  0.5135200000000 1.0
C      1  0.5652980000000  0.4855480000000  0.5537150000000 1.0
C      1  0.5108630000000  0.4051310000000  0.5370440000000 1.0
C      1  0.4888930000000  0.5707320000000  0.4214810000000 1.0
C      1  0.5239550000000  0.4649160000000  0.4525690000000 1.0
C      1  0.4386780000000  0.4754160000000  0.5054600000000 1.0
C      1  0.4971340000000  0.5180230000000  0.4814070000000 1.0
C      1  0.5318590000000  0.4158830000000  0.4781480000000 1.0
C      1  0.5505920000000  0.5070830000000  0.3957650000000 1.0
C      1  0.4828890000000  0.4343660000000  0.4890360000000 1.0
C      1  0.4979680000000  0.4941380000000  0.4064600000000 1.0
C      1  0.5180560000000  0.5751000000000  0.4233670000000 1.0
C      1  0.4147950000000  0.4985080000000  0.5064430000000 1.0
C      1  0.4976940000000  0.4542870000000  0.5532110000000 1.0
C      1  0.5552110000000  0.5021290000000  0.5750750000000 1.0
C      1  0.5507280000000  0.5799670000000  0.4974140000000 1.0
C      1  0.5511650000000  0.5492040000000  0.4482470000000 1.0
C      1  0.4535270000000  0.5047640000000  0.5141670000000 1.0
C      1  0.5649470000000  0.5540930000000  0.5615760000000 1.0
C      1  0.4832770000000  0.4025640000000  0.5287730000000 1.0
C      1  0.5224810000000  0.5058880000000  0.3933900000000 1.0
C      1  0.5457820000000  0.4672810000000  0.5416940000000 1.0
C      1  0.5143150000000  0.5251100000000  0.5077690000000 1.0
C      1  0.4549770000000  0.5042180000000  0.5919950000000 1.0
C      1  0.4686750000000  0.5516760000000  0.5918020000000 1.0
C      1  0.4555740000000  0.4663120000000  0.4485050000000 1.0
C      1  0.4952030000000  0.4748740000000  0.5289690000000 1.0
C      1  0.4219760000000  0.4457740000000  0.4817190000000 1.0
C      1  0.5429500000000  0.4882750000000  0.4652110000000 1.0
C      1  0.5732790000000  0.5282760000000  0.4502900000000 1.0
C      1  0.5779160000000  0.4042390000000  0.5018170000000 1.0
C      1  0.4884860000000  0.5402350000000  0.4472940000000 1.0
C      1  0.4313370000000  0.5745120000000  0.4983650000000 1.0
C      1  0.4356850000000  0.4358150000000  0.5432250000000 1.0
C      1  0.4640540000000  0.4171250000000  0.5465960000000 1.0
C      1  0.4604450000000  0.4420870000000  0.5068530000000 1.0
C      1  0.4902010000000  0.5313770000000  0.5410500000000 1.0
C      1  0.4978420000000  0.5568410000000  0.4728470000000 1.0
C      1  0.4835720000000  0.5457450000000  0.4079860000000 1.0
C      1  0.4233200000000  0.4970120000000  0.4758720000000 1.0
C      1  0.4566280000000  0.5861870000000  0.4936200000000 1.0
C      1  0.5590880000000  0.5368720000000  0.4024540000000 1.0
C      1  0.5323890000000  0.5083110000000  0.5235640000000 1.0
C      1  0.4730620000000  0.5880280000000  0.4699570000000 1.0
C      1  0.5121240000000  0.4255450000000  0.5592710000000 1.0
C      1  0.4773240000000  0.5557140000000  0.5120890000000 1.0
C      1  0.5372190000000  0.5794420000000  0.4480790000000 1.0
C      1  0.5025680000000  0.5876150000000  0.4776180000000 1.0
C      1  0.5066430000000  0.4704650000000  0.5011880000000 1.0
C      1  0.5108980000000  0.5316280000000  0.4040700000000 1.0
C      1  0.4653980000000  0.4528620000000  0.5638470000000 1.0
C      1  0.4353400000000  0.5383090000000  0.4431050000000 1.0
C      1  0.5238440000000  0.4943650000000  0.5834220000000 1.0
C      1  0.4572280000000  0.4879460000000  0.5407810000000 1.0
C      1  0.4468340000000  0.4738920000000  0.5785910000000 1.0
C      1  0.4783580000000  0.5251320000000  0.5971520000000 1.0
C      1  0.5921060000000  0.5049050000000  0.4759740000000 1.0
C      1  0.5765000000000  0.5588200000000  0.5048750000000 1.0
C      1  0.4641390000000  0.5234360000000  0.4390320000000 1.0
C      1  0.5013560000000  0.4457230000000  0.5920450000000 1.0
C      1  0.4711770000000  0.5388330000000  0.4832870000000 1.0
C      1  0.4487590000000  0.5196700000000  0.4756700000000 1.0
C      1  0.5401410000000  0.5720930000000  0.5578490000000 1.0
C      1  0.4359240000000  0.4218230000000  0.4737020000000 1.0
C      1  0.5837320000000  0.4941450000000  0.5062190000000 1.0
C      1  0.5421670000000  0.4363360000000  0.4530010000000 1.0
C      1  0.5261260000000  0.5429000000000  0.4695570000000 1.0
C      1  0.5110580000000  0.5554600000000  0.5172130000000 1.0
C      1  0.4658320000000  0.4586450000000  0.5305890000000 1.0
C      1  0.5228940000000  0.5136510000000  0.5551930000000 1.0
C      1  0.4718470000000  0.5137680000000  0.4087470000000 1.0
C      1  0.4892860000000  0.4315440000000  0.4570040000000 1.0
C      1  0.5432430000000  0.5552340000000  0.4173330000000 1.0
C      1  0.5621430000000  0.4640870000000  0.4506850000000 1.0
C      1  0.5256230000000  0.5399790000000  0.5884440000000 1.0
C      1  0.5049460000000  0.4085500000000  0.4844560000000 1.0
C      1  0.5138900000000  0.4667770000000  0.5910850000000 1.0
C      1  0.4265820000000  0.4668190000000  0.5540160000000 1.0
C      1  0.5241420000000  0.4278440000000  0.4262410000000 1.0
C      1  0.4714580000000  0.5819370000000  0.4417120000000 1.0
C      1  0.4573910000000  0.4640790000000  0.4814940000000 1.0
C      1  0.4540590000000  0.4038990000000  0.4907070000000 1.0
C      1  0.5365620000000  0.4457940000000  0.5549730000000 1.0
C      1  0.5733280000000  0.5118450000000  0.4206560000000 1.0
C      1  0.5124720000000  0.5317620000000  0.4336660000000 1.0
C      1  0.4964800000000  0.4293360000000  0.4288640000000 1.0
C      1  0.4937400000000  0.5559790000000  0.5542070000000 1.0
C      1  0.4202660000000  0.5261580000000  0.5211890000000 1.0
C      1  0.5785210000000  0.4938460000000  0.4482590000000 1.0
C      1  0.5523990000000  0.4910210000000  0.4935760000000 1.0
C      1  0.5592390000000  0.3906990000000  0.5417680000000 1.0
C      1  0.4830030000000  0.5144910000000  0.5123920000000 1.0
C      1  0.5874460000000  0.4901540000000  0.5362770000000 1.0
C      1  0.5059010000000  0.5191950000000  0.5941910000000 1.0
C      1  0.5226180000000  0.5832230000000  0.5118380000000 1.0
C      1  0.5018390000000  0.4773790000000  0.4313160000000 1.0
C      1  0.4520450000000  0.5380070000000  0.5213350000000 1.0
C      1  0.5533310000000  0.5317340000000  0.5787870000000 1.0
C      1  0.4447510000000  0.5384030000000  0.5523750000000 1.0
C      1  0.5642700000000  0.5212040000000  0.4992460000000 1.0
C      1  0.4504510000000  0.4918150000000  0.4009360000000 1.0
C      1  0.5334990000000  0.4786460000000  0.5150480000000 1.0
C      1  0.4206100000000  0.4707920000000  0.4673180000000 1.0
C      1  0.4561310000000  0.5595100000000  0.5670810000000 1.0
C      1  0.5151980000000  0.5627230000000  0.5731340000000 1.0
END
