TITL C-2782234-8014-131 0.0110393822836584 125000 -1172.99095597552 0 0 196 (C1) n - 1
REM
REM in /home/nfs/bkarasulu/CARBON/AIRSS/Generating-Clusters/REBO/Higher-Symm/SD-CG/HFTN-CG
REM
REM
REM
REM
REM
REM ./C.cell (12c818d87b63d06a65506943cc24bca4)
REM
REM compiler GCC version 9.2.1 20190827 (Red Hat 9.2.1-1)
REM options -cpp -mtune=generic -march=x86-64 -g -O0 -fpre-include=/usr/include/finclude/math-vector-fortran.h
REM seed 860095499 531211240 -112372580 1175602181 -230443064 156952282 1101368968 -94832366 -835793810 -333773958 1113248649 802108782 -505680091 -1865321616 905576786 1179549217 588052172 69163037 -1331212929 -1001606748 -1767873358 578340381 447058830 2035296009 1795984133 155484594 196079761 -1466905797 895162439 -651240278 -2054263415 -692542690 -1971922653
REM
CELL 1.54180   50.00000   50.00000   50.00000   90.00000   90.00000   90.00000
LATT -1
SFAC C  
C      1  0.4250270000000  0.4452820000000  0.5551270000000 1.0
C      1  0.4235300000000  0.4821450000000  0.4277170000000 1.0
C      1  0.4211630000000  0.5759590000000  0.5149370000000 1.0
C      1  0.4189040000000  0.4562660000000  0.4451260000000 1.0
C      1  0.4241580000000  0.4741150000000  0.5671320000000 1.0
C      1  0.4173330000000  0.5771790000000  0.4811650000000 1.0
C      1  0.4865430000000  0.4772340000000  0.4859850000000 1.0
C      1  0.4904730000000  0.5276970000000  0.4876490000000 1.0
C      1  0.5067630000000  0.5007120000000  0.5306520000000 1.0
C      1  0.4945440000000  0.4739430000000  0.5163890000000 1.0
C      1  0.4952150000000  0.5256270000000  0.5205170000000 1.0
C      1  0.5018460000000  0.5043930000000  0.4734120000000 1.0
C      1  0.4693470000000  0.5062780000000  0.4047630000000 1.0
C      1  0.4707720000000  0.5686010000000  0.5585140000000 1.0
C      1  0.4701080000000  0.4152960000000  0.5365190000000 1.0
C      1  0.4665090000000  0.5042200000000  0.5951220000000 1.0
C      1  0.4662840000000  0.5738230000000  0.4414360000000 1.0
C      1  0.4689600000000  0.4203030000000  0.4625630000000 1.0
C      1  0.4524830000000  0.4567140000000  0.4057110000000 1.0
C      1  0.4567600000000  0.5951410000000  0.5145910000000 1.0
C      1  0.4567100000000  0.4326320000000  0.5855550000000 1.0
C      1  0.4479910000000  0.4560880000000  0.6025430000000 1.0
C      1  0.4539370000000  0.5919520000000  0.4828910000000 1.0
C      1  0.4535020000000  0.4415440000000  0.4319050000000 1.0
C      1  0.5908350000000  0.4497610000000  0.4738810000000 1.0
C      1  0.5714950000000  0.5440540000000  0.4715900000000 1.0
C      1  0.5875680000000  0.5016940000000  0.5565160000000 1.0
C      1  0.5794360000000  0.4559440000000  0.5275090000000 1.0
C      1  0.5744300000000  0.5487650000000  0.5254790000000 1.0
C      1  0.5794600000000  0.4955430000000  0.4451960000000 1.0
C      1  0.5530460000000  0.4086040000000  0.5305570000000 1.0
C      1  0.5576780000000  0.5283520000000  0.4105860000000 1.0
C      1  0.5509060000000  0.5704290000000  0.5667200000000 1.0
C      1  0.5573860000000  0.4138110000000  0.4700000000000 1.0
C      1  0.5546250000000  0.5157230000000  0.5922950000000 1.0
C      1  0.5544050000000  0.5608150000000  0.4211440000000 1.0
C      1  0.3995050000000  0.4598290000000  0.5392000000000 1.0
C      1  0.3992910000000  0.4906970000000  0.4482660000000 1.0
C      1  0.4047030000000  0.5541230000000  0.5286960000000 1.0
C      1  0.3932530000000  0.4605370000000  0.4640770000000 1.0
C      1  0.4018800000000  0.4917080000000  0.5507870000000 1.0
C      1  0.4021480000000  0.5543900000000  0.4698310000000 1.0
C      1  0.4624090000000  0.5291730000000  0.5159970000000 1.0
C      1  0.4413070000000  0.4803940000000  0.5129840000000 1.0
C      1  0.4424060000000  0.5074720000000  0.4727910000000 1.0
C      1  0.4578000000000  0.5299430000000  0.4839720000000 1.0
C      1  0.4536560000000  0.4803770000000  0.4846490000000 1.0
C      1  0.4454320000000  0.5093960000000  0.5272330000000 1.0
C      1  0.4446410000000  0.4834940000000  0.4102530000000 1.0
C      1  0.4434380000000  0.5796580000000  0.5409640000000 1.0
C      1  0.4483400000000  0.4298360000000  0.5585480000000 1.0
C      1  0.4429720000000  0.4803740000000  0.5881730000000 1.0
C      1  0.4366240000000  0.5866580000000  0.4540250000000 1.0
C      1  0.4371330000000  0.4315410000000  0.4582420000000 1.0
C      1  0.5513290000000  0.4711440000000  0.5227330000000 1.0
C      1  0.5325390000000  0.5037830000000  0.4741800000000 1.0
C      1  0.5509820000000  0.5253160000000  0.5186030000000 1.0
C      1  0.5411960000000  0.4766790000000  0.4930590000000 1.0
C      1  0.5393930000000  0.4998220000000  0.5311920000000 1.0
C      1  0.5444090000000  0.5300570000000  0.4855840000000 1.0
C      1  0.5310450000000  0.4543250000000  0.4716960000000 1.0
C      1  0.5233360000000  0.5566130000000  0.4881400000000 1.0
C      1  0.5304950000000  0.4928560000000  0.5617440000000 1.0
C      1  0.5280760000000  0.4637280000000  0.5439540000000 1.0
C      1  0.5281670000000  0.5478840000000  0.5174160000000 1.0
C      1  0.5388050000000  0.4772500000000  0.4538570000000 1.0
C      1  0.5060400000000  0.5240770000000  0.6133160000000 1.0
C      1  0.5076180000000  0.3921650000000  0.4688070000000 1.0
C      1  0.5067310000000  0.5792370000000  0.4129660000000 1.0
C      1  0.5031920000000  0.5268060000000  0.3841390000000 1.0
C      1  0.5095360000000  0.3923150000000  0.5279730000000 1.0
C      1  0.5074380000000  0.5773790000000  0.5819020000000 1.0
C      1  0.4799660000000  0.5627890000000  0.5903680000000 1.0
C      1  0.4806140000000  0.3914920000000  0.5146170000000 1.0
C      1  0.4744950000000  0.5380190000000  0.3928310000000 1.0
C      1  0.4773700000000  0.5675090000000  0.4097330000000 1.0
C      1  0.4780000000000  0.3927090000000  0.4807100000000 1.0
C      1  0.4760060000000  0.5343740000000  0.6083760000000 1.0
C      1  0.5135030000000  0.4377860000000  0.5864450000000 1.0
C      1  0.5324710000000  0.4747840000000  0.4248690000000 1.0
C      1  0.5158850000000  0.6040620000000  0.5190780000000 1.0
C      1  0.5191030000000  0.4461870000000  0.4162580000000 1.0
C      1  0.5256120000000  0.4666980000000  0.5820290000000 1.0
C      1  0.5162050000000  0.5899910000000  0.4888430000000 1.0
C      1  0.6015930000000  0.4388920000000  0.4166260000000 1.0
C      1  0.6061060000000  0.5889550000000  0.4768160000000 1.0
C      1  0.5846660000000  0.4621230000000  0.5963730000000 1.0
C      1  0.5976540000000  0.4388370000000  0.5805670000000 1.0
C      1  0.6008160000000  0.5908470000000  0.5040250000000 1.0
C      1  0.5894680000000  0.4624650000000  0.3998270000000 1.0
C      1  0.5429560000000  0.4147050000000  0.5579270000000 1.0
C      1  0.5483620000000  0.4989890000000  0.3974690000000 1.0
C      1  0.5405530000000  0.5903600000000  0.5480990000000 1.0
C      1  0.5494930000000  0.4197760000000  0.4422240000000 1.0
C      1  0.5443550000000  0.4924310000000  0.6056180000000 1.0
C      1  0.5465460000000  0.5807710000000  0.4477960000000 1.0
C      1  0.4291010000000  0.5638090000000  0.4316540000000 1.0
C      1  0.4430410000000  0.5139210000000  0.5665910000000 1.0
C      1  0.4291120000000  0.4244910000000  0.4864260000000 1.0
C      1  0.4330580000000  0.5609850000000  0.5661100000000 1.0
C      1  0.4410140000000  0.5180560000000  0.4298740000000 1.0
C      1  0.4401680000000  0.4335060000000  0.5178310000000 1.0
C      1  0.4751890000000  0.5995000000000  0.5484860000000 1.0
C      1  0.4794250000000  0.4061570000000  0.5679570000000 1.0
C      1  0.4873450000000  0.4812980000000  0.3915960000000 1.0
C      1  0.4771600000000  0.6033530000000  0.4546760000000 1.0
C      1  0.4771630000000  0.4204440000000  0.4294600000000 1.0
C      1  0.4808250000000  0.4775670000000  0.6097070000000 1.0
C      1  0.5197560000000  0.5453420000000  0.4566300000000 1.0
C      1  0.5194710000000  0.5188240000000  0.5714690000000 1.0
C      1  0.5226920000000  0.4312630000000  0.4886500000000 1.0
C      1  0.5255820000000  0.5439650000000  0.5491690000000 1.0
C      1  0.5221950000000  0.5222720000000  0.4307410000000 1.0
C      1  0.5279930000000  0.4384340000000  0.5215300000000 1.0
C      1  0.5311780000000  0.5371610000000  0.5970620000000 1.0
C      1  0.5339040000000  0.4005120000000  0.4860340000000 1.0
C      1  0.5295810000000  0.5685840000000  0.3992470000000 1.0
C      1  0.5280100000000  0.5379340000000  0.4009170000000 1.0
C      1  0.5348920000000  0.3923690000000  0.5149540000000 1.0
C      1  0.5325610000000  0.5653630000000  0.5884070000000 1.0
C      1  0.5210750000000  0.4124380000000  0.4502080000000 1.0
C      1  0.5179880000000  0.5818640000000  0.4390080000000 1.0
C      1  0.5153640000000  0.4959990000000  0.6077910000000 1.0
C      1  0.5138110000000  0.4090580000000  0.5512310000000 1.0
C      1  0.5124810000000  0.5903110000000  0.5564590000000 1.0
C      1  0.5190080000000  0.4999110000000  0.3930560000000 1.0
C      1  0.4928870000000  0.5447630000000  0.5572410000000 1.0
C      1  0.4955060000000  0.4282580000000  0.5174910000000 1.0
C      1  0.4882450000000  0.5235010000000  0.4270450000000 1.0
C      1  0.4889760000000  0.5481160000000  0.4423670000000 1.0
C      1  0.4898930000000  0.4296520000000  0.4877410000000 1.0
C      1  0.4869980000000  0.5203690000000  0.5731930000000 1.0
C      1  0.4605990000000  0.4634850000000  0.4559370000000 1.0
C      1  0.4521390000000  0.5587520000000  0.4756380000000 1.0
C      1  0.4569720000000  0.4879610000000  0.5490020000000 1.0
C      1  0.4538470000000  0.4582430000000  0.5309710000000 1.0
C      1  0.4572690000000  0.5615070000000  0.5084730000000 1.0
C      1  0.4571770000000  0.4959280000000  0.4460880000000 1.0
C      1  0.4890830000000  0.4855260000000  0.5542030000000 1.0
C      1  0.4931720000000  0.4573440000000  0.4592130000000 1.0
C      1  0.4848670000000  0.5601780000000  0.4799480000000 1.0
C      1  0.4896150000000  0.4890770000000  0.4471460000000 1.0
C      1  0.4833290000000  0.4561830000000  0.5429840000000 1.0
C      1  0.4897130000000  0.5580230000000  0.5136190000000 1.0
C      1  0.5539290000000  0.5102450000000  0.4375280000000 1.0
C      1  0.5596930000000  0.5439960000000  0.5528100000000 1.0
C      1  0.5616370000000  0.4337590000000  0.5140320000000 1.0
C      1  0.5697830000000  0.5202210000000  0.5690330000000 1.0
C      1  0.5521680000000  0.5412820000000  0.4479980000000 1.0
C      1  0.5724660000000  0.4312170000000  0.4855060000000 1.0
C      1  0.5941850000000  0.4996970000000  0.4695330000000 1.0
C      1  0.5915570000000  0.5257350000000  0.5121440000000 1.0
C      1  0.5952350000000  0.4780700000000  0.5136790000000 1.0
C      1  0.5945710000000  0.5026540000000  0.5280260000000 1.0
C      1  0.5914970000000  0.5244830000000  0.4837200000000 1.0
C      1  0.5970560000000  0.4756000000000  0.4858180000000 1.0
C      1  0.4765500000000  0.4542760000000  0.3914860000000 1.0
C      1  0.4836640000000  0.6154450000000  0.5199020000000 1.0
C      1  0.4865990000000  0.4235900000000  0.5964470000000 1.0
C      1  0.4755890000000  0.4486340000000  0.6166470000000 1.0
C      1  0.4844340000000  0.6062180000000  0.4880290000000 1.0
C      1  0.4928080000000  0.4344510000000  0.4034920000000 1.0
C      1  0.4088750000000  0.4780880000000  0.5138960000000 1.0
C      1  0.4117020000000  0.5074270000000  0.4740120000000 1.0
C      1  0.4009930000000  0.5312920000000  0.5130660000000 1.0
C      1  0.3984820000000  0.4816410000000  0.4867570000000 1.0
C      1  0.4143390000000  0.5075810000000  0.5244700000000 1.0
C      1  0.4000980000000  0.5317720000000  0.4858850000000 1.0
C      1  0.4998560000000  0.5813320000000  0.4613940000000 1.0
C      1  0.4980590000000  0.4832100000000  0.5826750000000 1.0
C      1  0.5028070000000  0.4351300000000  0.4419750000000 1.0
C      1  0.4971470000000  0.5797470000000  0.5309170000000 1.0
C      1  0.5039900000000  0.4878490000000  0.4201560000000 1.0
C      1  0.4957790000000  0.4350000000000  0.5593700000000 1.0
C      1  0.4105350000000  0.5465690000000  0.5563920000000 1.0
C      1  0.4079180000000  0.4383300000000  0.5169650000000 1.0
C      1  0.4125660000000  0.5196160000000  0.4360860000000 1.0
C      1  0.4078040000000  0.5475580000000  0.4421790000000 1.0
C      1  0.3991240000000  0.4383390000000  0.4869580000000 1.0
C      1  0.4141820000000  0.5186820000000  0.5626600000000 1.0
C      1  0.5893690000000  0.4741970000000  0.4300870000000 1.0
C      1  0.5730370000000  0.5755860000000  0.5117930000000 1.0
C      1  0.5935280000000  0.4509630000000  0.5526810000000 1.0
C      1  0.5934510000000  0.4771140000000  0.5701690000000 1.0
C      1  0.5766920000000  0.5721860000000  0.4783810000000 1.0
C      1  0.5974520000000  0.4481060000000  0.4462810000000 1.0
C      1  0.5494630000000  0.5903600000000  0.4804370000000 1.0
C      1  0.5547400000000  0.4610820000000  0.5974640000000 1.0
C      1  0.5500790000000  0.4393420000000  0.4209500000000 1.0
C      1  0.5466400000000  0.5933050000000  0.5147360000000 1.0
C      1  0.5587710000000  0.4684010000000  0.4051650000000 1.0
C      1  0.5451250000000  0.4322660000000  0.5815930000000 1.0
C      1  0.4544150000000  0.5413690000000  0.5825280000000 1.0
C      1  0.4517030000000  0.5459050000000  0.4170070000000 1.0
C      1  0.4543880000000  0.4078660000000  0.5005530000000 1.0
C      1  0.5650210000000  0.4975840000000  0.4964290000000 1.0
END
