TITL C-2782232-2968-1143 -0.00162986082418051 125000 -1011.18037046939 0 0 173 (C1) n - 1
REM
REM in /home/nfs/bkarasulu/CARBON/AIRSS/Generating-Clusters/REBO/Higher-Symm/SD-CG/HFTN-CG
REM
REM
REM
REM
REM
REM ./C.cell (12c818d87b63d06a65506943cc24bca4)
REM
REM compiler GCC version 9.2.1 20190827 (Red Hat 9.2.1-1)
REM options -cpp -mtune=generic -march=x86-64 -g -O0 -fpre-include=/usr/include/finclude/math-vector-fortran.h
REM seed 1110549455 -305444777 1920227835 -1717420649 -891247164 759427937 328307666 -430035865 -1514485869 -1002154210 -346999623 -1470625795 -1920205175 -931349755 366141129 -178518544 -585320504 340861349 1634217543 2032111616 1509195151 300980279 -1846833608 -357497225 462816720 -255875130 -460014880 -2059020607 677801684 361469277 -662947907 629048871 -280462974
REM
CELL 1.54180   50.00000   50.00000   50.00000   90.00000   90.00000   90.00000
LATT -1
SFAC C  
C      1  0.4412340000000  0.4968730000000  0.4700140000000 1.0
C      1  0.4410040000000  0.5260480000000  0.5127950000000 1.0
C      1  0.4419940000000  0.4740590000000  0.5211390000000 1.0
C      1  0.5845890000000  0.4944540000000  0.4418560000000 1.0
C      1  0.5839570000000  0.5664680000000  0.5238540000000 1.0
C      1  0.5846350000000  0.4490200000000  0.5373380000000 1.0
C      1  0.4623330000000  0.4294310000000  0.4410540000000 1.0
C      1  0.4652220000000  0.5944700000000  0.4581770000000 1.0
C      1  0.4649170000000  0.4913210000000  0.5966360000000 1.0
C      1  0.5639760000000  0.5344820000000  0.4916980000000 1.0
C      1  0.5669160000000  0.4942330000000  0.5306410000000 1.0
C      1  0.5671940000000  0.4757320000000  0.4818340000000 1.0
C      1  0.4792980000000  0.5948200000000  0.5158900000000 1.0
C      1  0.4735700000000  0.4364190000000  0.5717600000000 1.0
C      1  0.4725300000000  0.4684800000000  0.4118440000000 1.0
C      1  0.5451850000000  0.4452640000000  0.4687230000000 1.0
C      1  0.5451860000000  0.5606810000000  0.4680260000000 1.0
C      1  0.5379980000000  0.4958700000000  0.5580960000000 1.0
C      1  0.5147430000000  0.5907400000000  0.5466000000000 1.0
C      1  0.5147720000000  0.4170470000000  0.5643830000000 1.0
C      1  0.5192900000000  0.4863460000000  0.3982040000000 1.0
C      1  0.4424070000000  0.4185980000000  0.5277090000000 1.0
C      1  0.4389270000000  0.5129010000000  0.4171700000000 1.0
C      1  0.4410650000000  0.5696430000000  0.5451170000000 1.0
C      1  0.5134640000000  0.5374470000000  0.4083250000000 1.0
C      1  0.5159330000000  0.5446640000000  0.5759110000000 1.0
C      1  0.5086680000000  0.4122180000000  0.5115300000000 1.0
C      1  0.5426530000000  0.4185950000000  0.5469660000000 1.0
C      1  0.5460560000000  0.5008440000000  0.4083790000000 1.0
C      1  0.5411750000000  0.5787820000000  0.5514180000000 1.0
C      1  0.3949720000000  0.4490540000000  0.5292660000000 1.0
C      1  0.3923390000000  0.5007360000000  0.4482660000000 1.0
C      1  0.3899080000000  0.5436020000000  0.5300740000000 1.0
C      1  0.4829740000000  0.3933730000000  0.4733430000000 1.0
C      1  0.4829710000000  0.5725290000000  0.4120610000000 1.0
C      1  0.4864360000000  0.5405590000000  0.6023180000000 1.0
C      1  0.4333230000000  0.5569270000000  0.4437820000000 1.0
C      1  0.4342830000000  0.5273120000000  0.5775030000000 1.0
C      1  0.4293920000000  0.4224000000000  0.4795240000000 1.0
C      1  0.4977910000000  0.5102480000000  0.4012150000000 1.0
C      1  0.4882510000000  0.5823680000000  0.5614770000000 1.0
C      1  0.4931720000000  0.4136490000000  0.5393520000000 1.0
C      1  0.5587850000000  0.5249370000000  0.5404060000000 1.0
C      1  0.5683800000000  0.4496220000000  0.5008310000000 1.0
C      1  0.5600430000000  0.5251740000000  0.4593640000000 1.0
C      1  0.5034170000000  0.4586190000000  0.4013910000000 1.0
C      1  0.5079630000000  0.6005010000000  0.5182720000000 1.0
C      1  0.5017710000000  0.4342440000000  0.5907070000000 1.0
C      1  0.5091610000000  0.4439010000000  0.5355880000000 1.0
C      1  0.5059080000000  0.4993010000000  0.4332470000000 1.0
C      1  0.5003620000000  0.5616420000000  0.5232800000000 1.0
C      1  0.5929600000000  0.5328440000000  0.5049280000000 1.0
C      1  0.5993860000000  0.4922570000000  0.5253450000000 1.0
C      1  0.5967740000000  0.4907730000000  0.4794360000000 1.0
C      1  0.5186340000000  0.5555490000000  0.4743180000000 1.0
C      1  0.5156230000000  0.4789750000000  0.5694900000000 1.0
C      1  0.5195870000000  0.4515520000000  0.4529770000000 1.0
C      1  0.5411660000000  0.5546090000000  0.5645620000000 1.0
C      1  0.5382240000000  0.4155140000000  0.5191130000000 1.0
C      1  0.5421720000000  0.5285510000000  0.4151240000000 1.0
C      1  0.4914950000000  0.5076890000000  0.6098070000000 1.0
C      1  0.4834070000000  0.4033310000000  0.4428760000000 1.0
C      1  0.4952070000000  0.5890090000000  0.4462420000000 1.0
C      1  0.5236660000000  0.4676850000000  0.5159510000000 1.0
C      1  0.5201760000000  0.4949650000000  0.4634840000000 1.0
C      1  0.5200030000000  0.5172030000000  0.5092500000000 1.0
C      1  0.4058550000000  0.4805410000000  0.5360800000000 1.0
C      1  0.4057890000000  0.4785520000000  0.4705710000000 1.0
C      1  0.4027450000000  0.5291500000000  0.5020290000000 1.0
C      1  0.4037320000000  0.4695060000000  0.5033690000000 1.0
C      1  0.3987940000000  0.5107240000000  0.4796440000000 1.0
C      1  0.4013100000000  0.5114310000000  0.5313870000000 1.0
C      1  0.5981940000000  0.4397310000000  0.5075060000000 1.0
C      1  0.5990410000000  0.5212540000000  0.4518540000000 1.0
C      1  0.5888450000000  0.5366390000000  0.5382180000000 1.0
C      1  0.4466470000000  0.4820000000000  0.4298910000000 1.0
C      1  0.4466520000000  0.5676600000000  0.5118190000000 1.0
C      1  0.4503120000000  0.4550020000000  0.5552410000000 1.0
C      1  0.4433290000000  0.5730660000000  0.4724510000000 1.0
C      1  0.4368720000000  0.4935210000000  0.5814090000000 1.0
C      1  0.4362520000000  0.4408710000000  0.4528000000000 1.0
C      1  0.5331970000000  0.4715250000000  0.4846710000000 1.0
C      1  0.5350750000000  0.5196520000000  0.4818460000000 1.0
C      1  0.5331510000000  0.4971070000000  0.5274960000000 1.0
C      1  0.4414060000000  0.4040800000000  0.5032290000000 1.0
C      1  0.4403790000000  0.5439190000000  0.4153620000000 1.0
C      1  0.4483770000000  0.5567220000000  0.5729510000000 1.0
C      1  0.4589860000000  0.5576300000000  0.4003030000000 1.0
C      1  0.4761120000000  0.5626840000000  0.5806070000000 1.0
C      1  0.4597210000000  0.3859350000000  0.4942260000000 1.0
C      1  0.4893610000000  0.4586420000000  0.4387180000000 1.0
C      1  0.4712870000000  0.5748700000000  0.4921880000000 1.0
C      1  0.4844740000000  0.4672170000000  0.5718080000000 1.0
C      1  0.5125220000000  0.5706430000000  0.4134910000000 1.0
C      1  0.5193860000000  0.5358040000000  0.6047560000000 1.0
C      1  0.5104210000000  0.3970010000000  0.4842270000000 1.0
C      1  0.4679880000000  0.4409850000000  0.5020600000000 1.0
C      1  0.4668910000000  0.5319300000000  0.4427250000000 1.0
C      1  0.4700730000000  0.5324020000000  0.5499140000000 1.0
C      1  0.5236720000000  0.4359210000000  0.4168150000000 1.0
C      1  0.5216930000000  0.6046190000000  0.4873420000000 1.0
C      1  0.5237890000000  0.4576760000000  0.6018730000000 1.0
C      1  0.5600500000000  0.5816100000000  0.5303430000000 1.0
C      1  0.5613310000000  0.4376450000000  0.5569680000000 1.0
C      1  0.5640350000000  0.4825780000000  0.4199230000000 1.0
C      1  0.5001040000000  0.4269570000000  0.4600820000000 1.0
C      1  0.5022300000000  0.5622050000000  0.4511070000000 1.0
C      1  0.5074230000000  0.5053560000000  0.5820010000000 1.0
C      1  0.4289110000000  0.4525710000000  0.4902030000000 1.0
C      1  0.4314120000000  0.5354730000000  0.4668180000000 1.0
C      1  0.4287380000000  0.5150460000000  0.5490510000000 1.0
C      1  0.4743460000000  0.5548830000000  0.5270550000000 1.0
C      1  0.4760530000000  0.4494000000000  0.5341520000000 1.0
C      1  0.4742450000000  0.5025320000000  0.4322970000000 1.0
C      1  0.5501970000000  0.4600520000000  0.5800260000000 1.0
C      1  0.5518080000000  0.4520820000000  0.4280150000000 1.0
C      1  0.5436040000000  0.5887900000000  0.5044630000000 1.0
C      1  0.5425690000000  0.5379780000000  0.5165780000000 1.0
C      1  0.5555110000000  0.4633550000000  0.5268900000000 1.0
C      1  0.5539320000000  0.4932480000000  0.4568440000000 1.0
C      1  0.5524700000000  0.5491750000000  0.4376990000000 1.0
C      1  0.5495160000000  0.5232710000000  0.5725580000000 1.0
C      1  0.5508700000000  0.4236570000000  0.4923580000000 1.0
C      1  0.4660890000000  0.5141310000000  0.4693570000000 1.0
C      1  0.4713270000000  0.5159530000000  0.5203280000000 1.0
C      1  0.4700030000000  0.4754840000000  0.5053860000000 1.0
C      1  0.4237020000000  0.5441230000000  0.5337900000000 1.0
C      1  0.4282940000000  0.4455050000000  0.5234830000000 1.0
C      1  0.4238010000000  0.5096500000000  0.4474300000000 1.0
C      1  0.4904740000000  0.4289310000000  0.4216050000000 1.0
C      1  0.4940230000000  0.6080990000000  0.4708820000000 1.0
C      1  0.4940220000000  0.4742570000000  0.6028180000000 1.0
C      1  0.4226030000000  0.5552860000000  0.4931600000000 1.0
C      1  0.4287490000000  0.4740120000000  0.5605360000000 1.0
C      1  0.4276330000000  0.4662680000000  0.4481800000000 1.0
C      1  0.5941810000000  0.4758710000000  0.5531070000000 1.0
C      1  0.5965780000000  0.4675430000000  0.4561540000000 1.0
C      1  0.5910940000000  0.5635910000000  0.4906080000000 1.0
C      1  0.4667270000000  0.5909220000000  0.5418230000000 1.0
C      1  0.4626230000000  0.4147780000000  0.5478710000000 1.0
C      1  0.4654510000000  0.4997590000000  0.3998670000000 1.0
C      1  0.5625820000000  0.5753080000000  0.4843620000000 1.0
C      1  0.5674220000000  0.4869650000000  0.5699550000000 1.0
C      1  0.5721720000000  0.4454100000000  0.4530220000000 1.0
C      1  0.5341290000000  0.4158730000000  0.4423750000000 1.0
C      1  0.5329690000000  0.5966820000000  0.4559430000000 1.0
C      1  0.5370810000000  0.4884050000000  0.6079020000000 1.0
C      1  0.5336550000000  0.4071010000000  0.4687040000000 1.0
C      1  0.5344560000000  0.5780110000000  0.4337230000000 1.0
C      1  0.5402870000000  0.5149970000000  0.6024520000000 1.0
C      1  0.4579910000000  0.5374910000000  0.4883810000000 1.0
C      1  0.4520240000000  0.4983790000000  0.5394030000000 1.0
C      1  0.4518470000000  0.4695620000000  0.4796730000000 1.0
C      1  0.5998760000000  0.5412210000000  0.4665110000000 1.0
C      1  0.5905130000000  0.5095550000000  0.5588020000000 1.0
C      1  0.5975380000000  0.4397450000000  0.4753200000000 1.0
C      1  0.4664760000000  0.5223730000000  0.5824330000000 1.0
C      1  0.4632520000000  0.4211380000000  0.4744920000000 1.0
C      1  0.4639160000000  0.5659760000000  0.4390140000000 1.0
C      1  0.4970020000000  0.4355810000000  0.4898180000000 1.0
C      1  0.4949730000000  0.5414410000000  0.4341250000000 1.0
C      1  0.4990090000000  0.5243080000000  0.5594590000000 1.0
C      1  0.4904580000000  0.4947130000000  0.4772470000000 1.0
C      1  0.4913280000000  0.5187450000000  0.4999850000000 1.0
C      1  0.4928440000000  0.4789040000000  0.5255280000000 1.0
C      1  0.5237690000000  0.4499350000000  0.5626630000000 1.0
C      1  0.5259790000000  0.4738000000000  0.4298700000000 1.0
C      1  0.5266630000000  0.5639710000000  0.5172890000000 1.0
C      1  0.4833710000000  0.4947720000000  0.5519190000000 1.0
C      1  0.4840790000000  0.4617280000000  0.4711530000000 1.0
C      1  0.4899600000000  0.5491440000000  0.4868450000000 1.0
C      1  0.4315360000000  0.4981520000000  0.5012730000000 1.0
C      1  0.6047470000000  0.5057220000000  0.5014090000000 1.0
END
