TITL C-2782232-2968-1210 7.08861118218914e-05 125000 -701.082789583868 0 0 122 (C2) n - 1
REM
REM in /home/nfs/bkarasulu/CARBON/AIRSS/Generating-Clusters/REBO/Higher-Symm/SD-CG/HFTN-CG
REM
REM
REM
REM
REM
REM ./C.cell (12c818d87b63d06a65506943cc24bca4)
REM
REM compiler GCC version 9.2.1 20190827 (Red Hat 9.2.1-1)
REM options -cpp -mtune=generic -march=x86-64 -g -O0 -fpre-include=/usr/include/finclude/math-vector-fortran.h
REM seed 1824947615 1319968741 -1271307838 2099482634 154385508 -581481077 -859964452 738660589 -812700328 1883313644 -2144277420 2073742844 234638736 -160414145 1723304210 -1218518676 1818396074 -437029955 -1819241415 2137328785 445783510 1478734910 87361257 -972021613 1048433772 1685691092 156067714 1008830742 1461941503 1714562454 925259648 -813966279 -924161875
REM
CELL 1.54180   50.00000   50.00000   50.00000   90.00000   90.00000   90.00000
LATT -1
SFAC C  
C      1  0.4860800000000  0.4833640000000  0.4781200000000 1.0
C      1  0.5128030000000  0.5042740000000  0.4722030000000 1.0
C      1  0.4864210000000  0.5229270000000  0.4839260000000 1.0
C      1  0.5134810000000  0.5270470000000  0.5049400000000 1.0
C      1  0.4860830000000  0.5160520000000  0.5228580000000 1.0
C      1  0.5128050000000  0.4951400000000  0.5287730000000 1.0
C      1  0.4864200000000  0.4764890000000  0.5170520000000 1.0
C      1  0.5134780000000  0.4723670000000  0.4960360000000 1.0
C      1  0.5415830000000  0.4887740000000  0.4452280000000 1.0
C      1  0.4564100000000  0.5291310000000  0.4512380000000 1.0
C      1  0.5422980000000  0.5548150000000  0.4876600000000 1.0
C      1  0.4589870000000  0.5459280000000  0.5319370000000 1.0
C      1  0.5415890000000  0.5106370000000  0.5557450000000 1.0
C      1  0.4564110000000  0.4702870000000  0.5497420000000 1.0
C      1  0.5422930000000  0.4445960000000  0.5133140000000 1.0
C      1  0.4589800000000  0.4534900000000  0.4690430000000 1.0
C      1  0.4643370000000  0.4149410000000  0.5269920000000 1.0
C      1  0.5353900000000  0.4214620000000  0.4580390000000 1.0
C      1  0.4645910000000  0.4739300000000  0.4121950000000 1.0
C      1  0.5361460000000  0.5421700000000  0.4199590000000 1.0
C      1  0.4643430000000  0.5844770000000  0.4739880000000 1.0
C      1  0.5354010000000  0.5779500000000  0.5429350000000 1.0
C      1  0.4646000000000  0.5254870000000  0.5887840000000 1.0
C      1  0.5361480000000  0.4572420000000  0.5810150000000 1.0
C      1  0.4247070000000  0.5197070000000  0.4536370000000 1.0
C      1  0.5737670000000  0.5456490000000  0.4823840000000 1.0
C      1  0.4278360000000  0.5431630000000  0.5212660000000 1.0
C      1  0.5726580000000  0.5162070000000  0.5455960000000 1.0
C      1  0.4247080000000  0.4797150000000  0.5473450000000 1.0
C      1  0.5737640000000  0.4537580000000  0.5185870000000 1.0
C      1  0.4278300000000  0.4562590000000  0.4797160000000 1.0
C      1  0.5726530000000  0.4832010000000  0.4553750000000 1.0
C      1  0.4971250000000  0.5194380000000  0.5940520000000 1.0
C      1  0.5042160000000  0.4531000000000  0.5816540000000 1.0
C      1  0.4960220000000  0.4093810000000  0.5229990000000 1.0
C      1  0.5040300000000  0.4199790000000  0.4508770000000 1.0
C      1  0.4971160000000  0.4799770000000  0.4069250000000 1.0
C      1  0.5042140000000  0.5463140000000  0.4193230000000 1.0
C      1  0.4960280000000  0.5900340000000  0.4779780000000 1.0
C      1  0.5040410000000  0.5794360000000  0.5500990000000 1.0
C      1  0.4538840000000  0.4148100000000  0.4769150000000 1.0
C      1  0.5463820000000  0.4562460000000  0.4227780000000 1.0
C      1  0.4532190000000  0.5232190000000  0.4119630000000 1.0
C      1  0.5465500000000  0.5778760000000  0.4554640000000 1.0
C      1  0.4538930000000  0.5846090000000  0.5240650000000 1.0
C      1  0.5463920000000  0.5431640000000  0.5781950000000 1.0
C      1  0.4532230000000  0.4762000000000  0.5890170000000 1.0
C      1  0.5465460000000  0.4215340000000  0.5455100000000 1.0
C      1  0.5523690000000  0.4437910000000  0.5609630000000 1.0
C      1  0.4481260000000  0.4203200000000  0.5035170000000 1.0
C      1  0.5520730000000  0.4412670000000  0.4453390000000 1.0
C      1  0.4472500000000  0.4967010000000  0.4169090000000 1.0
C      1  0.5523700000000  0.5556190000000  0.4400090000000 1.0
C      1  0.4481330000000  0.5791000000000  0.4974630000000 1.0
C      1  0.5520820000000  0.5581430000000  0.5556330000000 1.0
C      1  0.4472570000000  0.5027190000000  0.5840710000000 1.0
C      1  0.4256840000000  0.4916370000000  0.4403630000000 1.0
C      1  0.5742670000000  0.5359120000000  0.4530060000000 1.0
C      1  0.4261620000000  0.5553610000000  0.4928820000000 1.0
C      1  0.5739670000000  0.5452890000000  0.5353590000000 1.0
C      1  0.4256890000000  0.5077850000000  0.5606190000000 1.0
C      1  0.5742670000000  0.4634960000000  0.5479660000000 1.0
C      1  0.4261570000000  0.4440600000000  0.5081000000000 1.0
C      1  0.5739600000000  0.4541180000000  0.4656120000000 1.0
C      1  0.4759300000000  0.4930450000000  0.5438570000000 1.0
C      1  0.5222080000000  0.4629890000000  0.5278250000000 1.0
C      1  0.4785360000000  0.4536230000000  0.4932690000000 1.0
C      1  0.5212300000000  0.4725930000000  0.4628390000000 1.0
C      1  0.4759270000000  0.5063720000000  0.4571220000000 1.0
C      1  0.5222100000000  0.5364230000000  0.4731500000000 1.0
C      1  0.4785410000000  0.5457930000000  0.5077090000000 1.0
C      1  0.5212360000000  0.5268190000000  0.5381360000000 1.0
C      1  0.5293680000000  0.5860910000000  0.4837650000000 1.0
C      1  0.4708670000000  0.5717210000000  0.5507410000000 1.0
C      1  0.5302230000000  0.5146840000000  0.5877190000000 1.0
C      1  0.4710590000000  0.4513580000000  0.5740260000000 1.0
C      1  0.5293610000000  0.4133210000000  0.5172090000000 1.0
C      1  0.4708570000000  0.4276960000000  0.4502370000000 1.0
C      1  0.5302150000000  0.4847280000000  0.4132560000000 1.0
C      1  0.4710580000000  0.5480600000000  0.4269530000000 1.0
C      1  0.5667150000000  0.5638100000000  0.5098480000000 1.0
C      1  0.4338770000000  0.5379140000000  0.5537960000000 1.0
C      1  0.5674160000000  0.4897370000000  0.5651350000000 1.0
C      1  0.4327020000000  0.4478300000000  0.5398130000000 1.0
C      1  0.5667080000000  0.4355980000000  0.4911230000000 1.0
C      1  0.4338690000000  0.4615060000000  0.4471860000000 1.0
C      1  0.5674120000000  0.5096720000000  0.4358360000000 1.0
C      1  0.4327040000000  0.5515910000000  0.4611690000000 1.0
C      1  0.5849580000000  0.5089660000000  0.4710660000000 1.0
C      1  0.4128270000000  0.5255970000000  0.4829290000000 1.0
C      1  0.5864480000000  0.5299160000000  0.5075590000000 1.0
C      1  0.4157250000000  0.5137180000000  0.5284470000000 1.0
C      1  0.5849600000000  0.4904400000000  0.5299040000000 1.0
C      1  0.4128260000000  0.4738250000000  0.5180540000000 1.0
C      1  0.5864450000000  0.4694910000000  0.4934120000000 1.0
C      1  0.4157210000000  0.4857040000000  0.4725360000000 1.0
C      1  0.5441570000000  0.4847100000000  0.5857210000000 1.0
C      1  0.4574650000000  0.4307610000000  0.5505630000000 1.0
C      1  0.5421980000000  0.4160490000000  0.4858270000000 1.0
C      1  0.4583160000000  0.4512130000000  0.4294010000000 1.0
C      1  0.5441520000000  0.5147010000000  0.4152530000000 1.0
C      1  0.4574670000000  0.5686580000000  0.4504170000000 1.0
C      1  0.5422070000000  0.5833610000000  0.5151460000000 1.0
C      1  0.4583260000000  0.5482050000000  0.5715790000000 1.0
C      1  0.4928940000000  0.4071270000000  0.4763230000000 1.0
C      1  0.5071580000000  0.4524460000000  0.4171690000000 1.0
C      1  0.4927320000000  0.5195520000000  0.4092150000000 1.0
C      1  0.5070850000000  0.5802240000000  0.4512080000000 1.0
C      1  0.4929050000000  0.5922890000000  0.5246540000000 1.0
C      1  0.5071690000000  0.5469680000000  0.5838070000000 1.0
C      1  0.4927370000000  0.4798640000000  0.5917630000000 1.0
C      1  0.5070810000000  0.4191900000000  0.5497680000000 1.0
C      1  0.5113540000000  0.5528850000000  0.4491960000000 1.0
C      1  0.4886920000000  0.5745620000000  0.5038520000000 1.0
C      1  0.5108150000000  0.5496270000000  0.5564160000000 1.0
C      1  0.4876160000000  0.4989000000000  0.5704020000000 1.0
C      1  0.5113520000000  0.4465280000000  0.5517800000000 1.0
C      1  0.4886850000000  0.4248540000000  0.4971250000000 1.0
C      1  0.5108060000000  0.4497870000000  0.4445600000000 1.0
C      1  0.4876110000000  0.5005150000000  0.4305750000000 1.0
C      1  0.4085450000000  0.4997120000000  0.5004920000000 1.0
C      1  0.5926430000000  0.4997030000000  0.5004850000000 1.0
END
