TITL C-2782232-2968-119 4.05523843192921e-05 125000 -87.8112021183782 0 0 16 (C1) n - 1
REM
REM in /home/nfs/bkarasulu/CARBON/AIRSS/Generating-Clusters/REBO/Higher-Symm/SD-CG/HFTN-CG
REM
REM
REM
REM
REM
REM ./C.cell (12c818d87b63d06a65506943cc24bca4)
REM
REM compiler GCC version 9.2.1 20190827 (Red Hat 9.2.1-1)
REM options -cpp -mtune=generic -march=x86-64 -g -O0 -fpre-include=/usr/include/finclude/math-vector-fortran.h
REM seed -969202082 1304952883 2032273966 608594529 -1471252954 -1728896846 -1574339934 -362214504 1569114658 429006403 -133590703 -373912083 41922208 -1057879176 -1067299934 -601517040 1875283341 -520931149 -1946221636 563121695 -1146509733 -1537354630 258678498 370601146 -774585834 825797695 -1888908496 1382287020 -1759932721 -1761669893 1579314473 707819715 -797396912
REM
CELL 1.54180   50.00000   50.00000   50.00000   90.00000   90.00000   90.00000
LATT -1
SFAC C  
C      1  0.5401570000000  0.4898310000000  0.5018400000000 1.0
C      1  0.5044200000000  0.4805000000000  0.4705190000000 1.0
C      1  0.4957230000000  0.5073270000000  0.5098880000000 1.0
C      1  0.5656110000000  0.4872380000000  0.5092290000000 1.0
C      1  0.4958340000000  0.4690190000000  0.4480760000000 1.0
C      1  0.5910640000000  0.4846460000000  0.5166180000000 1.0
C      1  0.4116510000000  0.5774660000000  0.5849200000000 1.0
C      1  0.4619870000000  0.5354720000000  0.5399960000000 1.0
C      1  0.4282510000000  0.5636170000000  0.5701050000000 1.0
C      1  0.6161130000000  0.4820940000000  0.5238890000000 1.0
C      1  0.5049390000000  0.4484580000000  0.4059700000000 1.0
C      1  0.4788550000000  0.5214000000000  0.5249420000000 1.0
C      1  0.4868130000000  0.4569570000000  0.4244950000000 1.0
C      1  0.4600270000000  0.4538760000000  0.4203800000000 1.0
C      1  0.5134330000000  0.4925520000000  0.4940820000000 1.0
C      1  0.4451190000000  0.5495450000000  0.5550510000000 1.0
END
