TITL C-2782236-320-933 -2.90588553337064e-07 125000 -31.2525858947264 0 0 6 (D(inf)h) n - 1
REM
REM in /home/nfs/bkarasulu/CARBON/AIRSS/Generating-Clusters/REBO/Higher-Symm/SD-CG/HFTN-CG
REM
REM
REM
REM
REM
REM ./C.cell (12c818d87b63d06a65506943cc24bca4)
REM
REM compiler GCC version 9.2.1 20190827 (Red Hat 9.2.1-1)
REM options -cpp -mtune=generic -march=x86-64 -g -O0 -fpre-include=/usr/include/finclude/math-vector-fortran.h
REM seed -1166308803 -917446818 -309357703 -1964386056 1247294034 1568227599 1912638512 1224267090 685157137 484024074 181896696 -1611680041 1811342147 6953859 669692295 535226312 -958410127 284702278 1153634136 1229027749 -765350836 -799576854 -61765729 -1509153198 217267897 1953544674 1753829902 676308494 -53037834 666885902 -588636997 442314884 843943802
REM
CELL 1.54180   50.00000   50.00000   50.00000   90.00000   90.00000   90.00000
LATT -1
SFAC C  
C      1  0.4600540000000  0.4957470000000  0.4991730000000 1.0
C      1  0.5133150000000  0.4957470000000  0.4991730000000 1.0
C      1  0.5661530000000  0.4957470000000  0.4991730000000 1.0
C      1  0.4866850000000  0.4957470000000  0.4991730000000 1.0
C      1  0.5399460000000  0.4957470000000  0.4991730000000 1.0
C      1  0.4338470000000  0.4957470000000  0.4991730000000 1.0
END
