TITL C-2782231-7322-972 -0.00155432794958341 125000 -313.777854731726 0 0 54 (C1) n - 1
REM
REM in /home/nfs/bkarasulu/CARBON/AIRSS/Generating-Clusters/REBO/Higher-Symm/SD-CG/HFTN-CG
REM
REM
REM
REM
REM
REM ./C.cell (12c818d87b63d06a65506943cc24bca4)
REM
REM compiler GCC version 9.2.1 20190827 (Red Hat 9.2.1-1)
REM options -cpp -mtune=generic -march=x86-64 -g -O0 -fpre-include=/usr/include/finclude/math-vector-fortran.h
REM seed -875695578 -1167686417 -1938808513 1643382560 -1476598437 -1809624231 -1710875893 -1129014352 -91201277 -1914257413 1695074386 345521796 -1645867232 -968223313 -733060689 1001150133 -256459111 -1289076342 1570464191 -585618695 -361296932 -964817294 -364910342 50668179 1241403006 664998718 -461674298 -860945746 -1610252269 1283689092 1941334087 1956455736 -1439143286
REM
CELL 1.54180   50.00000   50.00000   50.00000   90.00000   90.00000   90.00000
LATT -1
SFAC C  
C      1  0.4755210000000  0.5135410000000  0.4274190000000 1.0
C      1  0.5244000000000  0.4854250000000  0.4274210000000 1.0
C      1  0.4760390000000  0.5147450000000  0.5688870000000 1.0
C      1  0.5239470000000  0.4838710000000  0.5688470000000 1.0
C      1  0.5243590000000  0.5152250000000  0.4276960000000 1.0
C      1  0.4756540000000  0.4837150000000  0.4273700000000 1.0
C      1  0.5243640000000  0.5132380000000  0.5689000000000 1.0
C      1  0.4756640000000  0.4853600000000  0.5694040000000 1.0
C      1  0.5710050000000  0.4864220000000  0.4844860000000 1.0
C      1  0.4290470000000  0.5139220000000  0.4858120000000 1.0
C      1  0.5799600000000  0.4890480000000  0.5140000000000 1.0
C      1  0.4195190000000  0.5231260000000  0.5141540000000 1.0
C      1  0.4289800000000  0.4828840000000  0.4860280000000 1.0
C      1  0.5711160000000  0.5170940000000  0.4870950000000 1.0
C      1  0.4200750000000  0.4891670000000  0.5155300000000 1.0
C      1  0.5808810000000  0.5230220000000  0.5161260000000 1.0
C      1  0.5165650000000  0.5201010000000  0.4794650000000 1.0
C      1  0.4832980000000  0.4802760000000  0.4785570000000 1.0
C      1  0.5171330000000  0.5087310000000  0.5175720000000 1.0
C      1  0.4829950000000  0.4884370000000  0.5174510000000 1.0
C      1  0.4835700000000  0.5114440000000  0.4781890000000 1.0
C      1  0.5163480000000  0.4888110000000  0.4780060000000 1.0
C      1  0.4860100000000  0.5179660000000  0.5172560000000 1.0
C      1  0.5139110000000  0.4789990000000  0.5164190000000 1.0
C      1  0.4507410000000  0.4711140000000  0.4736360000000 1.0
C      1  0.5492060000000  0.5291690000000  0.4745390000000 1.0
C      1  0.4405650000000  0.4846940000000  0.5379200000000 1.0
C      1  0.5601880000000  0.5141200000000  0.5376030000000 1.0
C      1  0.5478140000000  0.4762190000000  0.4740030000000 1.0
C      1  0.4521310000000  0.5243000000000  0.4744990000000 1.0
C      1  0.5589110000000  0.4824180000000  0.5363850000000 1.0
C      1  0.4402370000000  0.5162850000000  0.5366670000000 1.0
C      1  0.4833320000000  0.5483000000000  0.5281180000000 1.0
C      1  0.5166860000000  0.4492820000000  0.5289790000000 1.0
C      1  0.4860500000000  0.5446710000000  0.4716740000000 1.0
C      1  0.5139890000000  0.4553910000000  0.4727940000000 1.0
C      1  0.5169220000000  0.5412880000000  0.5263810000000 1.0
C      1  0.4831110000000  0.4563530000000  0.5275430000000 1.0
C      1  0.5179460000000  0.5528890000000  0.4698480000000 1.0
C      1  0.4820770000000  0.4470920000000  0.4705120000000 1.0
C      1  0.5369090000000  0.5266580000000  0.5472300000000 1.0
C      1  0.4631210000000  0.4718600000000  0.5478160000000 1.0
C      1  0.5346020000000  0.5338340000000  0.4468130000000 1.0
C      1  0.4655120000000  0.4649460000000  0.4464720000000 1.0
C      1  0.4630310000000  0.5293200000000  0.5477460000000 1.0
C      1  0.5367520000000  0.4693250000000  0.5476420000000 1.0
C      1  0.4662840000000  0.5305970000000  0.4478240000000 1.0
C      1  0.5332470000000  0.4685270000000  0.4481130000000 1.0
C      1  0.4996610000000  0.5237530000000  0.4151370000000 1.0
C      1  0.5004030000000  0.4753380000000  0.4148300000000 1.0
C      1  0.5005420000000  0.5251870000000  0.5790870000000 1.0
C      1  0.4995970000000  0.4735550000000  0.5794900000000 1.0
C      1  0.4987870000000  0.4433630000000  0.5002800000000 1.0
C      1  0.5012880000000  0.5555860000000  0.4997880000000 1.0
END
