TITL C-2782228-2999-1198 -0.00316458750297193 125000 -850.634943973937 0 0 146 (C1) n - 1
REM
REM in /home/nfs/bkarasulu/CARBON/AIRSS/Generating-Clusters/REBO/Higher-Symm/SD-CG/HFTN-CG
REM
REM
REM
REM
REM
REM ./C.cell (12c818d87b63d06a65506943cc24bca4)
REM
REM compiler GCC version 9.2.1 20190827 (Red Hat 9.2.1-1)
REM options -cpp -mtune=generic -march=x86-64 -g -O0 -fpre-include=/usr/include/finclude/math-vector-fortran.h
REM seed -1826273361 -1482562212 -430441613 -2140000328 1813629821 805025416 810330788 -1047834666 1111298036 -44280371 1236053495 -1939958262 32585829 1113598101 -56488860 -779259069 -1017388510 -1106726392 -1348830532 943073603 -346413300 1608701462 730853511 2075404592 999912284 -2045356986 1064824293 1006283009 -1849128436 1514616895 -459838857 1169909384 -1479969836
REM
CELL 1.54180   50.00000   50.00000   50.00000   90.00000   90.00000   90.00000
LATT -1
SFAC C  
C      1  0.4518610000000  0.5515620000000  0.5757140000000 1.0
C      1  0.5599040000000  0.5027240000000  0.5683210000000 1.0
C      1  0.4747840000000  0.4489650000000  0.5741600000000 1.0
C      1  0.4546170000000  0.4449010000000  0.4264050000000 1.0
C      1  0.5701760000000  0.4892770000000  0.4281640000000 1.0
C      1  0.4724500000000  0.5783170000000  0.4359600000000 1.0
C      1  0.4092900000000  0.5433880000000  0.4596470000000 1.0
C      1  0.5875710000000  0.5429430000000  0.4696990000000 1.0
C      1  0.5011470000000  0.4013110000000  0.4711280000000 1.0
C      1  0.4136730000000  0.4515210000000  0.5302230000000 1.0
C      1  0.5874090000000  0.4492000000000  0.5295090000000 1.0
C      1  0.4989920000000  0.5977790000000  0.5170270000000 1.0
C      1  0.4602720000000  0.5924000000000  0.4859720000000 1.0
C      1  0.6051300000000  0.4840040000000  0.5010070000000 1.0
C      1  0.4370570000000  0.4153140000000  0.5064440000000 1.0
C      1  0.4606900000000  0.4007240000000  0.4992300000000 1.0
C      1  0.6062830000000  0.5109940000000  0.4917240000000 1.0
C      1  0.4355910000000  0.5788370000000  0.4791590000000 1.0
C      1  0.4922600000000  0.5127080000000  0.3831360000000 1.0
C      1  0.5017230000000  0.5382830000000  0.4017370000000 1.0
C      1  0.5193410000000  0.5105190000000  0.4006600000000 1.0
C      1  0.4833850000000  0.5055280000000  0.6267470000000 1.0
C      1  0.5086750000000  0.4856130000000  0.6254630000000 1.0
C      1  0.5132590000000  0.5165770000000  0.6334420000000 1.0
C      1  0.5908310000000  0.4664290000000  0.4824340000000 1.0
C      1  0.4235910000000  0.4342770000000  0.4857230000000 1.0
C      1  0.4858390000000  0.5968700000000  0.4697410000000 1.0
C      1  0.5971300000000  0.5321560000000  0.5114720000000 1.0
C      1  0.4269540000000  0.5618150000000  0.5009750000000 1.0
C      1  0.4842880000000  0.4000260000000  0.5166630000000 1.0
C      1  0.4523320000000  0.4625870000000  0.5663790000000 1.0
C      1  0.4765720000000  0.5545330000000  0.5644700000000 1.0
C      1  0.5598680000000  0.4760890000000  0.5612220000000 1.0
C      1  0.4489450000000  0.5624970000000  0.4355700000000 1.0
C      1  0.4798010000000  0.4426340000000  0.4367380000000 1.0
C      1  0.5663610000000  0.5174180000000  0.4313870000000 1.0
C      1  0.5087920000000  0.5322740000000  0.4761500000000 1.0
C      1  0.5277770000000  0.4730020000000  0.4805150000000 1.0
C      1  0.4634660000000  0.4881220000000  0.4800550000000 1.0
C      1  0.5096010000000  0.4626990000000  0.5255460000000 1.0
C      1  0.5222870000000  0.5244940000000  0.5128820000000 1.0
C      1  0.4632510000000  0.5070700000000  0.5245210000000 1.0
C      1  0.5325190000000  0.4474840000000  0.5999500000000 1.0
C      1  0.4427200000000  0.4830760000000  0.6096140000000 1.0
C      1  0.5309970000000  0.5408060000000  0.5929340000000 1.0
C      1  0.5176110000000  0.5618660000000  0.4131490000000 1.0
C      1  0.4463950000000  0.5097130000000  0.4014720000000 1.0
C      1  0.5285170000000  0.4672120000000  0.4090080000000 1.0
C      1  0.5065090000000  0.5596050000000  0.5220840000000 1.0
C      1  0.5524070000000  0.4676030000000  0.5290550000000 1.0
C      1  0.4473920000000  0.4720550000000  0.5345220000000 1.0
C      1  0.5099720000000  0.4392260000000  0.4774760000000 1.0
C      1  0.5523300000000  0.5259880000000  0.4624090000000 1.0
C      1  0.4443660000000  0.5284080000000  0.4707110000000 1.0
C      1  0.5723430000000  0.5743000000000  0.4736640000000 1.0
C      1  0.5348180000000  0.4080590000000  0.4776490000000 1.0
C      1  0.4083270000000  0.5113050000000  0.4729130000000 1.0
C      1  0.5730740000000  0.4188950000000  0.5218730000000 1.0
C      1  0.5328170000000  0.5883490000000  0.5136160000000 1.0
C      1  0.3989900000000  0.4816950000000  0.5210870000000 1.0
C      1  0.5082050000000  0.5275240000000  0.5629110000000 1.0
C      1  0.5070440000000  0.4791920000000  0.5763880000000 1.0
C      1  0.4690640000000  0.5077660000000  0.5796050000000 1.0
C      1  0.5034320000000  0.4736810000000  0.4392980000000 1.0
C      1  0.5128190000000  0.5243720000000  0.4374120000000 1.0
C      1  0.4671800000000  0.5051420000000  0.4352820000000 1.0
C      1  0.5397140000000  0.4149540000000  0.5162290000000 1.0
C      1  0.4137160000000  0.5110110000000  0.5120470000000 1.0
C      1  0.5511020000000  0.5612520000000  0.5044800000000 1.0
C      1  0.5384600000000  0.5767890000000  0.4765240000000 1.0
C      1  0.4208460000000  0.4868590000000  0.4885460000000 1.0
C      1  0.5538890000000  0.4309350000000  0.4893970000000 1.0
C      1  0.5298790000000  0.5335300000000  0.6188530000000 1.0
C      1  0.5141160000000  0.4706380000000  0.6024070000000 1.0
C      1  0.4630530000000  0.5027490000000  0.6073510000000 1.0
C      1  0.5315350000000  0.4930600000000  0.4185730000000 1.0
C      1  0.4841890000000  0.5405410000000  0.4301190000000 1.0
C      1  0.4653960000000  0.5052590000000  0.3828480000000 1.0
C      1  0.5548660000000  0.4544020000000  0.5796920000000 1.0
C      1  0.4337760000000  0.4757260000000  0.5837720000000 1.0
C      1  0.5038400000000  0.5555070000000  0.5802680000000 1.0
C      1  0.5400490000000  0.5354190000000  0.4240460000000 1.0
C      1  0.4528870000000  0.5335090000000  0.4232930000000 1.0
C      1  0.5082000000000  0.4442310000000  0.4219270000000 1.0
C      1  0.4434760000000  0.5255690000000  0.5039360000000 1.0
C      1  0.5514080000000  0.5281140000000  0.4963680000000 1.0
C      1  0.5159410000000  0.4371220000000  0.5076510000000 1.0
C      1  0.4470290000000  0.4687050000000  0.5005470000000 1.0
C      1  0.5532180000000  0.4637980000000  0.4950440000000 1.0
C      1  0.5132070000000  0.5596200000000  0.4919060000000 1.0
C      1  0.5649140000000  0.4849020000000  0.4699730000000 1.0
C      1  0.4563720000000  0.4409840000000  0.4826260000000 1.0
C      1  0.4875120000000  0.5660040000000  0.4735390000000 1.0
C      1  0.5738370000000  0.5096050000000  0.5149680000000 1.0
C      1  0.4530710000000  0.5551020000000  0.5182660000000 1.0
C      1  0.4905000000000  0.4278470000000  0.5240370000000 1.0
C      1  0.5300010000000  0.4592830000000  0.4517210000000 1.0
C      1  0.4500830000000  0.4874140000000  0.4530410000000 1.0
C      1  0.5190380000000  0.5543620000000  0.4522280000000 1.0
C      1  0.5305850000000  0.5334370000000  0.5402040000000 1.0
C      1  0.4513780000000  0.5074650000000  0.5523970000000 1.0
C      1  0.5120130000000  0.4576880000000  0.5538470000000 1.0
C      1  0.4941960000000  0.4780220000000  0.4779210000000 1.0
C      1  0.4795110000000  0.5163020000000  0.4833470000000 1.0
C      1  0.5153820000000  0.5029430000000  0.4722580000000 1.0
C      1  0.4901460000000  0.5245300000000  0.5130150000000 1.0
C      1  0.4823150000000  0.4806310000000  0.5181390000000 1.0
C      1  0.5138100000000  0.4924260000000  0.5125480000000 1.0
C      1  0.4702720000000  0.5840310000000  0.5126180000000 1.0
C      1  0.5897790000000  0.4814370000000  0.5267690000000 1.0
C      1  0.4397040000000  0.4338490000000  0.5286100000000 1.0
C      1  0.4723460000000  0.4117730000000  0.4740650000000 1.0
C      1  0.5876720000000  0.5104100000000  0.4685370000000 1.0
C      1  0.4284930000000  0.5666400000000  0.4543680000000 1.0
C      1  0.5141570000000  0.3968750000000  0.5024520000000 1.0
C      1  0.4073580000000  0.5387540000000  0.4933620000000 1.0
C      1  0.5846160000000  0.5578280000000  0.5002940000000 1.0
C      1  0.5146300000000  0.5991390000000  0.4866740000000 1.0
C      1  0.4077070000000  0.4578710000000  0.4978880000000 1.0
C      1  0.5847520000000  0.4394540000000  0.4968430000000 1.0
C      1  0.4203480000000  0.5010540000000  0.5694570000000 1.0
C      1  0.5291360000000  0.5608500000000  0.5590840000000 1.0
C      1  0.5340030000000  0.4336920000000  0.5628070000000 1.0
C      1  0.4300050000000  0.4965220000000  0.4241130000000 1.0
C      1  0.5405620000000  0.4361440000000  0.4304120000000 1.0
C      1  0.5435510000000  0.5681220000000  0.4319020000000 1.0
C      1  0.4185900000000  0.4802310000000  0.5470880000000 1.0
C      1  0.5183900000000  0.5844160000000  0.5419700000000 1.0
C      1  0.5575630000000  0.4387800000000  0.5431960000000 1.0
C      1  0.4242790000000  0.5168510000000  0.4455780000000 1.0
C      1  0.5211700000000  0.4204140000000  0.4511950000000 1.0
C      1  0.5641330000000  0.5543850000000  0.4495300000000 1.0
C      1  0.4794320000000  0.5486880000000  0.5344520000000 1.0
C      1  0.5462590000000  0.4950960000000  0.5178060000000 1.0
C      1  0.4700770000000  0.4494650000000  0.5268220000000 1.0
C      1  0.4821630000000  0.4496480000000  0.4665890000000 1.0
C      1  0.5389910000000  0.4977410000000  0.4515290000000 1.0
C      1  0.4730650000000  0.5417700000000  0.4613440000000 1.0
C      1  0.4379360000000  0.4654750000000  0.4322810000000 1.0
C      1  0.4993200000000  0.5769310000000  0.4361330000000 1.0
C      1  0.5589510000000  0.4648430000000  0.4345230000000 1.0
C      1  0.4364260000000  0.5299730000000  0.5716360000000 1.0
C      1  0.5053500000000  0.4379660000000  0.5811040000000 1.0
C      1  0.5475300000000  0.5304760000000  0.5685330000000 1.0
C      1  0.4947260000000  0.4997200000000  0.4362850000000 1.0
C      1  0.4963400000000  0.5048140000000  0.5725680000000 1.0
END
