TITL C-2782226-7400-658 0.000252062254402736 125000 -316.805345281884 0 0 58 (C1) n - 1
REM
REM in /home/nfs/bkarasulu/CARBON/AIRSS/Generating-Clusters/REBO/Higher-Symm/SD-CG/HFTN-CG
REM
REM
REM
REM
REM
REM ./C.cell (12c818d87b63d06a65506943cc24bca4)
REM
REM compiler GCC version 9.2.1 20190827 (Red Hat 9.2.1-1)
REM options -cpp -mtune=generic -march=x86-64 -g -O0 -fpre-include=/usr/include/finclude/math-vector-fortran.h
REM seed 1628277424 1797781132 1611505043 -2101584429 1727726115 38995664 1287011100 -849371497 350777121 -933519494 -1779528563 1790283792 -82601823 -43086707 -2091194270 939277268 -1060921612 -111265620 -849787747 162050123 832011783 230746174 762739018 236901481 1803338284 1289249211 1476453048 -1397381748 316506091 -2095784846 1731805398 -709081706 48291207
REM
CELL 1.54180   50.00000   50.00000   50.00000   90.00000   90.00000   90.00000
LATT -1
SFAC C  
C      1  0.5126900000000  0.5181870000000  0.5231870000000 1.0
C      1  0.5525810000000  0.3888280000000  0.4867150000000 1.0
C      1  0.4197360000000  0.4818810000000  0.5127190000000 1.0
C      1  0.4894630000000  0.4466030000000  0.4859270000000 1.0
C      1  0.5626830000000  0.5442630000000  0.4676730000000 1.0
C      1  0.5260030000000  0.5211000000000  0.4941880000000 1.0
C      1  0.5293890000000  0.4662690000000  0.5202420000000 1.0
C      1  0.5342450000000  0.4385720000000  0.5060920000000 1.0
C      1  0.4861320000000  0.4825150000000  0.4397150000000 1.0
C      1  0.5114070000000  0.5565900000000  0.3934220000000 1.0
C      1  0.4605820000000  0.4954150000000  0.4386670000000 1.0
C      1  0.5260800000000  0.4915390000000  0.5673010000000 1.0
C      1  0.4597830000000  0.5215430000000  0.4323370000000 1.0
C      1  0.4925490000000  0.4574440000000  0.5446070000000 1.0
C      1  0.4431870000000  0.4593360000000  0.5026180000000 1.0
C      1  0.4344620000000  0.5428780000000  0.4570760000000 1.0
C      1  0.4227680000000  0.4610440000000  0.4325720000000 1.0
C      1  0.4936370000000  0.5531550000000  0.5508340000000 1.0
C      1  0.4621440000000  0.4586080000000  0.5271360000000 1.0
C      1  0.5054260000000  0.5094030000000  0.5685390000000 1.0
C      1  0.4729310000000  0.5502920000000  0.4339950000000 1.0
C      1  0.4269230000000  0.5093720000000  0.4953680000000 1.0
C      1  0.5654730000000  0.4990650000000  0.5331860000000 1.0
C      1  0.4763740000000  0.5285980000000  0.4774360000000 1.0
C      1  0.4939570000000  0.5537340000000  0.4118230000000 1.0
C      1  0.5034560000000  0.5677910000000  0.4748220000000 1.0
C      1  0.5838190000000  0.5341740000000  0.5358630000000 1.0
C      1  0.4412950000000  0.4750600000000  0.4521240000000 1.0
C      1  0.5213780000000  0.4645660000000  0.5531230000000 1.0
C      1  0.4334150000000  0.5901500000000  0.4299910000000 1.0
C      1  0.5402110000000  0.5498440000000  0.5396320000000 1.0
C      1  0.4688650000000  0.4629810000000  0.5661020000000 1.0
C      1  0.5116400000000  0.4276270000000  0.4871450000000 1.0
C      1  0.4904810000000  0.4628550000000  0.5117760000000 1.0
C      1  0.5025510000000  0.5277810000000  0.5471130000000 1.0
C      1  0.5763290000000  0.4600100000000  0.5532470000000 1.0
C      1  0.5630320000000  0.4610390000000  0.5219450000000 1.0
C      1  0.5379650000000  0.5549010000000  0.5115750000000 1.0
C      1  0.4329710000000  0.5372640000000  0.5099700000000 1.0
C      1  0.4859890000000  0.5504290000000  0.4617180000000 1.0
C      1  0.4587820000000  0.4549290000000  0.4736170000000 1.0
C      1  0.5606860000000  0.5340120000000  0.5519310000000 1.0
C      1  0.4291230000000  0.4806180000000  0.4800490000000 1.0
C      1  0.5196680000000  0.5699860000000  0.4965130000000 1.0
C      1  0.5776230000000  0.4831680000000  0.5677740000000 1.0
C      1  0.4513360000000  0.5720730000000  0.4318070000000 1.0
C      1  0.5547360000000  0.5344880000000  0.4926530000000 1.0
C      1  0.5381560000000  0.4103960000000  0.4915060000000 1.0
C      1  0.4463230000000  0.5305860000000  0.4793190000000 1.0
C      1  0.5087930000000  0.4880970000000  0.5080600000000 1.0
C      1  0.5478290000000  0.4464390000000  0.5490850000000 1.0
C      1  0.4207160000000  0.4802660000000  0.5433850000000 1.0
C      1  0.5534380000000  0.5040300000000  0.5627530000000 1.0
C      1  0.4436030000000  0.4686460000000  0.5525780000000 1.0
C      1  0.4956630000000  0.5123190000000  0.4879880000000 1.0
C      1  0.5758850000000  0.4853900000000  0.5062530000000 1.0
C      1  0.4876590000000  0.4624980000000  0.4574550000000 1.0
C      1  0.5759810000000  0.5193570000000  0.5077520000000 1.0
END
