TITL C-2782227-3064-290 0.000602254518298218 125000 -767.15895526788 0 0 129 (C1) n - 1
REM
REM in /home/nfs/bkarasulu/CARBON/AIRSS/Generating-Clusters/REBO/Higher-Symm/SD-CG/HFTN-CG
REM
REM
REM
REM
REM
REM ./C.cell (12c818d87b63d06a65506943cc24bca4)
REM
REM compiler GCC version 9.2.1 20190827 (Red Hat 9.2.1-1)
REM options -cpp -mtune=generic -march=x86-64 -g -O0 -fpre-include=/usr/include/finclude/math-vector-fortran.h
REM seed 741829532 -1942038798 -1651531059 -2106213367 184818375 -1739155841 -233908676 2070540125 -1246229643 941410569 642274569 -1462659568 1243863021 727236229 -579133317 -1829079693 1431854037 -1217079208 -1703481549 -747390315 -1733928044 -417971793 1139901146 -332308502 -1803569554 -469632855 -138911901 540348404 1727965043 1099384388 1024840648 1216298633 -1283453013
REM
CELL 1.54180   50.00000   50.00000   50.00000   90.00000   90.00000   90.00000
LATT -1
SFAC C  
C      1  0.4757590000000  0.5159030000000  0.5113170000000 1.0
C      1  0.4917110000000  0.4893850000000  0.4749300000000 1.0
C      1  0.5244770000000  0.5119660000000  0.4941380000000 1.0
C      1  0.5070520000000  0.4828920000000  0.5255310000000 1.0
C      1  0.4946760000000  0.4977920000000  0.4111050000000 1.0
C      1  0.5871720000000  0.5058740000000  0.4941040000000 1.0
C      1  0.5053770000000  0.4974450000000  0.5908690000000 1.0
C      1  0.4074670000000  0.5025260000000  0.4967970000000 1.0
C      1  0.4215690000000  0.5339340000000  0.4605170000000 1.0
C      1  0.5372660000000  0.4714050000000  0.4196210000000 1.0
C      1  0.5780450000000  0.5353860000000  0.5372080000000 1.0
C      1  0.4642800000000  0.4734720000000  0.5788920000000 1.0
C      1  0.4469150000000  0.3884620000000  0.4846970000000 1.0
C      1  0.5135020000000  0.6059380000000  0.4622100000000 1.0
C      1  0.5474540000000  0.3935600000000  0.5110470000000 1.0
C      1  0.4839940000000  0.6066590000000  0.5367930000000 1.0
C      1  0.4150620000000  0.5283520000000  0.5173600000000 1.0
C      1  0.4785900000000  0.4702900000000  0.4117980000000 1.0
C      1  0.5823010000000  0.5350910000000  0.4854850000000 1.0
C      1  0.5214910000000  0.4700810000000  0.5907530000000 1.0
C      1  0.5595020000000  0.4173670000000  0.5034510000000 1.0
C      1  0.4930170000000  0.5930460000000  0.5603580000000 1.0
C      1  0.4396510000000  0.4136260000000  0.4940850000000 1.0
C      1  0.5047960000000  0.5879010000000  0.4427330000000 1.0
C      1  0.5146410000000  0.5286300000000  0.5837890000000 1.0
C      1  0.4140310000000  0.4676730000000  0.5170380000000 1.0
C      1  0.4810990000000  0.5414350000000  0.4150860000000 1.0
C      1  0.5844480000000  0.4653210000000  0.4792580000000 1.0
C      1  0.5089740000000  0.4487520000000  0.4484780000000 1.0
C      1  0.5527010000000  0.5711280000000  0.5122270000000 1.0
C      1  0.4935990000000  0.4416340000000  0.5549360000000 1.0
C      1  0.4479950000000  0.5571290000000  0.4915430000000 1.0
C      1  0.4237450000000  0.5401350000000  0.5485540000000 1.0
C      1  0.4467000000000  0.4672620000000  0.4238330000000 1.0
C      1  0.5766950000000  0.5389960000000  0.4519190000000 1.0
C      1  0.5524340000000  0.4641440000000  0.5773990000000 1.0
C      1  0.4319430000000  0.4360030000000  0.4758970000000 1.0
C      1  0.5241850000000  0.5664780000000  0.4343950000000 1.0
C      1  0.5680250000000  0.4386970000000  0.5226880000000 1.0
C      1  0.4703850000000  0.5734950000000  0.5696340000000 1.0
C      1  0.5521800000000  0.5753620000000  0.4785390000000 1.0
C      1  0.5234160000000  0.4315300000000  0.5510640000000 1.0
C      1  0.4516110000000  0.5743340000000  0.5170710000000 1.0
C      1  0.4793990000000  0.4385520000000  0.4525000000000 1.0
C      1  0.4842140000000  0.5443360000000  0.5808650000000 1.0
C      1  0.4146110000000  0.4620940000000  0.4895390000000 1.0
C      1  0.5121490000000  0.5406260000000  0.4163720000000 1.0
C      1  0.5850770000000  0.4653260000000  0.5101890000000 1.0
C      1  0.5576110000000  0.5454770000000  0.5548880000000 1.0
C      1  0.4485620000000  0.4610710000000  0.5590760000000 1.0
C      1  0.4459930000000  0.5450040000000  0.4480200000000 1.0
C      1  0.5515840000000  0.4601370000000  0.4432040000000 1.0
C      1  0.5008670000000  0.5053930000000  0.4395230000000 1.0
C      1  0.5600510000000  0.4956780000000  0.5020940000000 1.0
C      1  0.4931960000000  0.4976410000000  0.5599950000000 1.0
C      1  0.4372480000000  0.5001040000000  0.4986200000000 1.0
C      1  0.5267710000000  0.4707770000000  0.5577020000000 1.0
C      1  0.4426040000000  0.5187780000000  0.5331250000000 1.0
C      1  0.4696420000000  0.4807480000000  0.4429320000000 1.0
C      1  0.5530210000000  0.5279800000000  0.4718270000000 1.0
C      1  0.5399010000000  0.4971400000000  0.4676540000000 1.0
C      1  0.5320780000000  0.4984740000000  0.5434100000000 1.0
C      1  0.4621690000000  0.4936340000000  0.5333130000000 1.0
C      1  0.4676250000000  0.5092350000000  0.4614220000000 1.0
C      1  0.5006130000000  0.5302890000000  0.4532030000000 1.0
C      1  0.5469940000000  0.4710010000000  0.4997460000000 1.0
C      1  0.4984840000000  0.5195910000000  0.5439750000000 1.0
C      1  0.4508650000000  0.4754960000000  0.4995990000000 1.0
C      1  0.4779900000000  0.5157460000000  0.5921820000000 1.0
C      1  0.3988250000000  0.4953640000000  0.4705700000000 1.0
C      1  0.5206830000000  0.5126060000000  0.4056420000000 1.0
C      1  0.5948450000000  0.4932790000000  0.5214280000000 1.0
C      1  0.4592300000000  0.5719610000000  0.4641060000000 1.0
C      1  0.5366670000000  0.4325440000000  0.4571150000000 1.0
C      1  0.5472890000000  0.5711070000000  0.5443770000000 1.0
C      1  0.4635890000000  0.4358990000000  0.5427060000000 1.0
C      1  0.4152050000000  0.5077230000000  0.4503110000000 1.0
C      1  0.5429550000000  0.4986380000000  0.4150620000000 1.0
C      1  0.5850780000000  0.5080860000000  0.5430290000000 1.0
C      1  0.4563550000000  0.5008350000000  0.5829990000000 1.0
C      1  0.5242720000000  0.5363820000000  0.5349180000000 1.0
C      1  0.4525280000000  0.4573990000000  0.5195560000000 1.0
C      1  0.4794210000000  0.5467000000000  0.4546370000000 1.0
C      1  0.5451220000000  0.4585510000000  0.4766660000000 1.0
C      1  0.4512600000000  0.4444380000000  0.4488670000000 1.0
C      1  0.5524700000000  0.5630360000000  0.4528410000000 1.0
C      1  0.5516710000000  0.4404600000000  0.5524660000000 1.0
C      1  0.4443080000000  0.5658340000000  0.5480520000000 1.0
C      1  0.5633930000000  0.5110240000000  0.4373670000000 1.0
C      1  0.5649900000000  0.4934270000000  0.5649720000000 1.0
C      1  0.4345220000000  0.5111420000000  0.5641460000000 1.0
C      1  0.4357550000000  0.4984170000000  0.4319510000000 1.0
C      1  0.5851410000000  0.4392200000000  0.4696300000000 1.0
C      1  0.5179930000000  0.5500470000000  0.5606190000000 1.0
C      1  0.4253630000000  0.4430180000000  0.5337130000000 1.0
C      1  0.4715800000000  0.5674790000000  0.4152570000000 1.0
C      1  0.5416120000000  0.5368890000000  0.4334430000000 1.0
C      1  0.5652540000000  0.4702770000000  0.5402420000000 1.0
C      1  0.4709970000000  0.5472880000000  0.5502680000000 1.0
C      1  0.4339640000000  0.4697770000000  0.4638950000000 1.0
C      1  0.5097860000000  0.4617700000000  0.4191690000000 1.0
C      1  0.5769660000000  0.5497560000000  0.5120860000000 1.0
C      1  0.4904930000000  0.4613900000000  0.5810430000000 1.0
C      1  0.4202580000000  0.5415310000000  0.4886350000000 1.0
C      1  0.5210330000000  0.6017810000000  0.4878670000000 1.0
C      1  0.5316700000000  0.3719930000000  0.5099270000000 1.0
C      1  0.4769320000000  0.5881440000000  0.5160830000000 1.0
C      1  0.4628200000000  0.3668350000000  0.4849420000000 1.0
C      1  0.4308170000000  0.4819240000000  0.5423050000000 1.0
C      1  0.4611910000000  0.5210210000000  0.4300670000000 1.0
C      1  0.5690680000000  0.4847090000000  0.4583740000000 1.0
C      1  0.5430250000000  0.5196590000000  0.5671750000000 1.0
C      1  0.4838360000000  0.4717310000000  0.5431610000000 1.0
C      1  0.4560730000000  0.5241230000000  0.4878220000000 1.0
C      1  0.5148370000000  0.4813830000000  0.4560400000000 1.0
C      1  0.5427980000000  0.5164880000000  0.5185150000000 1.0
C      1  0.4857620000000  0.3549990000000  0.4923800000000 1.0
C      1  0.5224020000000  0.5792790000000  0.5047700000000 1.0
C      1  0.5105190000000  0.3573050000000  0.5025170000000 1.0
C      1  0.4979240000000  0.5682680000000  0.5122250000000 1.0
C      1  0.4427950000000  0.4189500000000  0.5215880000000 1.0
C      1  0.4771680000000  0.5830930000000  0.4385480000000 1.0
C      1  0.5625370000000  0.4227400000000  0.4755480000000 1.0
C      1  0.5190160000000  0.5802040000000  0.5581310000000 1.0
C      1  0.4864540000000  0.5426510000000  0.5239490000000 1.0
C      1  0.4665230000000  0.4713380000000  0.4740180000000 1.0
C      1  0.5216520000000  0.5342750000000  0.4709260000000 1.0
C      1  0.5326390000000  0.4631920000000  0.5249110000000 1.0
C      1  0.4990740000000  0.4988500000000  0.5020400000000 1.0
END
