TITL C-2782233-7966-524 -0.0150873721039198 125000 -317.132806757274 0 0 58 (C1) n - 1
REM
REM in /home/nfs/bkarasulu/CARBON/AIRSS/Generating-Clusters/REBO/Higher-Symm/SD-CG/HFTN-CG
REM
REM
REM
REM
REM
REM ./C.cell (12c818d87b63d06a65506943cc24bca4)
REM
REM compiler GCC version 9.2.1 20190827 (Red Hat 9.2.1-1)
REM options -cpp -mtune=generic -march=x86-64 -g -O0 -fpre-include=/usr/include/finclude/math-vector-fortran.h
REM seed -663468992 63836970 -1258452953 489769717 798435905 1234365302 -2015047388 -23174840 241852348 1468572832 -961286596 -1701198727 -2093950660 -625826820 1399069843 -868277107 -605914731 -491715836 -1129092452 1206931280 -198333729 246057853 793530284 371410051 -2110392874 -302740024 -1351521003 1284431666 225432019 -295023093 -369159417 -1010841306 1082663281
REM
CELL 1.54180   50.00000   50.00000   50.00000   90.00000   90.00000   90.00000
LATT -1
SFAC C  
C      1  0.5702380000000  0.5224220000000  0.4891520000000 1.0
C      1  0.5073580000000  0.4201900000000  0.4890430000000 1.0
C      1  0.4311180000000  0.4767090000000  0.4891340000000 1.0
C      1  0.4803230000000  0.5685010000000  0.4906460000000 1.0
C      1  0.5687480000000  0.5208460000000  0.5143600000000 1.0
C      1  0.5056040000000  0.4190680000000  0.5142830000000 1.0
C      1  0.4325370000000  0.4783470000000  0.5143360000000 1.0
C      1  0.4819960000000  0.5696110000000  0.5157870000000 1.0
C      1  0.5001880000000  0.4794220000000  0.4255100000000 1.0
C      1  0.4751930000000  0.4994120000000  0.4244480000000 1.0
C      1  0.5003740000000  0.5191290000000  0.4236960000000 1.0
C      1  0.5253380000000  0.4991110000000  0.4244880000000 1.0
C      1  0.4970920000000  0.4752060000000  0.5767840000000 1.0
C      1  0.4805350000000  0.5025020000000  0.5759010000000 1.0
C      1  0.5035500000000  0.5245570000000  0.5769070000000 1.0
C      1  0.5200300000000  0.4972610000000  0.5760640000000 1.0
C      1  0.5039420000000  0.5513280000000  0.4422180000000 1.0
C      1  0.5546820000000  0.5010500000000  0.4411340000000 1.0
C      1  0.4976920000000  0.4507410000000  0.4435180000000 1.0
C      1  0.4457830000000  0.4978600000000  0.4410780000000 1.0
C      1  0.5097280000000  0.5537710000000  0.5611690000000 1.0
C      1  0.5489300000000  0.4959470000000  0.5581710000000 1.0
C      1  0.4915170000000  0.4462570000000  0.5604150000000 1.0
C      1  0.4515450000000  0.5036910000000  0.5581230000000 1.0
C      1  0.5557860000000  0.5006320000000  0.4093730000000 1.0
C      1  0.4995400000000  0.4482180000000  0.4118850000000 1.0
C      1  0.4447940000000  0.4972260000000  0.4093160000000 1.0
C      1  0.5016010000000  0.5486860000000  0.4130700000000 1.0
C      1  0.5509790000000  0.4937240000000  0.5898190000000 1.0
C      1  0.4912710000000  0.4454280000000  0.5921870000000 1.0
C      1  0.4496270000000  0.5059100000000  0.5897780000000 1.0
C      1  0.5100830000000  0.5538450000000  0.5929510000000 1.0
C      1  0.4709770000000  0.5110920000000  0.5140680000000 1.0
C      1  0.4961650000000  0.5323880000000  0.5191510000000 1.0
C      1  0.5288470000000  0.4898360000000  0.5141460000000 1.0
C      1  0.5035700000000  0.4686420000000  0.5195440000000 1.0
C      1  0.4688170000000  0.5086490000000  0.4818600000000 1.0
C      1  0.4932360000000  0.5308100000000  0.4873710000000 1.0
C      1  0.5309560000000  0.4925230000000  0.4820620000000 1.0
C      1  0.5064160000000  0.4704360000000  0.4873630000000 1.0
C      1  0.4211560000000  0.5166060000000  0.5126500000000 1.0
C      1  0.5303510000000  0.5679520000000  0.5130420000000 1.0
C      1  0.5783840000000  0.4821090000000  0.5126800000000 1.0
C      1  0.4685040000000  0.4337850000000  0.5124910000000 1.0
C      1  0.4197750000000  0.5149760000000  0.4874080000000 1.0
C      1  0.5287570000000  0.5668970000000  0.4878000000000 1.0
C      1  0.5797370000000  0.4836550000000  0.4874360000000 1.0
C      1  0.4702930000000  0.4350010000000  0.4872860000000 1.0
C      1  0.5538680000000  0.4958780000000  0.5294920000000 1.0
C      1  0.4930570000000  0.4439030000000  0.5314810000000 1.0
C      1  0.4462840000000  0.5039530000000  0.5294770000000 1.0
C      1  0.5074270000000  0.5574760000000  0.5324620000000 1.0
C      1  0.5569080000000  0.4994710000000  0.4700860000000 1.0
C      1  0.4970680000000  0.4463240000000  0.4722350000000 1.0
C      1  0.4432650000000  0.5002370000000  0.4699600000000 1.0
C      1  0.5036860000000  0.5555850000000  0.4718030000000 1.0
C      1  0.4999800000000  0.5006040000000  0.5266710000000 1.0
C      1  0.4999420000000  0.5006630000000  0.4746950000000 1.0
END
