TITL C-2782234-8014-55 -0.000363758795551442 125000 -550.304699853311 0 0 95 (C1) n - 1
REM
REM in /home/nfs/bkarasulu/CARBON/AIRSS/Generating-Clusters/REBO/Higher-Symm/SD-CG/HFTN-CG
REM
REM
REM
REM
REM
REM ./C.cell (12c818d87b63d06a65506943cc24bca4)
REM
REM compiler GCC version 9.2.1 20190827 (Red Hat 9.2.1-1)
REM options -cpp -mtune=generic -march=x86-64 -g -O0 -fpre-include=/usr/include/finclude/math-vector-fortran.h
REM seed 1949903131 218009736 -43575158 1350552967 -824918905 -1127623376 -1281859864 1776468512 -2135256513 928111666 -231278591 -512905695 1922969300 1660031494 950958331 -1244071899 1761193165 1643124915 -87479796 -1936084929 1515878442 -515798959 1294423619 -1217425713 -994564125 -1256249860 -1705097588 -1838496340 99218728 1433845833 1654181797 -755090850 -1740533789
REM
CELL 1.54180   50.00000   50.00000   50.00000   90.00000   90.00000   90.00000
LATT -1
SFAC C  
C      1  0.5726610000000  0.5044990000000  0.4828380000000 1.0
C      1  0.4262990000000  0.4830140000000  0.4857410000000 1.0
C      1  0.5835750000000  0.4866770000000  0.5304900000000 1.0
C      1  0.4266130000000  0.5180890000000  0.5148470000000 1.0
C      1  0.4690180000000  0.4807450000000  0.4267030000000 1.0
C      1  0.5248500000000  0.5201720000000  0.4267480000000 1.0
C      1  0.4713640000000  0.5202810000000  0.5724260000000 1.0
C      1  0.5252760000000  0.4814950000000  0.5736880000000 1.0
C      1  0.4650060000000  0.4966320000000  0.4772010000000 1.0
C      1  0.5350830000000  0.5045270000000  0.4686300000000 1.0
C      1  0.4658930000000  0.5048050000000  0.5221640000000 1.0
C      1  0.5392460000000  0.4991880000000  0.5262020000000 1.0
C      1  0.4853960000000  0.5283880000000  0.4897550000000 1.0
C      1  0.5222420000000  0.4737620000000  0.4942600000000 1.0
C      1  0.4858090000000  0.4727830000000  0.5095280000000 1.0
C      1  0.5193210000000  0.5296180000000  0.5098720000000 1.0
C      1  0.5211950000000  0.4231290000000  0.4720060000000 1.0
C      1  0.4767170000000  0.5841530000000  0.4718570000000 1.0
C      1  0.5202410000000  0.5806250000000  0.5264850000000 1.0
C      1  0.4788690000000  0.4168600000000  0.5281210000000 1.0
C      1  0.5758810000000  0.4793220000000  0.4987170000000 1.0
C      1  0.4473390000000  0.5168760000000  0.4889310000000 1.0
C      1  0.5573520000000  0.5174520000000  0.5111690000000 1.0
C      1  0.4478300000000  0.4844050000000  0.5111450000000 1.0
C      1  0.5307170000000  0.5665160000000  0.4999630000000 1.0
C      1  0.4713500000000  0.4294460000000  0.4979660000000 1.0
C      1  0.5330030000000  0.4358340000000  0.4998930000000 1.0
C      1  0.4691560000000  0.5731680000000  0.5031330000000 1.0
C      1  0.4872160000000  0.5004720000000  0.5404830000000 1.0
C      1  0.5153120000000  0.5035530000000  0.5419120000000 1.0
C      1  0.4851170000000  0.5001650000000  0.4576650000000 1.0
C      1  0.5125550000000  0.4950060000000  0.4552380000000 1.0
C      1  0.5694020000000  0.4969590000000  0.5531730000000 1.0
C      1  0.4313260000000  0.5056130000000  0.5420150000000 1.0
C      1  0.5646750000000  0.5000210000000  0.4528430000000 1.0
C      1  0.4299350000000  0.4955030000000  0.4583050000000 1.0
C      1  0.4823080000000  0.4290020000000  0.4657080000000 1.0
C      1  0.5143600000000  0.5712660000000  0.4703550000000 1.0
C      1  0.4820770000000  0.5738020000000  0.5347620000000 1.0
C      1  0.5160870000000  0.4309690000000  0.5292540000000 1.0
C      1  0.5416860000000  0.4710760000000  0.5191270000000 1.0
C      1  0.4626430000000  0.5352700000000  0.5137880000000 1.0
C      1  0.5339760000000  0.5301940000000  0.4815110000000 1.0
C      1  0.4626220000000  0.4664320000000  0.4859830000000 1.0
C      1  0.4719800000000  0.5138370000000  0.4313670000000 1.0
C      1  0.5226370000000  0.4862580000000  0.4252970000000 1.0
C      1  0.4739640000000  0.4879550000000  0.5675840000000 1.0
C      1  0.5237790000000  0.5147360000000  0.5710390000000 1.0
C      1  0.4980870000000  0.5975800000000  0.5156720000000 1.0
C      1  0.5021940000000  0.4049910000000  0.5116080000000 1.0
C      1  0.4997340000000  0.4053860000000  0.4835440000000 1.0
C      1  0.4998970000000  0.5973280000000  0.4874830000000 1.0
C      1  0.4869410000000  0.5615860000000  0.4520550000000 1.0
C      1  0.5087170000000  0.4458620000000  0.4522480000000 1.0
C      1  0.4883760000000  0.4395970000000  0.5478250000000 1.0
C      1  0.5102050000000  0.5601980000000  0.5492340000000 1.0
C      1  0.4729830000000  0.5523090000000  0.5596250000000 1.0
C      1  0.5246930000000  0.4535870000000  0.5532340000000 1.0
C      1  0.4712810000000  0.4486530000000  0.4399730000000 1.0
C      1  0.5235950000000  0.5479600000000  0.4472450000000 1.0
C      1  0.4260400000000  0.4509360000000  0.4859730000000 1.0
C      1  0.5729940000000  0.5372460000000  0.4849370000000 1.0
C      1  0.4256800000000  0.5498200000000  0.5150980000000 1.0
C      1  0.5778520000000  0.4543020000000  0.5210520000000 1.0
C      1  0.5528570000000  0.5222320000000  0.5558990000000 1.0
C      1  0.4459020000000  0.4796990000000  0.5506200000000 1.0
C      1  0.5489990000000  0.4754060000000  0.4431330000000 1.0
C      1  0.4442760000000  0.5216260000000  0.4495240000000 1.0
C      1  0.4987360000000  0.4655570000000  0.4286380000000 1.0
C      1  0.4954470000000  0.5352340000000  0.4322620000000 1.0
C      1  0.5011010000000  0.5361590000000  0.5706320000000 1.0
C      1  0.4963030000000  0.4660660000000  0.5677430000000 1.0
C      1  0.5634320000000  0.5489100000000  0.5390590000000 1.0
C      1  0.4419170000000  0.4516470000000  0.5322120000000 1.0
C      1  0.5618950000000  0.4490750000000  0.4601810000000 1.0
C      1  0.4408970000000  0.5497220000000  0.4683890000000 1.0
C      1  0.4426280000000  0.5269620000000  0.5587180000000 1.0
C      1  0.5556750000000  0.4748460000000  0.5656910000000 1.0
C      1  0.4409750000000  0.4740810000000  0.4415230000000 1.0
C      1  0.5548690000000  0.5260730000000  0.4381770000000 1.0
C      1  0.5540370000000  0.5492410000000  0.4616510000000 1.0
C      1  0.4470150000000  0.4500480000000  0.4616490000000 1.0
C      1  0.5555210000000  0.4513810000000  0.5432650000000 1.0
C      1  0.4476910000000  0.5513740000000  0.5387120000000 1.0
C      1  0.4412130000000  0.4383520000000  0.5069320000000 1.0
C      1  0.5554100000000  0.5517510000000  0.5074270000000 1.0
C      1  0.4398660000000  0.5629630000000  0.4937320000000 1.0
C      1  0.5609470000000  0.4490810000000  0.4924870000000 1.0
C      1  0.4723140000000  0.4638220000000  0.5358760000000 1.0
C      1  0.5307960000000  0.5397950000000  0.5364490000000 1.0
C      1  0.4711570000000  0.5369920000000  0.4638780000000 1.0
C      1  0.5310880000000  0.4614960000000  0.4672910000000 1.0
C      1  0.4982850000000  0.5555880000000  0.5032700000000 1.0
C      1  0.5006430000000  0.4470020000000  0.4962570000000 1.0
C      1  0.5027800000000  0.5010670000000  0.5006330000000 1.0
END
