TITL C-2782240-8521-1281 0.00056963327618128 125000 -287.316511261243 0 0 50 (D3) n - 1
REM
REM in /home/nfs/bkarasulu/CARBON/AIRSS/Generating-Clusters/REBO/Higher-Symm/SD-CG/HFTN-CG
REM
REM
REM
REM
REM
REM ./C.cell (12c818d87b63d06a65506943cc24bca4)
REM
REM compiler GCC version 9.2.1 20190827 (Red Hat 9.2.1-1)
REM options -cpp -mtune=generic -march=x86-64 -g -O0 -fpre-include=/usr/include/finclude/math-vector-fortran.h
REM seed -342987522 1261628493 -1450876427 1428962279 -1020486114 120165356 260112321 1543920555 532242419 -1971330908 -1931339616 921063146 -681936881 1767951215 -60472894 -269787197 -1128278739 1214771902 1296302421 1027630843 1733599149 -1722826800 -1810047067 -1242179651 1614337947 1030574437 753355829 1273541813 1331477413 422750908 1221165335 -1064868974 1417422816
REM
CELL 1.54180   50.00000   50.00000   50.00000   90.00000   90.00000   90.00000
LATT -1
SFAC C  
C      1  0.4620850000000  0.5504300000000  0.4713220000000 1.0
C      1  0.5447070000000  0.5507000000000  0.4821730000000 1.0
C      1  0.4939990000000  0.5505680000000  0.5483010000000 1.0
C      1  0.5385040000000  0.4519540000000  0.4710370000000 1.0
C      1  0.4559790000000  0.4516940000000  0.4826060000000 1.0
C      1  0.5072600000000  0.4518890000000  0.5482900000000 1.0
C      1  0.5258240000000  0.5449250000000  0.5408570000000 1.0
C      1  0.4526490000000  0.5446720000000  0.5025930000000 1.0
C      1  0.5223740000000  0.5448750000000  0.4583530000000 1.0
C      1  0.4753720000000  0.4575250000000  0.5411180000000 1.0
C      1  0.5482110000000  0.4577410000000  0.5022200000000 1.0
C      1  0.4781050000000  0.4574960000000  0.4585880000000 1.0
C      1  0.4641180000000  0.5231060000000  0.4511400000000 1.0
C      1  0.5613110000000  0.5234380000000  0.4939670000000 1.0
C      1  0.4756250000000  0.5231920000000  0.5567260000000 1.0
C      1  0.5362960000000  0.4792580000000  0.4508480000000 1.0
C      1  0.4394780000000  0.4789670000000  0.4945180000000 1.0
C      1  0.5257060000000  0.4792730000000  0.5565300000000 1.0
C      1  0.4819230000000  0.5610180000000  0.4956680000000 1.0
C      1  0.5136490000000  0.5611160000000  0.4872020000000 1.0
C      1  0.5051180000000  0.5611040000000  0.5189110000000 1.0
C      1  0.5188780000000  0.4413880000000  0.4955650000000 1.0
C      1  0.4870800000000  0.4412820000000  0.4873750000000 1.0
C      1  0.4958860000000  0.4413250000000  0.5190080000000 1.0
C      1  0.5230090000000  0.4873570000000  0.4810790000000 1.0
C      1  0.5061260000000  0.4873260000000  0.5299240000000 1.0
C      1  0.4722660000000  0.4871990000000  0.4908800000000 1.0
C      1  0.4776670000000  0.5150360000000  0.4812630000000 1.0
C      1  0.4949740000000  0.5151140000000  0.5299600000000 1.0
C      1  0.5284930000000  0.5152030000000  0.4906230000000 1.0
C      1  0.4635290000000  0.4989670000000  0.5693730000000 1.0
C      1  0.4593400000000  0.4988900000000  0.4342910000000 1.0
C      1  0.5784190000000  0.4993030000000  0.4982040000000 1.0
C      1  0.5379120000000  0.5035100000000  0.5690480000000 1.0
C      1  0.5409270000000  0.5034570000000  0.4339340000000 1.0
C      1  0.4224080000000  0.5031070000000  0.4988800000000 1.0
C      1  0.4631890000000  0.4750260000000  0.5629000000000 1.0
C      1  0.4652410000000  0.4749740000000  0.4371820000000 1.0
C      1  0.5730890000000  0.4753510000000  0.5018180000000 1.0
C      1  0.5381950000000  0.5274450000000  0.5625490000000 1.0
C      1  0.5350510000000  0.5273760000000  0.4368540000000 1.0
C      1  0.4277690000000  0.5270620000000  0.5024250000000 1.0
C      1  0.5380290000000  0.5390670000000  0.5136070000000 1.0
C      1  0.4701760000000  0.5388550000000  0.5267760000000 1.0
C      1  0.4926980000000  0.5388970000000  0.4614290000000 1.0
C      1  0.4629300000000  0.4633570000000  0.5139700000000 1.0
C      1  0.5308950000000  0.4635810000000  0.5265480000000 1.0
C      1  0.5078060000000  0.4634770000000  0.4613990000000 1.0
C      1  0.5003430000000  0.5258580000000  0.5006100000000 1.0
C      1  0.5005020000000  0.4765540000000  0.5006330000000 1.0
END
