TITL C-2782237-5345-977 -0.00147987448700849 125000 -929.044058558885 0 0 159 (C1) n - 1
REM
REM in /home/nfs/bkarasulu/CARBON/AIRSS/Generating-Clusters/REBO/Higher-Symm/SD-CG/HFTN-CG
REM
REM
REM
REM
REM
REM ./C.cell (12c818d87b63d06a65506943cc24bca4)
REM
REM compiler GCC version 9.2.1 20190827 (Red Hat 9.2.1-1)
REM options -cpp -mtune=generic -march=x86-64 -g -O0 -fpre-include=/usr/include/finclude/math-vector-fortran.h
REM seed 1130335758 602438063 -364039726 -587752537 425258603 -1232629579 -513601220 -1020664347 467702005 874887031 -645721715 2131418866 -139367167 -50218844 1887363344 2020194193 -1339508867 -1029399190 193728884 -930613162 1339858337 -1616707361 -884282096 -512640006 1137285993 -1226703917 1773202000 1310601949 329229863 564298050 1067965688 1237009908 1183507524
REM
CELL 1.54180   50.00000   50.00000   50.00000   90.00000   90.00000   90.00000
LATT -1
SFAC C  
C      1  0.5283040000000  0.5004300000000  0.5588830000000 1.0
C      1  0.5429970000000  0.5088110000000  0.4456640000000 1.0
C      1  0.4311400000000  0.5025420000000  0.4943240000000 1.0
C      1  0.4712460000000  0.5031910000000  0.5629140000000 1.0
C      1  0.4604200000000  0.5046300000000  0.4446810000000 1.0
C      1  0.5688180000000  0.5053270000000  0.4925870000000 1.0
C      1  0.3974220000000  0.5115890000000  0.5133840000000 1.0
C      1  0.5555690000000  0.5126140000000  0.5853910000000 1.0
C      1  0.5447930000000  0.5128330000000  0.4061650000000 1.0
C      1  0.6026260000000  0.5142180000000  0.5112740000000 1.0
C      1  0.4411740000000  0.5110110000000  0.5848740000000 1.0
C      1  0.4607470000000  0.5104590000000  0.4053400000000 1.0
C      1  0.4559770000000  0.5314130000000  0.4631410000000 1.0
C      1  0.4824470000000  0.5299980000000  0.5525160000000 1.0
C      1  0.5574060000000  0.5343660000000  0.4888190000000 1.0
C      1  0.5440620000000  0.5359880000000  0.4613980000000 1.0
C      1  0.5158060000000  0.5297120000000  0.5531920000000 1.0
C      1  0.4443050000000  0.5296600000000  0.4931950000000 1.0
C      1  0.5158580000000  0.5991010000000  0.5255740000000 1.0
C      1  0.5155210000000  0.6019640000000  0.4752290000000 1.0
C      1  0.4716230000000  0.5984320000000  0.5006910000000 1.0
C      1  0.4864140000000  0.6020850000000  0.5256470000000 1.0
C      1  0.4866990000000  0.5969440000000  0.4752900000000 1.0
C      1  0.5310500000000  0.6039550000000  0.5005110000000 1.0
C      1  0.4292560000000  0.4334520000000  0.5290160000000 1.0
C      1  0.5521090000000  0.4345820000000  0.5493410000000 1.0
C      1  0.5098100000000  0.4359070000000  0.4300500000000 1.0
C      1  0.5692730000000  0.4348910000000  0.5270620000000 1.0
C      1  0.4457340000000  0.4323140000000  0.5520930000000 1.0
C      1  0.4815520000000  0.4302120000000  0.4278700000000 1.0
C      1  0.5860550000000  0.5057960000000  0.5717940000000 1.0
C      1  0.5160730000000  0.5020480000000  0.3902090000000 1.0
C      1  0.4000190000000  0.5014490000000  0.5463850000000 1.0
C      1  0.4105880000000  0.5031690000000  0.5712180000000 1.0
C      1  0.4899950000000  0.5011500000000  0.3894720000000 1.0
C      1  0.5994160000000  0.5038220000000  0.5441830000000 1.0
C      1  0.5616120000000  0.5373750000000  0.4251090000000 1.0
C      1  0.4053880000000  0.5317080000000  0.4856730000000 1.0
C      1  0.5319830000000  0.5371610000000  0.5887260000000 1.0
C      1  0.4413040000000  0.5324600000000  0.4243310000000 1.0
C      1  0.5967600000000  0.5374240000000  0.4853450000000 1.0
C      1  0.4665560000000  0.5335640000000  0.5889080000000 1.0
C      1  0.4782540000000  0.5839530000000  0.5534460000000 1.0
C      1  0.5587830000000  0.5854000000000  0.4912530000000 1.0
C      1  0.4658010000000  0.5783740000000  0.4556700000000 1.0
C      1  0.5232270000000  0.5786580000000  0.5519750000000 1.0
C      1  0.4452160000000  0.5787140000000  0.4905870000000 1.0
C      1  0.5354110000000  0.5838120000000  0.4542360000000 1.0
C      1  0.4697690000000  0.5587610000000  0.5033870000000 1.0
C      1  0.5190380000000  0.5592600000000  0.5252260000000 1.0
C      1  0.5163500000000  0.5623030000000  0.4728650000000 1.0
C      1  0.5330650000000  0.5645760000000  0.4984610000000 1.0
C      1  0.4868910000000  0.5626360000000  0.5299130000000 1.0
C      1  0.4843760000000  0.5570760000000  0.4746440000000 1.0
C      1  0.4811280000000  0.4363670000000  0.4756740000000 1.0
C      1  0.4807020000000  0.4368580000000  0.5272780000000 1.0
C      1  0.5298010000000  0.4390400000000  0.4981850000000 1.0
C      1  0.5122850000000  0.4442740000000  0.4743590000000 1.0
C      1  0.5118670000000  0.4315440000000  0.5243790000000 1.0
C      1  0.4652880000000  0.4438250000000  0.5006680000000 1.0
C      1  0.4912590000000  0.5307830000000  0.5220230000000 1.0
C      1  0.5308330000000  0.5176720000000  0.4942970000000 1.0
C      1  0.4867000000000  0.5216170000000  0.4690910000000 1.0
C      1  0.5225750000000  0.5265390000000  0.5204040000000 1.0
C      1  0.4748420000000  0.5258130000000  0.4976970000000 1.0
C      1  0.5136750000000  0.5304930000000  0.4691360000000 1.0
C      1  0.4844730000000  0.4755210000000  0.5611900000000 1.0
C      1  0.5593970000000  0.4772750000000  0.4817090000000 1.0
C      1  0.4551050000000  0.4752800000000  0.4515020000000 1.0
C      1  0.5153230000000  0.4743590000000  0.5544940000000 1.0
C      1  0.4370060000000  0.4755650000000  0.4768290000000 1.0
C      1  0.5419910000000  0.4801770000000  0.4561670000000 1.0
C      1  0.5127150000000  0.5751470000000  0.4323510000000 1.0
C      1  0.4387340000000  0.5746280000000  0.5228830000000 1.0
C      1  0.5536840000000  0.5735550000000  0.5477500000000 1.0
C      1  0.4854090000000  0.5719880000000  0.4312690000000 1.0
C      1  0.5642150000000  0.5777380000000  0.5226170000000 1.0
C      1  0.4515360000000  0.5703590000000  0.5469180000000 1.0
C      1  0.5139630000000  0.4717780000000  0.4613270000000 1.0
C      1  0.4586410000000  0.4750370000000  0.5033450000000 1.0
C      1  0.5188120000000  0.4638630000000  0.5271740000000 1.0
C      1  0.4815460000000  0.4622870000000  0.4570240000000 1.0
C      1  0.5456320000000  0.4640990000000  0.5071360000000 1.0
C      1  0.4775520000000  0.4677740000000  0.5320340000000 1.0
C      1  0.5659670000000  0.4656770000000  0.5541080000000 1.0
C      1  0.5162740000000  0.4663110000000  0.4181010000000 1.0
C      1  0.4137940000000  0.4607000000000  0.5285380000000 1.0
C      1  0.4334640000000  0.4640570000000  0.5562450000000 1.0
C      1  0.4829020000000  0.4611360000000  0.4150560000000 1.0
C      1  0.5862990000000  0.4608870000000  0.5271050000000 1.0
C      1  0.5301930000000  0.4337110000000  0.5824250000000 1.0
C      1  0.5537470000000  0.4369360000000  0.4367110000000 1.0
C      1  0.4124050000000  0.4355100000000  0.4868030000000 1.0
C      1  0.4681720000000  0.4329390000000  0.5848500000000 1.0
C      1  0.4426880000000  0.4358530000000  0.4350890000000 1.0
C      1  0.5878860000000  0.4351100000000  0.4873720000000 1.0
C      1  0.4391220000000  0.5602860000000  0.4439910000000 1.0
C      1  0.4841270000000  0.5605800000000  0.5779790000000 1.0
C      1  0.5789730000000  0.5640610000000  0.4733440000000 1.0
C      1  0.5627830000000  0.5655560000000  0.4444570000000 1.0
C      1  0.5145380000000  0.5604260000000  0.5784370000000 1.0
C      1  0.4239630000000  0.5577590000000  0.4735950000000 1.0
C      1  0.4855990000000  0.4896810000000  0.4284380000000 1.0
C      1  0.4433770000000  0.4960580000000  0.5498220000000 1.0
C      1  0.5664040000000  0.4860540000000  0.5198870000000 1.0
C      1  0.5169620000000  0.4966820000000  0.4298010000000 1.0
C      1  0.5559710000000  0.4975590000000  0.5471900000000 1.0
C      1  0.4334380000000  0.4852370000000  0.5225050000000 1.0
C      1  0.4252290000000  0.4647520000000  0.4403320000000 1.0
C      1  0.4838290000000  0.4609830000000  0.5909070000000 1.0
C      1  0.5872840000000  0.4642560000000  0.4712630000000 1.0
C      1  0.5699810000000  0.4653480000000  0.4451650000000 1.0
C      1  0.5139380000000  0.4619480000000  0.5845400000000 1.0
C      1  0.4084250000000  0.4637160000000  0.4680190000000 1.0
C      1  0.5462310000000  0.4592390000000  0.4146990000000 1.0
C      1  0.3961540000000  0.4578640000000  0.5044850000000 1.0
C      1  0.5529400000000  0.4571040000000  0.5822360000000 1.0
C      1  0.4526300000000  0.4566570000000  0.4134950000000 1.0
C      1  0.6062360000000  0.4581480000000  0.5044410000000 1.0
C      1  0.4454890000000  0.4564270000000  0.5845330000000 1.0
C      1  0.5653620000000  0.4213540000000  0.5021520000000 1.0
C      1  0.4636940000000  0.4162100000000  0.4461200000000 1.0
C      1  0.4691150000000  0.4161090000000  0.5591740000000 1.0
C      1  0.4328990000000  0.4211440000000  0.5032840000000 1.0
C      1  0.5298960000000  0.4229960000000  0.4457930000000 1.0
C      1  0.5304340000000  0.4168630000000  0.5571080000000 1.0
C      1  0.4835220000000  0.4041110000000  0.5307420000000 1.0
C      1  0.5344710000000  0.4066520000000  0.5020360000000 1.0
C      1  0.4814600000000  0.4044390000000  0.4727540000000 1.0
C      1  0.5174400000000  0.4006050000000  0.5310740000000 1.0
C      1  0.4652130000000  0.4097480000000  0.5023110000000 1.0
C      1  0.5152870000000  0.4103140000000  0.4739570000000 1.0
C      1  0.4878480000000  0.5229810000000  0.4223980000000 1.0
C      1  0.4339040000000  0.5256820000000  0.5483080000000 1.0
C      1  0.5826650000000  0.5347980000000  0.5263670000000 1.0
C      1  0.5184130000000  0.5281810000000  0.4198130000000 1.0
C      1  0.5648100000000  0.5265870000000  0.5457650000000 1.0
C      1  0.4154170000000  0.5334220000000  0.5289350000000 1.0
C      1  0.5631980000000  0.4870710000000  0.4191300000000 1.0
C      1  0.3947610000000  0.4868800000000  0.4899140000000 1.0
C      1  0.5387440000000  0.4840670000000  0.5937120000000 1.0
C      1  0.4391070000000  0.4862730000000  0.4165420000000 1.0
C      1  0.6045540000000  0.4879700000000  0.4893590000000 1.0
C      1  0.4595470000000  0.4846020000000  0.5961950000000 1.0
C      1  0.5271190000000  0.5494120000000  0.4366700000000 1.0
C      1  0.4299280000000  0.5488320000000  0.5115580000000 1.0
C      1  0.5450750000000  0.5451750000000  0.5523590000000 1.0
C      1  0.4752040000000  0.5440980000000  0.4381470000000 1.0
C      1  0.5692590000000  0.5519010000000  0.5097100000000 1.0
C      1  0.4542100000000  0.5435040000000  0.5529870000000 1.0
C      1  0.4264490000000  0.5065810000000  0.4408820000000 1.0
C      1  0.4861380000000  0.5060790000000  0.5930710000000 1.0
C      1  0.5907460000000  0.5096160000000  0.4668690000000 1.0
C      1  0.5760810000000  0.5105830000000  0.4403200000000 1.0
C      1  0.5161260000000  0.5086320000000  0.5898210000000 1.0
C      1  0.4116140000000  0.5045200000000  0.4661210000000 1.0
C      1  0.4977120000000  0.4802820000000  0.5101030000000 1.0
C      1  0.5142430000000  0.4940170000000  0.4854060000000 1.0
C      1  0.4821350000000  0.4856020000000  0.4810220000000 1.0
END
