TITL C-2782230-7391-341 -0.00139600634423819 125000 -846.034331754499 0 0 143 (C1) n - 1
REM
REM in /home/nfs/bkarasulu/CARBON/AIRSS/Generating-Clusters/REBO/Higher-Symm/SD-CG/HFTN-CG
REM
REM
REM
REM
REM
REM ./C.cell (12c818d87b63d06a65506943cc24bca4)
REM
REM compiler GCC version 9.2.1 20190827 (Red Hat 9.2.1-1)
REM options -cpp -mtune=generic -march=x86-64 -g -O0 -fpre-include=/usr/include/finclude/math-vector-fortran.h
REM seed 265338671 -181978918 856274803 -1382653220 -1848711272 -1600874852 316299848 155079190 1746297953 -1489168607 -505102389 419210142 -1981304335 1378783300 1265021082 1820114259 606178670 -242840580 1110541359 848166795 573071141 -589958674 -1075096215 -289361504 2017909359 -215340044 -404036513 342133186 -1317954969 114621245 -2020109350 -802751025 523383855
REM
CELL 1.54180   50.00000   50.00000   50.00000   90.00000   90.00000   90.00000
LATT -1
SFAC C  
C      1  0.5028380000000  0.5471520000000  0.5810460000000 1.0
C      1  0.5859150000000  0.5045290000000  0.5488000000000 1.0
C      1  0.5473330000000  0.5874480000000  0.5008870000000 1.0
C      1  0.4992630000000  0.5521030000000  0.4223350000000 1.0
C      1  0.4920510000000  0.4521480000000  0.4133210000000 1.0
C      1  0.5082080000000  0.4521110000000  0.5814260000000 1.0
C      1  0.4082090000000  0.4967120000000  0.4512910000000 1.0
C      1  0.5807230000000  0.4987020000000  0.4548790000000 1.0
C      1  0.4149820000000  0.5017090000000  0.5509310000000 1.0
C      1  0.4557680000000  0.5883800000000  0.4921520000000 1.0
C      1  0.5522830000000  0.4176620000000  0.5043730000000 1.0
C      1  0.4542120000000  0.4124810000000  0.4967530000000 1.0
C      1  0.4623410000000  0.5912250000000  0.5435470000000 1.0
C      1  0.5491940000000  0.4693450000000  0.5984230000000 1.0
C      1  0.6018420000000  0.5453760000000  0.4625690000000 1.0
C      1  0.5215120000000  0.5918540000000  0.4706950000000 1.0
C      1  0.4708750000000  0.4012770000000  0.4626260000000 1.0
C      1  0.5244430000000  0.4066250000000  0.5493800000000 1.0
C      1  0.4505230000000  0.4682270000000  0.3997030000000 1.0
C      1  0.5395830000000  0.5336050000000  0.4033370000000 1.0
C      1  0.4579400000000  0.5252930000000  0.5917670000000 1.0
C      1  0.4054640000000  0.5474280000000  0.5257700000000 1.0
C      1  0.5977660000000  0.4559950000000  0.5334540000000 1.0
C      1  0.4021840000000  0.4608640000000  0.4679540000000 1.0
C      1  0.5531020000000  0.4247980000000  0.4711830000000 1.0
C      1  0.4628650000000  0.5518490000000  0.4194870000000 1.0
C      1  0.4210200000000  0.4683810000000  0.5524790000000 1.0
C      1  0.4470290000000  0.4189620000000  0.5282240000000 1.0
C      1  0.5556560000000  0.5701940000000  0.5236030000000 1.0
C      1  0.4523580000000  0.5718620000000  0.4635560000000 1.0
C      1  0.5271840000000  0.5527970000000  0.5671650000000 1.0
C      1  0.4758980000000  0.4458230000000  0.5745920000000 1.0
C      1  0.5242850000000  0.4502670000000  0.4201540000000 1.0
C      1  0.5639440000000  0.4765100000000  0.4477190000000 1.0
C      1  0.4192470000000  0.5273700000000  0.4457610000000 1.0
C      1  0.5727880000000  0.5292990000000  0.5555050000000 1.0
C      1  0.4964310000000  0.5806770000000  0.4726340000000 1.0
C      1  0.4539840000000  0.4982490000000  0.5869450000000 1.0
C      1  0.5935560000000  0.4498530000000  0.5075470000000 1.0
C      1  0.4888250000000  0.5879910000000  0.5486570000000 1.0
C      1  0.5021740000000  0.3968870000000  0.5539840000000 1.0
C      1  0.4971990000000  0.4102070000000  0.4672460000000 1.0
C      1  0.5348620000000  0.5075790000000  0.4089260000000 1.0
C      1  0.4609270000000  0.4939580000000  0.4054380000000 1.0
C      1  0.5501710000000  0.4962770000000  0.5911370000000 1.0
C      1  0.4084240000000  0.4680690000000  0.4938470000000 1.0
C      1  0.6001600000000  0.5461260000000  0.4896390000000 1.0
C      1  0.4138150000000  0.5482220000000  0.4996550000000 1.0
C      1  0.4356320000000  0.4479620000000  0.5295490000000 1.0
C      1  0.5325370000000  0.4343950000000  0.4459900000000 1.0
C      1  0.4476390000000  0.5271600000000  0.4349190000000 1.0
C      1  0.5692390000000  0.4518390000000  0.4642300000000 1.0
C      1  0.4365740000000  0.5479820000000  0.4671450000000 1.0
C      1  0.5780120000000  0.5499230000000  0.5332100000000 1.0
C      1  0.4704260000000  0.4352790000000  0.5462020000000 1.0
C      1  0.5318930000000  0.5686630000000  0.5417700000000 1.0
C      1  0.4766100000000  0.5711800000000  0.4394130000000 1.0
C      1  0.5477160000000  0.5314270000000  0.5727660000000 1.0
C      1  0.4485240000000  0.4641750000000  0.5671510000000 1.0
C      1  0.5383770000000  0.4775680000000  0.4342350000000 1.0
C      1  0.4825700000000  0.5116510000000  0.5625470000000 1.0
C      1  0.5693640000000  0.4807550000000  0.5151830000000 1.0
C      1  0.5255290000000  0.5562630000000  0.4891260000000 1.0
C      1  0.4959740000000  0.5056640000000  0.4606780000000 1.0
C      1  0.4976810000000  0.4751850000000  0.4455040000000 1.0
C      1  0.5124630000000  0.4863750000000  0.5551440000000 1.0
C      1  0.4437360000000  0.4899900000000  0.4672740000000 1.0
C      1  0.5571770000000  0.5271060000000  0.4730820000000 1.0
C      1  0.4292040000000  0.5152830000000  0.5162370000000 1.0
C      1  0.4782370000000  0.5522950000000  0.5136430000000 1.0
C      1  0.5144870000000  0.4345040000000  0.5191850000000 1.0
C      1  0.4721320000000  0.4480800000000  0.4942920000000 1.0
C      1  0.5281260000000  0.4040800000000  0.4596170000000 1.0
C      1  0.4544670000000  0.5251490000000  0.4017970000000 1.0
C      1  0.4039520000000  0.4579240000000  0.5244420000000 1.0
C      1  0.4734570000000  0.4025610000000  0.5430310000000 1.0
C      1  0.5151000000000  0.5939770000000  0.5357790000000 1.0
C      1  0.4727860000000  0.5983650000000  0.4577720000000 1.0
C      1  0.5387980000000  0.5213140000000  0.6035140000000 1.0
C      1  0.4618650000000  0.4671640000000  0.5977180000000 1.0
C      1  0.5377170000000  0.4747230000000  0.4004330000000 1.0
C      1  0.5962450000000  0.4591620000000  0.4790830000000 1.0
C      1  0.4024280000000  0.5449180000000  0.4693040000000 1.0
C      1  0.6048690000000  0.5396190000000  0.5188080000000 1.0
C      1  0.5343990000000  0.4619190000000  0.5147620000000 1.0
C      1  0.5070210000000  0.5210850000000  0.4866530000000 1.0
C      1  0.4536390000000  0.4947080000000  0.5252870000000 1.0
C      1  0.4529280000000  0.4666270000000  0.5115260000000 1.0
C      1  0.5374490000000  0.5387630000000  0.5056200000000 1.0
C      1  0.4685910000000  0.5210930000000  0.5154830000000 1.0
C      1  0.4960910000000  0.5242750000000  0.5354240000000 1.0
C      1  0.5074230000000  0.4710870000000  0.5328610000000 1.0
C      1  0.5095850000000  0.4534440000000  0.4571350000000 1.0
C      1  0.5327590000000  0.5187240000000  0.4673160000000 1.0
C      1  0.4636270000000  0.5076280000000  0.4522780000000 1.0
C      1  0.5401700000000  0.4932710000000  0.5273500000000 1.0
C      1  0.4786660000000  0.4015170000000  0.5112560000000 1.0
C      1  0.5050900000000  0.4766650000000  0.3975920000000 1.0
C      1  0.3975940000000  0.5127390000000  0.4757580000000 1.0
C      1  0.5290880000000  0.4008430000000  0.4919390000000 1.0
C      1  0.4763720000000  0.6117030000000  0.4877390000000 1.0
C      1  0.5233820000000  0.6033780000000  0.5096650000000 1.0
C      1  0.4931770000000  0.4750690000000  0.5952450000000 1.0
C      1  0.5094550000000  0.5248970000000  0.5994670000000 1.0
C      1  0.4877550000000  0.5270300000000  0.4023420000000 1.0
C      1  0.6031280000000  0.5110380000000  0.5253660000000 1.0
C      1  0.3999060000000  0.4902090000000  0.5268210000000 1.0
C      1  0.5984810000000  0.4889460000000  0.4763240000000 1.0
C      1  0.5688900000000  0.5394760000000  0.5019190000000 1.0
C      1  0.4998030000000  0.5572830000000  0.5385020000000 1.0
C      1  0.5417090000000  0.5003130000000  0.5599410000000 1.0
C      1  0.4451120000000  0.5352270000000  0.4952960000000 1.0
C      1  0.5610640000000  0.4541490000000  0.4971650000000 1.0
C      1  0.4336970000000  0.4820040000000  0.4931270000000 1.0
C      1  0.4940380000000  0.5526480000000  0.4873870000000 1.0
C      1  0.4949310000000  0.4378650000000  0.4748130000000 1.0
C      1  0.4862910000000  0.4490570000000  0.5244450000000 1.0
C      1  0.4776630000000  0.4910870000000  0.4286310000000 1.0
C      1  0.5233060000000  0.5049960000000  0.4401330000000 1.0
C      1  0.4587050000000  0.4921470000000  0.5541120000000 1.0
C      1  0.4273170000000  0.4687940000000  0.4477870000000 1.0
C      1  0.4559810000000  0.4310060000000  0.4691560000000 1.0
C      1  0.4637130000000  0.4496870000000  0.4181030000000 1.0
C      1  0.5738960000000  0.4726630000000  0.5479290000000 1.0
C      1  0.4261390000000  0.5322950000000  0.5450920000000 1.0
C      1  0.5769750000000  0.5318300000000  0.4487030000000 1.0
C      1  0.5437580000000  0.4288560000000  0.5351340000000 1.0
C      1  0.4540730000000  0.5724850000000  0.5190410000000 1.0
C      1  0.5468820000000  0.5723470000000  0.4701780000000 1.0
C      1  0.5362830000000  0.4530400000000  0.5789150000000 1.0
C      1  0.4721390000000  0.5437270000000  0.5677930000000 1.0
C      1  0.5309230000000  0.5516010000000  0.4242630000000 1.0
C      1  0.5056730000000  0.4080340000000  0.5061680000000 1.0
C      1  0.4980170000000  0.5034990000000  0.3940150000000 1.0
C      1  0.4014300000000  0.5063940000000  0.5025490000000 1.0
C      1  0.5026060000000  0.6168320000000  0.4960330000000 1.0
C      1  0.4964240000000  0.5020930000000  0.5882200000000 1.0
C      1  0.5931460000000  0.4955960000000  0.5040000000000 1.0
C      1  0.4512470000000  0.5520790000000  0.5463330000000 1.0
C      1  0.5517300000000  0.4507340000000  0.5549320000000 1.0
C      1  0.5518600000000  0.5547320000000  0.4447610000000 1.0
C      1  0.4489700000000  0.4466490000000  0.4432040000000 1.0
C      1  0.5202940000000  0.5149530000000  0.5173550000000 1.0
END
