TITL C-2782236-320-160 -0.000998159223072848 125000 -496.057267607343 0 0 84 (C1) n - 1
REM
REM in /home/nfs/bkarasulu/CARBON/AIRSS/Generating-Clusters/REBO/Higher-Symm/SD-CG/HFTN-CG
REM
REM
REM
REM
REM
REM ./C.cell (12c818d87b63d06a65506943cc24bca4)
REM
REM compiler GCC version 9.2.1 20190827 (Red Hat 9.2.1-1)
REM options -cpp -mtune=generic -march=x86-64 -g -O0 -fpre-include=/usr/include/finclude/math-vector-fortran.h
REM seed 958554345 18328368 1780184082 1036637996 15112299 912778838 -720934600 -1773813403 -429269517 -480976527 599208917 -226473934 -1136703871 535250871 1248757084 -1879356985 1845913678 377553134 626267339 -580382436 1872917322 125338852 1307105475 -2111052929 -1926010719 1130362646 -741413753 -758383610 287001567 869722114 2048659883 2139942880 -1148694640
REM
CELL 1.54180   50.00000   50.00000   50.00000   90.00000   90.00000   90.00000
LATT -1
SFAC C  
C      1  0.4455660000000  0.4617230000000  0.5346700000000 1.0
C      1  0.4401100000000  0.5076100000000  0.5529470000000 1.0
C      1  0.4481770000000  0.5431290000000  0.5218420000000 1.0
C      1  0.4395940000000  0.5558650000000  0.4791900000000 1.0
C      1  0.4523590000000  0.5187020000000  0.4502390000000 1.0
C      1  0.4551070000000  0.4706240000000  0.4661070000000 1.0
C      1  0.4368700000000  0.4402170000000  0.4931620000000 1.0
C      1  0.5250900000000  0.5328390000000  0.4961780000000 1.0
C      1  0.5228120000000  0.5206660000000  0.4722230000000 1.0
C      1  0.5233010000000  0.4935460000000  0.4686230000000 1.0
C      1  0.5182060000000  0.4702620000000  0.4863890000000 1.0
C      1  0.5265270000000  0.4710560000000  0.5165010000000 1.0
C      1  0.5312940000000  0.4922980000000  0.5313800000000 1.0
C      1  0.5335150000000  0.5208420000000  0.5232000000000 1.0
C      1  0.4803170000000  0.5480560000000  0.5557660000000 1.0
C      1  0.4830830000000  0.5793580000000  0.4960960000000 1.0
C      1  0.4838960000000  0.5559200000000  0.4338030000000 1.0
C      1  0.4875160000000  0.4730040000000  0.4300490000000 1.0
C      1  0.4814790000000  0.4218510000000  0.4625170000000 1.0
C      1  0.4820820000000  0.4312860000000  0.5399490000000 1.0
C      1  0.4834820000000  0.4853150000000  0.5755960000000 1.0
C      1  0.5286790000000  0.4194660000000  0.5043850000000 1.0
C      1  0.5369880000000  0.4532470000000  0.5658640000000 1.0
C      1  0.5351100000000  0.5231740000000  0.5770400000000 1.0
C      1  0.5382740000000  0.5764030000000  0.5379760000000 1.0
C      1  0.5326430000000  0.5730670000000  0.4577370000000 1.0
C      1  0.5311820000000  0.5165040000000  0.4171500000000 1.0
C      1  0.5253560000000  0.4420580000000  0.4400130000000 1.0
C      1  0.5329040000000  0.4861740000000  0.5625340000000 1.0
C      1  0.5292500000000  0.5392100000000  0.5486790000000 1.0
C      1  0.5315440000000  0.5600200000000  0.4953430000000 1.0
C      1  0.5270750000000  0.5409710000000  0.4483570000000 1.0
C      1  0.5335490000000  0.4867380000000  0.4432630000000 1.0
C      1  0.5230200000000  0.4431000000000  0.4731510000000 1.0
C      1  0.5272040000000  0.4418270000000  0.5288520000000 1.0
C      1  0.5114200000000  0.5789310000000  0.4800230000000 1.0
C      1  0.5059500000000  0.5373360000000  0.4266350000000 1.0
C      1  0.5187070000000  0.4670170000000  0.4296310000000 1.0
C      1  0.5016850000000  0.4230400000000  0.4855220000000 1.0
C      1  0.5117220000000  0.4378980000000  0.5553290000000 1.0
C      1  0.5120830000000  0.5016470000000  0.5791710000000 1.0
C      1  0.5084600000000  0.5623940000000  0.5456010000000 1.0
C      1  0.4567560000000  0.4689640000000  0.5631570000000 1.0
C      1  0.4545320000000  0.5296870000000  0.5667580000000 1.0
C      1  0.4536900000000  0.5690290000000  0.5049440000000 1.0
C      1  0.4590540000000  0.5490060000000  0.4550030000000 1.0
C      1  0.4704790000000  0.5013720000000  0.4382530000000 1.0
C      1  0.4530790000000  0.4384950000000  0.4656840000000 1.0
C      1  0.4549100000000  0.4350080000000  0.5193340000000 1.0
C      1  0.5511300000000  0.5639010000000  0.5167370000000 1.0
C      1  0.5547020000000  0.5512960000000  0.4633630000000 1.0
C      1  0.5550080000000  0.5067690000000  0.4354580000000 1.0
C      1  0.5479330000000  0.4271410000000  0.4561720000000 1.0
C      1  0.5530230000000  0.4426140000000  0.5069810000000 1.0
C      1  0.5614800000000  0.4717300000000  0.5542930000000 1.0
C      1  0.5584670000000  0.5224260000000  0.5544030000000 1.0
C      1  0.4848110000000  0.4526130000000  0.5662940000000 1.0
C      1  0.4845700000000  0.5190810000000  0.5733250000000 1.0
C      1  0.4801000000000  0.5665840000000  0.5271740000000 1.0
C      1  0.4834990000000  0.5707090000000  0.4638530000000 1.0
C      1  0.4997380000000  0.5042720000000  0.4224500000000 1.0
C      1  0.4753110000000  0.4472830000000  0.4410560000000 1.0
C      1  0.4857960000000  0.4375150000000  0.5077880000000 1.0
C      1  0.4211510000000  0.4653840000000  0.4949930000000 1.0
C      1  0.4221210000000  0.4765160000000  0.5215470000000 1.0
C      1  0.4210760000000  0.5037320000000  0.5308830000000 1.0
C      1  0.4241470000000  0.5273160000000  0.5140090000000 1.0
C      1  0.4233810000000  0.5324120000000  0.4853190000000 1.0
C      1  0.4305050000000  0.5108070000000  0.4673860000000 1.0
C      1  0.4301570000000  0.4832770000000  0.4735860000000 1.0
C      1  0.5715420000000  0.5119130000000  0.5311990000000 1.0
C      1  0.5632520000000  0.5330200000000  0.5078490000000 1.0
C      1  0.5680450000000  0.5313060000000  0.4771870000000 1.0
C      1  0.5742650000000  0.5101950000000  0.4583120000000 1.0
C      1  0.5942270000000  0.4921630000000  0.4624400000000 1.0
C      1  0.5708940000000  0.4643010000000  0.5086640000000 1.0
C      1  0.5728200000000  0.4829890000000  0.5304570000000 1.0
C      1  0.4888570000000  0.4681080000000  0.5035650000000 1.0
C      1  0.4726920000000  0.4788360000000  0.5279260000000 1.0
C      1  0.4683530000000  0.5042560000000  0.5392320000000 1.0
C      1  0.4720700000000  0.5272040000000  0.5226910000000 1.0
C      1  0.4858950000000  0.5254940000000  0.4982080000000 1.0
C      1  0.4847710000000  0.5091390000000  0.4763970000000 1.0
C      1  0.4785240000000  0.4817480000000  0.4769860000000 1.0
END
