TITL C-2782230-7391-553 0.0053561634010956 125000 -457.852682680989 0 0 78 (Ci) n - 1
REM
REM in /home/nfs/bkarasulu/CARBON/AIRSS/Generating-Clusters/REBO/Higher-Symm/SD-CG/HFTN-CG
REM
REM
REM
REM
REM
REM ./C.cell (12c818d87b63d06a65506943cc24bca4)
REM
REM compiler GCC version 9.2.1 20190827 (Red Hat 9.2.1-1)
REM options -cpp -mtune=generic -march=x86-64 -g -O0 -fpre-include=/usr/include/finclude/math-vector-fortran.h
REM seed 2007150257 -1818627041 1674746859 -41821099 -1113230951 255909804 529270660 1946066330 274341555 1562552157 -527275914 1997648033 -552127717 -581007107 -989773234 787403216 1305489615 -93553679 -121393677 -409291235 756529162 1340290292 74806704 -902911467 -498878172 627073263 -1920873919 -1507976919 -1631434052 411383807 1311781746 -2024800244 629116120
REM
CELL 1.54180   50.00000   50.00000   50.00000   90.00000   90.00000   90.00000
LATT -1
SFAC C  
C      1  0.5333180000000  0.5364060000000  0.4850790000000 1.0
C      1  0.4591510000000  0.5371320000000  0.4848070000000 1.0
C      1  0.4664560000000  0.4644260000000  0.4858350000000 1.0
C      1  0.5419070000000  0.4635930000000  0.4860960000000 1.0
C      1  0.5339120000000  0.5363140000000  0.5137930000000 1.0
C      1  0.4584600000000  0.5371470000000  0.5135320000000 1.0
C      1  0.4670490000000  0.4643340000000  0.5145490000000 1.0
C      1  0.5412170000000  0.4636080000000  0.5148210000000 1.0
C      1  0.4705050000000  0.4730520000000  0.4429180000000 1.0
C      1  0.5325570000000  0.4647670000000  0.4458910000000 1.0
C      1  0.5294400000000  0.5282680000000  0.4444660000000 1.0
C      1  0.4686180000000  0.5340430000000  0.4433600000000 1.0
C      1  0.4709280000000  0.4724710000000  0.5551620000000 1.0
C      1  0.5317490000000  0.4666970000000  0.5562680000000 1.0
C      1  0.5298620000000  0.5276880000000  0.5567100000000 1.0
C      1  0.4678110000000  0.5359730000000  0.5537370000000 1.0
C      1  0.4873160000000  0.5762200000000  0.4730710000000 1.0
C      1  0.4253790000000  0.4898690000000  0.4733340000000 1.0
C      1  0.5135560000000  0.4258980000000  0.4730920000000 1.0
C      1  0.5730770000000  0.5100330000000  0.4728630000000 1.0
C      1  0.4868120000000  0.5748420000000  0.5265360000000 1.0
C      1  0.4272900000000  0.4907070000000  0.5267650000000 1.0
C      1  0.5130510000000  0.4245200000000  0.5265570000000 1.0
C      1  0.5749880000000  0.5108710000000  0.5262940000000 1.0
C      1  0.5145450000000  0.5148110000000  0.5285640000000 1.0
C      1  0.4819350000000  0.5197870000000  0.5264310000000 1.0
C      1  0.4861830000000  0.4867870000000  0.5278030000000 1.0
C      1  0.5188220000000  0.4824590000000  0.5283950000000 1.0
C      1  0.5141840000000  0.5139530000000  0.4718250000000 1.0
C      1  0.4815460000000  0.5182810000000  0.4712330000000 1.0
C      1  0.4858230000000  0.4859290000000  0.4710640000000 1.0
C      1  0.5184330000000  0.4809530000000  0.4731970000000 1.0
C      1  0.5321310000000  0.4971230000000  0.4396190000000 1.0
C      1  0.4990710000000  0.5378140000000  0.4397450000000 1.0
C      1  0.4630650000000  0.5028230000000  0.4393110000000 1.0
C      1  0.5021090000000  0.4688820000000  0.4388410000000 1.0
C      1  0.5373030000000  0.4979170000000  0.5603170000000 1.0
C      1  0.4982590000000  0.5318570000000  0.5607870000000 1.0
C      1  0.4682360000000  0.5036160000000  0.5600090000000 1.0
C      1  0.5012970000000  0.4629250000000  0.5598830000000 1.0
C      1  0.4955130000000  0.4398190000000  0.4556490000000 1.0
C      1  0.5616310000000  0.4904560000000  0.4556160000000 1.0
C      1  0.5065370000000  0.5649500000000  0.4553510000000 1.0
C      1  0.4347970000000  0.5093230000000  0.4546990000000 1.0
C      1  0.4938300000000  0.4357890000000  0.5442770000000 1.0
C      1  0.5655700000000  0.4914170000000  0.5449300000000 1.0
C      1  0.5048550000000  0.5609210000000  0.5439800000000 1.0
C      1  0.4387360000000  0.5102840000000  0.5440120000000 1.0
C      1  0.5402420000000  0.4351820000000  0.4715040000000 1.0
C      1  0.5612700000000  0.5352190000000  0.4698320000000 1.0
C      1  0.4614830000000  0.5650450000000  0.4695830000000 1.0
C      1  0.4383640000000  0.4649500000000  0.4703980000000 1.0
C      1  0.5388840000000  0.4356950000000  0.5300450000000 1.0
C      1  0.5620040000000  0.5357900000000  0.5292300000000 1.0
C      1  0.4601260000000  0.5655580000000  0.5281240000000 1.0
C      1  0.4390980000000  0.4655210000000  0.5297970000000 1.0
C      1  0.4676310000000  0.4384260000000  0.5345590000000 1.0
C      1  0.5658640000000  0.4644470000000  0.5358000000000 1.0
C      1  0.5316760000000  0.5609040000000  0.5347900000000 1.0
C      1  0.4328460000000  0.5375450000000  0.5351800000000 1.0
C      1  0.4686910000000  0.4398360000000  0.4648380000000 1.0
C      1  0.5675210000000  0.4631950000000  0.4644480000000 1.0
C      1  0.5327360000000  0.5623140000000  0.4650690000000 1.0
C      1  0.4345040000000  0.5362930000000  0.4638290000000 1.0
C      1  0.5559810000000  0.4405060000000  0.4448000000000 1.0
C      1  0.5542740000000  0.5511450000000  0.4437840000000 1.0
C      1  0.4455280000000  0.5583570000000  0.4432150000000 1.0
C      1  0.4465580000000  0.4498780000000  0.4439860000000 1.0
C      1  0.5548390000000  0.4423830000000  0.5564130000000 1.0
C      1  0.5538100000000  0.5508610000000  0.5556420000000 1.0
C      1  0.4443870000000  0.5602340000000  0.5548280000000 1.0
C      1  0.4460940000000  0.4495950000000  0.5558440000000 1.0
C      1  0.5060770000000  0.4171750000000  0.4995400000000 1.0
C      1  0.5825320000000  0.5041200000000  0.4993610000000 1.0
C      1  0.4942910000000  0.5835650000000  0.5000880000000 1.0
C      1  0.4178350000000  0.4966200000000  0.5002670000000 1.0
C      1  0.5024010000000  0.4976130000000  0.5625570000000 1.0
C      1  0.4979670000000  0.5031270000000  0.4370720000000 1.0
END
