TITL C-2782237-5345-855 -0.000645033043142645 125000 -315.628430152131 0 0 59 (Td) n - 1
REM
REM in /home/nfs/bkarasulu/CARBON/AIRSS/Generating-Clusters/REBO/Higher-Symm/SD-CG/HFTN-CG
REM
REM
REM
REM
REM
REM ./C.cell (12c818d87b63d06a65506943cc24bca4)
REM
REM compiler GCC version 9.2.1 20190827 (Red Hat 9.2.1-1)
REM options -cpp -mtune=generic -march=x86-64 -g -O0 -fpre-include=/usr/include/finclude/math-vector-fortran.h
REM seed -2082321607 -1198504114 1398623018 213927104 1770458334 2129063871 1485296953 170518165 -1479873782 2084318039 930190249 56133093 1052561126 783902734 244301359 -1242776671 -1620424187 332442057 1489843164 -45873421 546030315 59747060 -444267540 1948692506 1950567576 -2137859197 616292502 1890025078 -792825857 -1438710582 -1371944460 -545351221 -1670488954
REM
CELL 1.54180   50.00000   50.00000   50.00000   90.00000   90.00000   90.00000
LATT -1
SFAC C  
C      1  0.4456530000000  0.4453150000000  0.4869160000000 1.0
C      1  0.4456580000000  0.4860530000000  0.4461720000000 1.0
C      1  0.4863920000000  0.4453050000000  0.4461740000000 1.0
C      1  0.5540480000000  0.5536690000000  0.4869040000000 1.0
C      1  0.4456730000000  0.5536930000000  0.5138000000000 1.0
C      1  0.5540280000000  0.4452970000000  0.5138060000000 1.0
C      1  0.5540400000000  0.5129250000000  0.4461670000000 1.0
C      1  0.4456680000000  0.5129530000000  0.5545460000000 1.0
C      1  0.5540370000000  0.4860390000000  0.5545430000000 1.0
C      1  0.5133060000000  0.5536740000000  0.4461630000000 1.0
C      1  0.4864180000000  0.5536880000000  0.5545410000000 1.0
C      1  0.5132890000000  0.4453070000000  0.5545460000000 1.0
C      1  0.5079200000000  0.5299040000000  0.4699390000000 1.0
C      1  0.5302590000000  0.4690740000000  0.5084220000000 1.0
C      1  0.4694380000000  0.5075670000000  0.5307720000000 1.0
C      1  0.4917790000000  0.4690790000000  0.4699440000000 1.0
C      1  0.5079100000000  0.4690800000000  0.5307730000000 1.0
C      1  0.4917930000000  0.5299130000000  0.5307690000000 1.0
C      1  0.4694420000000  0.5299150000000  0.5084200000000 1.0
C      1  0.5302700000000  0.5299020000000  0.4922890000000 1.0
C      1  0.4694290000000  0.4690850000000  0.4922950000000 1.0
C      1  0.5302640000000  0.4914260000000  0.5307710000000 1.0
C      1  0.4694330000000  0.4914330000000  0.4699430000000 1.0
C      1  0.5302660000000  0.5075500000000  0.4699400000000 1.0
C      1  0.5520410000000  0.5164020000000  0.5525370000000 1.0
C      1  0.5167790000000  0.5516770000000  0.5525360000000 1.0
C      1  0.5520470000000  0.5516660000000  0.5172670000000 1.0
C      1  0.4476670000000  0.4825910000000  0.5525430000000 1.0
C      1  0.5520290000000  0.4825630000000  0.4481720000000 1.0
C      1  0.4476680000000  0.5164150000000  0.4481720000000 1.0
C      1  0.4829270000000  0.4473160000000  0.5525450000000 1.0
C      1  0.5167550000000  0.4473030000000  0.4481780000000 1.0
C      1  0.4829430000000  0.5516770000000  0.4481690000000 1.0
C      1  0.4476570000000  0.4473210000000  0.5172780000000 1.0
C      1  0.5520230000000  0.4472970000000  0.4834440000000 1.0
C      1  0.4476770000000  0.5516860000000  0.4834380000000 1.0
C      1  0.5238390000000  0.5234740000000  0.5599540000000 1.0
C      1  0.5238450000000  0.5590890000000  0.5243330000000 1.0
C      1  0.5594540000000  0.5234600000000  0.5243300000000 1.0
C      1  0.4758710000000  0.4755240000000  0.5599560000000 1.0
C      1  0.5238210000000  0.4755060000000  0.4407620000000 1.0
C      1  0.4758720000000  0.5234740000000  0.4407550000000 1.0
C      1  0.4758590000000  0.4398990000000  0.5243430000000 1.0
C      1  0.5238150000000  0.4398900000000  0.4763840000000 1.0
C      1  0.4758840000000  0.5590930000000  0.4763740000000 1.0
C      1  0.4402510000000  0.4755280000000  0.5243380000000 1.0
C      1  0.5594450000000  0.4754980000000  0.4763750000000 1.0
C      1  0.4402550000000  0.5234840000000  0.4763740000000 1.0
C      1  0.4998420000000  0.5610070000000  0.5003300000000 1.0
C      1  0.5613650000000  0.4995030000000  0.5003770000000 1.0
C      1  0.4998310000000  0.4994750000000  0.5618700000000 1.0
C      1  0.4998610000000  0.4379790000000  0.5003390000000 1.0
C      1  0.4383370000000  0.4994830000000  0.5003800000000 1.0
C      1  0.4998710000000  0.4994660000000  0.4388420000000 1.0
C      1  0.4803240000000  0.5190250000000  0.4808270000000 1.0
C      1  0.5193750000000  0.4799600000000  0.4808280000000 1.0
C      1  0.4803180000000  0.4799700000000  0.5198880000000 1.0
C      1  0.5193840000000  0.5190210000000  0.5198830000000 1.0
C      1  0.4998500000000  0.4994940000000  0.5003560000000 1.0
END
