TITL C-2782239-8622-649 0.00207011759271053 125000 -826.459663751331 0 0 142 (C1) n - 1
REM
REM in /home/nfs/bkarasulu/CARBON/AIRSS/Generating-Clusters/REBO/Higher-Symm/SD-CG/HFTN-CG
REM
REM
REM
REM
REM
REM ./C.cell (12c818d87b63d06a65506943cc24bca4)
REM
REM compiler GCC version 9.2.1 20190827 (Red Hat 9.2.1-1)
REM options -cpp -mtune=generic -march=x86-64 -g -O0 -fpre-include=/usr/include/finclude/math-vector-fortran.h
REM seed -264402664 1095911217 1965421824 553197939 1958084756 1408895206 1485306929 746475550 -410258177 1022624721 -1253086052 -1767727166 -1900421489 -1465363240 1087793231 -1950951147 1474840072 -254555357 -363094257 -493713521 1879298357 -1166908698 764055794 147098879 788192096 928008623 1755835816 1802769852 -1462597745 -1528868077 -1478618038 -332047965 106393695
REM
CELL 1.54180   50.00000   50.00000   50.00000   90.00000   90.00000   90.00000
LATT -1
SFAC C  
C      1  0.5224220000000  0.5848500000000  0.5260080000000 1.0
C      1  0.5297580000000  0.4992160000000  0.5878880000000 1.0
C      1  0.5179060000000  0.4188270000000  0.5211990000000 1.0
C      1  0.5162680000000  0.4628320000000  0.4333180000000 1.0
C      1  0.5188210000000  0.5504500000000  0.4349730000000 1.0
C      1  0.5350410000000  0.5505860000000  0.5856780000000 1.0
C      1  0.5348630000000  0.4312100000000  0.5672620000000 1.0
C      1  0.5327630000000  0.4167310000000  0.4552710000000 1.0
C      1  0.5221940000000  0.5213270000000  0.4081410000000 1.0
C      1  0.5352210000000  0.6039640000000  0.4817940000000 1.0
C      1  0.4963670000000  0.5841760000000  0.5435530000000 1.0
C      1  0.5008040000000  0.4883480000000  0.6035210000000 1.0
C      1  0.4936880000000  0.3977450000000  0.5142660000000 1.0
C      1  0.4948420000000  0.4541430000000  0.4090330000000 1.0
C      1  0.4948640000000  0.5735810000000  0.4257520000000 1.0
C      1  0.4482380000000  0.5681360000000  0.4625530000000 1.0
C      1  0.4425240000000  0.5583980000000  0.5510200000000 1.0
C      1  0.4426880000000  0.4667210000000  0.5685770000000 1.0
C      1  0.4435780000000  0.4213660000000  0.4927920000000 1.0
C      1  0.4426730000000  0.4812040000000  0.4216780000000 1.0
C      1  0.5661600000000  0.5429480000000  0.5467760000000 1.0
C      1  0.5749270000000  0.4642080000000  0.5516170000000 1.0
C      1  0.5607160000000  0.4344570000000  0.4775290000000 1.0
C      1  0.5652060000000  0.5049560000000  0.4325560000000 1.0
C      1  0.5720900000000  0.5689690000000  0.4808100000000 1.0
C      1  0.5584660000000  0.5360030000000  0.4462210000000 1.0
C      1  0.5642710000000  0.5609980000000  0.5112320000000 1.0
C      1  0.5634610000000  0.5135970000000  0.5642260000000 1.0
C      1  0.5584400000000  0.4431660000000  0.5299230000000 1.0
C      1  0.5548430000000  0.4563940000000  0.4510670000000 1.0
C      1  0.4702480000000  0.5614850000000  0.4183240000000 1.0
C      1  0.4753280000000  0.5888260000000  0.5251250000000 1.0
C      1  0.4791350000000  0.5047670000000  0.5964810000000 1.0
C      1  0.4729670000000  0.4032720000000  0.5332980000000 1.0
C      1  0.4750810000000  0.4372920000000  0.4198830000000 1.0
C      1  0.5358260000000  0.5276850000000  0.5503800000000 1.0
C      1  0.5365140000000  0.4652420000000  0.5414430000000 1.0
C      1  0.5368380000000  0.4570220000000  0.4795350000000 1.0
C      1  0.5372210000000  0.5135600000000  0.4583870000000 1.0
C      1  0.5374840000000  0.5525450000000  0.4920470000000 1.0
C      1  0.4175270000000  0.5667640000000  0.5289750000000 1.0
C      1  0.4211270000000  0.4933450000000  0.5690740000000 1.0
C      1  0.4166160000000  0.4267900000000  0.5134660000000 1.0
C      1  0.4201980000000  0.4657880000000  0.4465250000000 1.0
C      1  0.4305400000000  0.5485750000000  0.4428970000000 1.0
C      1  0.4677250000000  0.4232430000000  0.4698030000000 1.0
C      1  0.4656780000000  0.5015760000000  0.4107850000000 1.0
C      1  0.4609030000000  0.5853590000000  0.4832210000000 1.0
C      1  0.4661440000000  0.5433340000000  0.5678920000000 1.0
C      1  0.4588420000000  0.4403950000000  0.5603450000000 1.0
C      1  0.4544520000000  0.4537550000000  0.4313320000000 1.0
C      1  0.4671820000000  0.5341600000000  0.4385030000000 1.0
C      1  0.4564540000000  0.5665510000000  0.5234780000000 1.0
C      1  0.4581780000000  0.4954580000000  0.5782080000000 1.0
C      1  0.4542810000000  0.4255060000000  0.5235710000000 1.0
C      1  0.4410760000000  0.4420200000000  0.4591480000000 1.0
C      1  0.4405870000000  0.5201720000000  0.4271020000000 1.0
C      1  0.4335870000000  0.5717390000000  0.4993880000000 1.0
C      1  0.4399870000000  0.5213580000000  0.5649160000000 1.0
C      1  0.4299310000000  0.4400340000000  0.5418440000000 1.0
C      1  0.4656800000000  0.4732510000000  0.4550270000000 1.0
C      1  0.4682000000000  0.5291050000000  0.4668250000000 1.0
C      1  0.4671700000000  0.5387250000000  0.5163350000000 1.0
C      1  0.4621950000000  0.4937120000000  0.5464620000000 1.0
C      1  0.4661770000000  0.4521570000000  0.5102660000000 1.0
C      1  0.5840050000000  0.5380370000000  0.5197330000000 1.0
C      1  0.5854350000000  0.4954490000000  0.5510770000000 1.0
C      1  0.5904680000000  0.4482550000000  0.5258300000000 1.0
C      1  0.5827520000000  0.4584410000000  0.4705920000000 1.0
C      1  0.5817390000000  0.5151790000000  0.4604870000000 1.0
C      1  0.4090450000000  0.4725300000000  0.4904660000000 1.0
C      1  0.4100760000000  0.4967170000000  0.4694990000000 1.0
C      1  0.4099190000000  0.5245280000000  0.4861390000000 1.0
C      1  0.4084070000000  0.5176890000000  0.5181760000000 1.0
C      1  0.4073780000000  0.4846410000000  0.5206020000000 1.0
C      1  0.5485700000000  0.5704360000000  0.5381130000000 1.0
C      1  0.5555170000000  0.4816230000000  0.5735410000000 1.0
C      1  0.5466130000000  0.4258340000000  0.5073310000000 1.0
C      1  0.5454780000000  0.4793550000000  0.4284750000000 1.0
C      1  0.5555990000000  0.5653160000000  0.4587620000000 1.0
C      1  0.5048640000000  0.5825180000000  0.4529800000000 1.0
C      1  0.4937970000000  0.5547680000000  0.5570160000000 1.0
C      1  0.5071350000000  0.4667070000000  0.5843540000000 1.0
C      1  0.4949750000000  0.4188130000000  0.4885070000000 1.0
C      1  0.4946000000000  0.4839390000000  0.4071670000000 1.0
C      1  0.4164580000000  0.4693340000000  0.5466040000000 1.0
C      1  0.4190830000000  0.4437080000000  0.4845770000000 1.0
C      1  0.4195030000000  0.4979360000000  0.4384380000000 1.0
C      1  0.4216900000000  0.5511420000000  0.4756530000000 1.0
C      1  0.4188560000000  0.5354670000000  0.5422500000000 1.0
C      1  0.5177030000000  0.5291130000000  0.5906190000000 1.0
C      1  0.5112570000000  0.4246780000000  0.5522250000000 1.0
C      1  0.5136060000000  0.4314760000000  0.4411460000000 1.0
C      1  0.4954960000000  0.5310650000000  0.4207410000000 1.0
C      1  0.5135440000000  0.5985740000000  0.4997450000000 1.0
C      1  0.5569620000000  0.4096810000000  0.4452640000000 1.0
C      1  0.5427210000000  0.5423140000000  0.4121040000000 1.0
C      1  0.5564930000000  0.6196830000000  0.4878890000000 1.0
C      1  0.5586280000000  0.5554330000000  0.5980800000000 1.0
C      1  0.5575990000000  0.4164480000000  0.5647060000000 1.0
C      1  0.5514900000000  0.5121630000000  0.5261680000000 1.0
C      1  0.5526590000000  0.4843170000000  0.5225090000000 1.0
C      1  0.5505140000000  0.4795080000000  0.4951620000000 1.0
C      1  0.5498300000000  0.5040640000000  0.4817650000000 1.0
C      1  0.5513400000000  0.5245940000000  0.5011530000000 1.0
C      1  0.4815700000000  0.4733180000000  0.5321910000000 1.0
C      1  0.4803180000000  0.4655990000000  0.4826480000000 1.0
C      1  0.4867850000000  0.5044170000000  0.4738710000000 1.0
C      1  0.4853820000000  0.5405810000000  0.4906530000000 1.0
C      1  0.4827650000000  0.5130880000000  0.5292930000000 1.0
C      1  0.5929780000000  0.4890590000000  0.4769940000000 1.0
C      1  0.5909300000000  0.5178960000000  0.4931780000000 1.0
C      1  0.5992610000000  0.5102320000000  0.5246280000000 1.0
C      1  0.6039040000000  0.4784860000000  0.5280880000000 1.0
C      1  0.5997800000000  0.4645870000000  0.4982630000000 1.0
C      1  0.5004570000000  0.4444190000000  0.5098370000000 1.0
C      1  0.4988360000000  0.4814100000000  0.4517050000000 1.0
C      1  0.5139090000000  0.5535760000000  0.4688770000000 1.0
C      1  0.5143130000000  0.5515650000000  0.5297140000000 1.0
C      1  0.5187150000000  0.4854930000000  0.5585660000000 1.0
C      1  0.4861470000000  0.4225180000000  0.4418910000000 1.0
C      1  0.4691450000000  0.5333900000000  0.3991570000000 1.0
C      1  0.4840280000000  0.5957750000000  0.4981140000000 1.0
C      1  0.4889350000000  0.5299580000000  0.5879860000000 1.0
C      1  0.4810820000000  0.4238530000000  0.5543450000000 1.0
C      1  0.4417150000000  0.5221440000000  0.5099890000000 1.0
C      1  0.4397180000000  0.4945820000000  0.5261460000000 1.0
C      1  0.4408640000000  0.4713460000000  0.5035310000000 1.0
C      1  0.4426240000000  0.4853480000000  0.4732480000000 1.0
C      1  0.4428570000000  0.5173140000000  0.4784420000000 1.0
C      1  0.5259830000000  0.4154900000000  0.4823430000000 1.0
C      1  0.5215250000000  0.4939000000000  0.4090260000000 1.0
C      1  0.5348990000000  0.5859450000000  0.4587990000000 1.0
C      1  0.5260690000000  0.5647130000000  0.5619360000000 1.0
C      1  0.5347640000000  0.4562560000000  0.5803360000000 1.0
C      1  0.5125340000000  0.5335600000000  0.5038230000000 1.0
C      1  0.5126690000000  0.5087220000000  0.5383070000000 1.0
C      1  0.5122390000000  0.4714560000000  0.5218600000000 1.0
C      1  0.5128260000000  0.4758040000000  0.4823470000000 1.0
C      1  0.5106430000000  0.5226950000000  0.4624530000000 1.0
C      1  0.5178740000000  0.5003530000000  0.5054640000000 1.0
C      1  0.4791770000000  0.4919350000000  0.5030830000000 1.0
END
