TITL C-2782238-9940-295 -0.00400672940559233 125000 -621.606477530377 0 0 106 (C1) n - 1
REM
REM in /home/nfs/bkarasulu/CARBON/AIRSS/Generating-Clusters/REBO/Higher-Symm/SD-CG/HFTN-CG
REM
REM
REM
REM
REM
REM ./C.cell (12c818d87b63d06a65506943cc24bca4)
REM
REM compiler GCC version 9.2.1 20190827 (Red Hat 9.2.1-1)
REM options -cpp -mtune=generic -march=x86-64 -g -O0 -fpre-include=/usr/include/finclude/math-vector-fortran.h
REM seed -817425163 -836808092 403900720 -1684140630 -551040995 -163854329 -1441660137 773253978 -1104148613 322965604 -468216137 -404342097 -1807899177 -955263699 -1593363195 700711651 -1007426810 735793920 1224201438 -198432564 -504307693 1728799205 -303112415 957622696 -794409817 1207089107 -352998082 1146084509 -1850726347 844556211 -1873427703 -697564674 2014550912
REM
CELL 1.54180   50.00000   50.00000   50.00000   90.00000   90.00000   90.00000
LATT -1
SFAC C  
C      1  0.4864470000000  0.5775040000000  0.5151700000000 1.0
C      1  0.5712370000000  0.5384760000000  0.5162640000000 1.0
C      1  0.5530100000000  0.4448020000000  0.5172860000000 1.0
C      1  0.4651610000000  0.4270190000000  0.5196190000000 1.0
C      1  0.4222040000000  0.5083260000000  0.5155900000000 1.0
C      1  0.5104530000000  0.5229450000000  0.5520590000000 1.0
C      1  0.5265280000000  0.4944700000000  0.5477010000000 1.0
C      1  0.4975840000000  0.4771900000000  0.5427340000000 1.0
C      1  0.4769700000000  0.4948580000000  0.5381510000000 1.0
C      1  0.4864220000000  0.5212230000000  0.5395870000000 1.0
C      1  0.4076830000000  0.4717190000000  0.4890750000000 1.0
C      1  0.4478990000000  0.5782190000000  0.4888580000000 1.0
C      1  0.5594100000000  0.5738470000000  0.4875610000000 1.0
C      1  0.5818650000000  0.4660260000000  0.4836580000000 1.0
C      1  0.4958210000000  0.4020760000000  0.4932170000000 1.0
C      1  0.5298080000000  0.4328390000000  0.4539330000000 1.0
C      1  0.4401800000000  0.4439940000000  0.4501320000000 1.0
C      1  0.4295500000000  0.5368120000000  0.4562860000000 1.0
C      1  0.5143030000000  0.5828180000000  0.4552760000000 1.0
C      1  0.5849210000000  0.5129190000000  0.4554830000000 1.0
C      1  0.5601380000000  0.5310330000000  0.5479380000000 1.0
C      1  0.5467270000000  0.4543680000000  0.5495680000000 1.0
C      1  0.4710300000000  0.4447400000000  0.5482020000000 1.0
C      1  0.4354140000000  0.5091470000000  0.5474830000000 1.0
C      1  0.4905800000000  0.5645910000000  0.5468700000000 1.0
C      1  0.5224490000000  0.5020740000000  0.5144290000000 1.0
C      1  0.5100940000000  0.4743800000000  0.5051040000000 1.0
C      1  0.4792690000000  0.4791210000000  0.5005430000000 1.0
C      1  0.4747980000000  0.5114780000000  0.5018780000000 1.0
C      1  0.5043990000000  0.5250070000000  0.5042060000000 1.0
C      1  0.4634470000000  0.4604040000000  0.5188540000000 1.0
C      1  0.4521770000000  0.5201680000000  0.5199340000000 1.0
C      1  0.5055940000000  0.5505140000000  0.5202370000000 1.0
C      1  0.5501330000000  0.5127250000000  0.5209240000000 1.0
C      1  0.5213870000000  0.4528380000000  0.5258000000000 1.0
C      1  0.5714780000000  0.4643720000000  0.4451120000000 1.0
C      1  0.4792210000000  0.4198400000000  0.4435650000000 1.0
C      1  0.4406840000000  0.4915180000000  0.4473030000000 1.0
C      1  0.4693990000000  0.5629870000000  0.4448810000000 1.0
C      1  0.5512750000000  0.5468430000000  0.4501380000000 1.0
C      1  0.5075740000000  0.5290270000000  0.5844320000000 1.0
C      1  0.5296530000000  0.5034210000000  0.5807820000000 1.0
C      1  0.5109410000000  0.4773150000000  0.5802800000000 1.0
C      1  0.4831450000000  0.4845790000000  0.5802810000000 1.0
C      1  0.4785150000000  0.5127690000000  0.5796590000000 1.0
C      1  0.6012680000000  0.4887690000000  0.4148610000000 1.0
C      1  0.5136080000000  0.4379670000000  0.4075930000000 1.0
C      1  0.4312780000000  0.4649410000000  0.4068120000000 1.0
C      1  0.4348160000000  0.5541850000000  0.4099110000000 1.0
C      1  0.5518040000000  0.5876660000000  0.4214660000000 1.0
C      1  0.4638240000000  0.5518330000000  0.5573950000000 1.0
C      1  0.5462520000000  0.5532670000000  0.5628780000000 1.0
C      1  0.5667220000000  0.4720270000000  0.5622270000000 1.0
C      1  0.4991670000000  0.4371550000000  0.5590830000000 1.0
C      1  0.4325930000000  0.4846600000000  0.5646880000000 1.0
C      1  0.5198910000000  0.4218530000000  0.4821130000000 1.0
C      1  0.4315980000000  0.4513360000000  0.4798580000000 1.0
C      1  0.4419700000000  0.5466170000000  0.4818910000000 1.0
C      1  0.5278860000000  0.5676970000000  0.4783800000000 1.0
C      1  0.5667520000000  0.4934860000000  0.4720700000000 1.0
C      1  0.4821520000000  0.4532670000000  0.4491640000000 1.0
C      1  0.4667850000000  0.4990010000000  0.4560900000000 1.0
C      1  0.4845810000000  0.5440200000000  0.4631460000000 1.0
C      1  0.5324930000000  0.5273790000000  0.4603040000000 1.0
C      1  0.5164210000000  0.4825110000000  0.4665170000000 1.0
C      1  0.5634180000000  0.4443610000000  0.4913710000000 1.0
C      1  0.4703310000000  0.4128580000000  0.4956740000000 1.0
C      1  0.4134390000000  0.4995700000000  0.4892770000000 1.0
C      1  0.4754720000000  0.5850130000000  0.4897210000000 1.0
C      1  0.5758900000000  0.5507270000000  0.4907920000000 1.0
C      1  0.5360390000000  0.5867200000000  0.5036810000000 1.0
C      1  0.5885650000000  0.4921960000000  0.4983380000000 1.0
C      1  0.5216770000000  0.4054790000000  0.5108720000000 1.0
C      1  0.4165310000000  0.4480370000000  0.5085230000000 1.0
C      1  0.4303270000000  0.5616000000000  0.5089220000000 1.0
C      1  0.4241470000000  0.5469330000000  0.5562700000000 1.0
C      1  0.5311630000000  0.5789890000000  0.5530430000000 1.0
C      1  0.5848760000000  0.4943240000000  0.5493070000000 1.0
C      1  0.5318280000000  0.4138900000000  0.5589290000000 1.0
C      1  0.4323850000000  0.4543310000000  0.5566520000000 1.0
C      1  0.4214820000000  0.5093650000000  0.4611020000000 1.0
C      1  0.4862890000000  0.5838450000000  0.4613570000000 1.0
C      1  0.5778350000000  0.5397630000000  0.4623260000000 1.0
C      1  0.5568010000000  0.4453760000000  0.4605210000000 1.0
C      1  0.4614720000000  0.4267710000000  0.4705050000000 1.0
C      1  0.4608780000000  0.4667800000000  0.5707730000000 1.0
C      1  0.4571640000000  0.5266240000000  0.5660960000000 1.0
C      1  0.5133680000000  0.5576290000000  0.5712740000000 1.0
C      1  0.5589570000000  0.5045020000000  0.5688180000000 1.0
C      1  0.5192950000000  0.4538650000000  0.5667080000000 1.0
C      1  0.5251080000000  0.4211940000000  0.5332360000000 1.0
C      1  0.4343150000000  0.4500630000000  0.5294210000000 1.0
C      1  0.4345510000000  0.5454700000000  0.5309020000000 1.0
C      1  0.5242630000000  0.5776040000000  0.5265110000000 1.0
C      1  0.5796770000000  0.5002390000000  0.5226920000000 1.0
C      1  0.5398810000000  0.5723760000000  0.4405770000000 1.0
C      1  0.5864000000000  0.4878500000000  0.4377090000000 1.0
C      1  0.5072480000000  0.4355830000000  0.4344650000000 1.0
C      1  0.4374070000000  0.4662470000000  0.4332160000000 1.0
C      1  0.4435390000000  0.5518760000000  0.4355050000000 1.0
C      1  0.4655470000000  0.5231330000000  0.4748220000000 1.0
C      1  0.5112100000000  0.5408050000000  0.4774330000000 1.0
C      1  0.5377810000000  0.5003950000000  0.4660890000000 1.0
C      1  0.5222380000000  0.4554930000000  0.4818710000000 1.0
C      1  0.4643630000000  0.4602890000000  0.4774180000000 1.0
C      1  0.4895880000000  0.4826690000000  0.4560210000000 1.0
END
