TITL C-2782225-7408-552 0.00579992310243915 125000 -380.390314419237 0 0 65 (C1) n - 1
REM
REM in /home/nfs/bkarasulu/CARBON/AIRSS/Generating-Clusters/REBO/Higher-Symm/SD-CG/HFTN-CG
REM
REM
REM
REM
REM
REM ./C.cell (12c818d87b63d06a65506943cc24bca4)
REM
REM compiler GCC version 9.2.1 20190827 (Red Hat 9.2.1-1)
REM options -cpp -mtune=generic -march=x86-64 -g -O0 -fpre-include=/usr/include/finclude/math-vector-fortran.h
REM seed -1250921748 -444633196 528389695 -151241647 1200361835 -598952000 -1832743618 1994795802 -1698913154 -974089411 -1184454704 1322589778 823448049 1201212587 -1618186269 -36635871 -75234913 -779139567 -278876857 1654388996 -1526581546 -2080966287 399759345 547241702 198513019 1921480277 1893054063 -968303369 -1222191864 1471608106 434626856 629980418 -993026268
REM
CELL 1.54180   50.00000   50.00000   50.00000   90.00000   90.00000   90.00000
LATT -1
SFAC C  
C      1  0.5513930000000  0.4992350000000  0.5464060000000 1.0
C      1  0.5068790000000  0.5543590000000  0.5523700000000 1.0
C      1  0.5512400000000  0.5536050000000  0.5017030000000 1.0
C      1  0.4497420000000  0.4949120000000  0.4469530000000 1.0
C      1  0.4484790000000  0.5051420000000  0.5486690000000 1.0
C      1  0.5526350000000  0.5023560000000  0.4486920000000 1.0
C      1  0.4916900000000  0.5545030000000  0.4504840000000 1.0
C      1  0.5036290000000  0.4460610000000  0.5535780000000 1.0
C      1  0.5115240000000  0.4438500000000  0.4472330000000 1.0
C      1  0.4462510000000  0.5601140000000  0.4959970000000 1.0
C      1  0.4508580000000  0.4456440000000  0.4987840000000 1.0
C      1  0.5535730000000  0.4411620000000  0.4956070000000 1.0
C      1  0.4968770000000  0.5373290000000  0.5714240000000 1.0
C      1  0.5376830000000  0.5750520000000  0.4922460000000 1.0
C      1  0.5718250000000  0.4870580000000  0.5331340000000 1.0
C      1  0.5006610000000  0.5388170000000  0.4302750000000 1.0
C      1  0.5110100000000  0.4626770000000  0.5738160000000 1.0
C      1  0.5035990000000  0.4601770000000  0.4271930000000 1.0
C      1  0.4633340000000  0.5785430000000  0.5069830000000 1.0
C      1  0.4641490000000  0.4243700000000  0.4882590000000 1.0
C      1  0.5366940000000  0.4216760000000  0.5045930000000 1.0
C      1  0.4288400000000  0.4890540000000  0.4633140000000 1.0
C      1  0.4285700000000  0.5145120000000  0.5327140000000 1.0
C      1  0.5733900000000  0.5111130000000  0.4639720000000 1.0
C      1  0.4646650000000  0.4978040000000  0.5111280000000 1.0
C      1  0.4930770000000  0.5164210000000  0.4625130000000 1.0
C      1  0.5162190000000  0.4552950000000  0.4960800000000 1.0
C      1  0.5341810000000  0.4887600000000  0.4822980000000 1.0
C      1  0.5322280000000  0.5048340000000  0.5117460000000 1.0
C      1  0.4673780000000  0.5117820000000  0.4808250000000 1.0
C      1  0.5044830000000  0.5173130000000  0.5376970000000 1.0
C      1  0.5086870000000  0.4798950000000  0.4643300000000 1.0
C      1  0.4905490000000  0.4799950000000  0.5357970000000 1.0
C      1  0.4853060000000  0.4640460000000  0.5072290000000 1.0
C      1  0.4820100000000  0.5435390000000  0.5022210000000 1.0
C      1  0.5144910000000  0.5381170000000  0.4990360000000 1.0
C      1  0.4743070000000  0.4963480000000  0.5546550000000 1.0
C      1  0.4903640000000  0.5617020000000  0.4777040000000 1.0
C      1  0.5569510000000  0.4685650000000  0.4906570000000 1.0
C      1  0.5255850000000  0.4959220000000  0.4439140000000 1.0
C      1  0.5252220000000  0.5063290000000  0.5541860000000 1.0
C      1  0.4768270000000  0.5008600000000  0.4421610000000 1.0
C      1  0.5103130000000  0.5601290000000  0.5246390000000 1.0
C      1  0.5115180000000  0.4369130000000  0.4744540000000 1.0
C      1  0.4971770000000  0.4391950000000  0.5271840000000 1.0
C      1  0.4461800000000  0.4721820000000  0.5057970000000 1.0
C      1  0.4445520000000  0.5325200000000  0.4904400000000 1.0
C      1  0.5542870000000  0.5262600000000  0.5059850000000 1.0
C      1  0.4260840000000  0.4890450000000  0.4916700000000 1.0
C      1  0.4938540000000  0.4858820000000  0.4217600000000 1.0
C      1  0.4911150000000  0.4157950000000  0.4848000000000 1.0
C      1  0.5762120000000  0.4851820000000  0.5049480000000 1.0
C      1  0.5756650000000  0.5116690000000  0.4923790000000 1.0
C      1  0.4256520000000  0.5153070000000  0.5043750000000 1.0
C      1  0.5146180000000  0.4905520000000  0.5783110000000 1.0
C      1  0.5101050000000  0.5131840000000  0.4238070000000 1.0
C      1  0.4909180000000  0.5094230000000  0.5744660000000 1.0
C      1  0.5087240000000  0.4186190000000  0.5099270000000 1.0
C      1  0.5108630000000  0.5826560000000  0.4878190000000 1.0
C      1  0.4910920000000  0.5816290000000  0.5123520000000 1.0
C      1  0.5177940000000  0.5185460000000  0.4771590000000 1.0
C      1  0.5209860000000  0.4741220000000  0.5213620000000 1.0
C      1  0.4739410000000  0.5271010000000  0.5262210000000 1.0
C      1  0.4831400000000  0.4813570000000  0.4789890000000 1.0
C      1  0.4983770000000  0.5026680000000  0.5080550000000 1.0
END
