TITL C-2782232-2968-1017 0.000901339601590052 125000 -641.498281584896 0 0 117 (C1) n - 1
REM
REM in /home/nfs/bkarasulu/CARBON/AIRSS/Generating-Clusters/REBO/Higher-Symm/SD-CG/HFTN-CG
REM
REM
REM
REM
REM
REM ./C.cell (12c818d87b63d06a65506943cc24bca4)
REM
REM compiler GCC version 9.2.1 20190827 (Red Hat 9.2.1-1)
REM options -cpp -mtune=generic -march=x86-64 -g -O0 -fpre-include=/usr/include/finclude/math-vector-fortran.h
REM seed 1509317010 -119648306 1143600256 926700829 -1296740530 -809310875 -1943231046 1795718451 -803719355 1241842691 -366372843 945560397 1374204449 -35893899 1616349662 -244929793 1913440900 374448766 1330876557 -1234532353 -80930810 -1261636253 1757836122 1174913296 -1342081700 55744735 2054249940 1669970938 -1840866987 684761435 -1653129380 35800563 -1083338449
REM
CELL 1.54180   50.00000   50.00000   50.00000   90.00000   90.00000   90.00000
LATT -1
SFAC C  
C      1  0.5403290000000  0.5292590000000  0.5775860000000 1.0
C      1  0.4560770000000  0.5218350000000  0.5763850000000 1.0
C      1  0.5044730000000  0.4502420000000  0.5781050000000 1.0
C      1  0.5382740000000  0.5312280000000  0.4222140000000 1.0
C      1  0.4574120000000  0.5231160000000  0.4207730000000 1.0
C      1  0.5033010000000  0.4476790000000  0.4220800000000 1.0
C      1  0.4659320000000  0.4180600000000  0.5192600000000 1.0
C      1  0.5841020000000  0.5232110000000  0.5103080000000 1.0
C      1  0.4480770000000  0.5600310000000  0.5193880000000 1.0
C      1  0.4696230000000  0.4169930000000  0.4884830000000 1.0
C      1  0.5855020000000  0.5210910000000  0.4798390000000 1.0
C      1  0.4487580000000  0.5577850000000  0.4891120000000 1.0
C      1  0.5378870000000  0.4362680000000  0.4384180000000 1.0
C      1  0.5411670000000  0.5688480000000  0.4351180000000 1.0
C      1  0.4267730000000  0.5004080000000  0.4351800000000 1.0
C      1  0.5386110000000  0.4352500000000  0.5638150000000 1.0
C      1  0.5402130000000  0.5672660000000  0.5653780000000 1.0
C      1  0.4251740000000  0.5010040000000  0.5620250000000 1.0
C      1  0.5147040000000  0.5479350000000  0.5724280000000 1.0
C      1  0.4561340000000  0.4913190000000  0.5685680000000 1.0
C      1  0.5311580000000  0.4656270000000  0.5743790000000 1.0
C      1  0.5137660000000  0.5523090000000  0.4288920000000 1.0
C      1  0.4583190000000  0.4931580000000  0.4282810000000 1.0
C      1  0.5284780000000  0.4658150000000  0.4267440000000 1.0
C      1  0.4915690000000  0.5825490000000  0.5169860000000 1.0
C      1  0.4199970000000  0.4492850000000  0.5097790000000 1.0
C      1  0.5801500000000  0.4683100000000  0.5130170000000 1.0
C      1  0.4917630000000  0.5815920000000  0.4890740000000 1.0
C      1  0.4246390000000  0.4482090000000  0.4815260000000 1.0
C      1  0.5790770000000  0.4670290000000  0.4847650000000 1.0
C      1  0.4142200000000  0.5164130000000  0.4563460000000 1.0
C      1  0.5300010000000  0.4203400000000  0.4615340000000 1.0
C      1  0.5586370000000  0.5660720000000  0.4584470000000 1.0
C      1  0.4138690000000  0.5169920000000  0.5401430000000 1.0
C      1  0.5305230000000  0.4204100000000  0.5399500000000 1.0
C      1  0.5580720000000  0.5667630000000  0.5423370000000 1.0
C      1  0.5487300000000  0.4238950000000  0.5159270000000 1.0
C      1  0.5472080000000  0.5796130000000  0.5151300000000 1.0
C      1  0.4086810000000  0.5005950000000  0.5130930000000 1.0
C      1  0.5477380000000  0.4229230000000  0.4869290000000 1.0
C      1  0.5470170000000  0.5788560000000  0.4860660000000 1.0
C      1  0.4084720000000  0.5003400000000  0.4838780000000 1.0
C      1  0.5237890000000  0.4949170000000  0.4438630000000 1.0
C      1  0.4923520000000  0.5285660000000  0.4393420000000 1.0
C      1  0.4861450000000  0.4778860000000  0.4414690000000 1.0
C      1  0.5264130000000  0.4961360000000  0.5600120000000 1.0
C      1  0.4917090000000  0.5274780000000  0.5592160000000 1.0
C      1  0.4862750000000  0.4792210000000  0.5574730000000 1.0
C      1  0.4684440000000  0.5706760000000  0.4748060000000 1.0
C      1  0.4495370000000  0.4359370000000  0.4755670000000 1.0
C      1  0.5790490000000  0.4941950000000  0.4720300000000 1.0
C      1  0.4679170000000  0.5733990000000  0.5325390000000 1.0
C      1  0.4455510000000  0.4413980000000  0.5272190000000 1.0
C      1  0.5825530000000  0.4965920000000  0.5232950000000 1.0
C      1  0.5271630000000  0.5468860000000  0.4736200000000 1.0
C      1  0.4458630000000  0.4971410000000  0.4711450000000 1.0
C      1  0.5282610000000  0.4573740000000  0.4851480000000 1.0
C      1  0.5267900000000  0.5472860000000  0.5255700000000 1.0
C      1  0.4459620000000  0.4978690000000  0.5261490000000 1.0
C      1  0.5297820000000  0.4585460000000  0.5183650000000 1.0
C      1  0.5446860000000  0.5128730000000  0.4638300000000 1.0
C      1  0.4675840000000  0.5281910000000  0.4590040000000 1.0
C      1  0.4975870000000  0.4534480000000  0.4625660000000 1.0
C      1  0.5442320000000  0.5148650000000  0.5396890000000 1.0
C      1  0.4675050000000  0.5287690000000  0.5388130000000 1.0
C      1  0.4965730000000  0.4540320000000  0.5368780000000 1.0
C      1  0.5649400000000  0.5049140000000  0.5715610000000 1.0
C      1  0.4635870000000  0.5548160000000  0.5683040000000 1.0
C      1  0.4725150000000  0.4429530000000  0.5664870000000 1.0
C      1  0.5596470000000  0.5039750000000  0.4286720000000 1.0
C      1  0.4642280000000  0.5556660000000  0.4307220000000 1.0
C      1  0.4713080000000  0.4413460000000  0.4354220000000 1.0
C      1  0.4995330000000  0.4275700000000  0.4849500000000 1.0
C      1  0.5565000000000  0.5370080000000  0.4850550000000 1.0
C      1  0.4417980000000  0.5269610000000  0.4824830000000 1.0
C      1  0.4965080000000  0.4269550000000  0.5160150000000 1.0
C      1  0.5558080000000  0.5370010000000  0.5165280000000 1.0
C      1  0.4413980000000  0.5277290000000  0.5141360000000 1.0
C      1  0.4813830000000  0.5265560000000  0.4868510000000 1.0
C      1  0.4725060000000  0.4566780000000  0.4853700000000 1.0
C      1  0.5478980000000  0.4918260000000  0.4871910000000 1.0
C      1  0.4811430000000  0.5266720000000  0.5112620000000 1.0
C      1  0.4711500000000  0.4574810000000  0.5149490000000 1.0
C      1  0.5491450000000  0.4933060000000  0.5162270000000 1.0
C      1  0.4485120000000  0.4650520000000  0.4446650000000 1.0
C      1  0.5570260000000  0.4733510000000  0.4437310000000 1.0
C      1  0.4904900000000  0.5672490000000  0.4491100000000 1.0
C      1  0.4482590000000  0.4624630000000  0.5523420000000 1.0
C      1  0.5594260000000  0.4742280000000  0.5575220000000 1.0
C      1  0.4925020000000  0.5671010000000  0.5547260000000 1.0
C      1  0.5305550000000  0.5005170000000  0.4109430000000 1.0
C      1  0.4843570000000  0.5396170000000  0.4081150000000 1.0
C      1  0.4770860000000  0.4647630000000  0.4110790000000 1.0
C      1  0.5380490000000  0.4988070000000  0.5919740000000 1.0
C      1  0.4828750000000  0.5372660000000  0.5906090000000 1.0
C      1  0.4786040000000  0.4681900000000  0.5889520000000 1.0
C      1  0.4382210000000  0.5375730000000  0.4443720000000 1.0
C      1  0.4998520000000  0.4245360000000  0.4456350000000 1.0
C      1  0.5614710000000  0.5345970000000  0.4454790000000 1.0
C      1  0.4380610000000  0.5376300000000  0.5525980000000 1.0
C      1  0.5005960000000  0.4262800000000  0.5552980000000 1.0
C      1  0.5643250000000  0.5359180000000  0.5555560000000 1.0
C      1  0.4235260000000  0.4750360000000  0.4659190000000 1.0
C      1  0.5561340000000  0.4519410000000  0.4703340000000 1.0
C      1  0.5164830000000  0.5758200000000  0.4706020000000 1.0
C      1  0.4243210000000  0.4749790000000  0.5304070000000 1.0
C      1  0.5589820000000  0.4537440000000  0.5302280000000 1.0
C      1  0.5177500000000  0.5756730000000  0.5326630000000 1.0
C      1  0.5062860000000  0.5231250000000  0.4676720000000 1.0
C      1  0.4752470000000  0.4853270000000  0.4696340000000 1.0
C      1  0.5165530000000  0.4868140000000  0.4737650000000 1.0
C      1  0.5061920000000  0.5233820000000  0.5308770000000 1.0
C      1  0.4761470000000  0.4870630000000  0.5288150000000 1.0
C      1  0.5179220000000  0.4870400000000  0.5300500000000 1.0
C      1  0.5192740000000  0.5274200000000  0.4993830000000 1.0
C      1  0.5043780000000  0.4753590000000  0.5022230000000 1.0
C      1  0.4632180000000  0.4931220000000  0.4989390000000 1.0
END
