TITL C-2782226-7400-939 0.00673144707540296 125000 -1068.39454871718 0 0 181 (C1) n - 1
REM
REM in /home/nfs/bkarasulu/CARBON/AIRSS/Generating-Clusters/REBO/Higher-Symm/SD-CG/HFTN-CG
REM
REM
REM
REM
REM
REM ./C.cell (12c818d87b63d06a65506943cc24bca4)
REM
REM compiler GCC version 9.2.1 20190827 (Red Hat 9.2.1-1)
REM options -cpp -mtune=generic -march=x86-64 -g -O0 -fpre-include=/usr/include/finclude/math-vector-fortran.h
REM seed 198611271 25156450 -59189865 -1304388023 147555512 -1224137257 -1686211815 981507536 310998256 -1940613204 -1035818224 1598536264 -802212850 -1899837977 1354280096 1910466876 -1453738808 246304575 138685412 -1437877998 -1222312895 -1395689322 974843126 -655151272 961529547 1188758913 738951462 1290161920 -2083608439 -758698370 127822476 -76606837 -1405382951
REM
CELL 1.54180   50.00000   50.00000   50.00000   90.00000   90.00000   90.00000
LATT -1
SFAC C  
C      1  0.5236980000000  0.5576430000000  0.4177760000000 1.0
C      1  0.5573930000000  0.4992000000000  0.4311910000000 1.0
C      1  0.5181400000000  0.4474990000000  0.4172110000000 1.0
C      1  0.4524920000000  0.4717400000000  0.4214270000000 1.0
C      1  0.4608410000000  0.5360090000000  0.4181630000000 1.0
C      1  0.4582630000000  0.5534250000000  0.4998290000000 1.0
C      1  0.5336130000000  0.5639280000000  0.4892870000000 1.0
C      1  0.5619890000000  0.4679480000000  0.5119680000000 1.0
C      1  0.4966800000000  0.4242780000000  0.4976660000000 1.0
C      1  0.4367290000000  0.4849280000000  0.5150540000000 1.0
C      1  0.5640160000000  0.4700230000000  0.5913650000000 1.0
C      1  0.5053210000000  0.4336820000000  0.5875690000000 1.0
C      1  0.4468210000000  0.4860700000000  0.5942350000000 1.0
C      1  0.4673660000000  0.5870620000000  0.5808040000000 1.0
C      1  0.5373240000000  0.5463950000000  0.5907630000000 1.0
C      1  0.4148170000000  0.5094790000000  0.5377180000000 1.0
C      1  0.4735610000000  0.5845470000000  0.5294270000000 1.0
C      1  0.5729820000000  0.5537340000000  0.5323050000000 1.0
C      1  0.5763530000000  0.4261020000000  0.5256250000000 1.0
C      1  0.4626990000000  0.4066950000000  0.5294640000000 1.0
C      1  0.5479070000000  0.5854910000000  0.5439070000000 1.0
C      1  0.6003460000000  0.4686630000000  0.5447700000000 1.0
C      1  0.5110000000000  0.3943840000000  0.5416480000000 1.0
C      1  0.4100840000000  0.4599990000000  0.5520320000000 1.0
C      1  0.4296870000000  0.5782500000000  0.5464230000000 1.0
C      1  0.5875870000000  0.5734030000000  0.4852660000000 1.0
C      1  0.6042850000000  0.4342840000000  0.4764570000000 1.0
C      1  0.4694380000000  0.3878530000000  0.4713340000000 1.0
C      1  0.3966780000000  0.4971020000000  0.4818920000000 1.0
C      1  0.4589800000000  0.5871330000000  0.4775240000000 1.0
C      1  0.4350210000000  0.4387050000000  0.4709200000000 1.0
C      1  0.4018850000000  0.5489650000000  0.4623630000000 1.0
C      1  0.5227970000000  0.6074550000000  0.4642530000000 1.0
C      1  0.6058750000000  0.5079300000000  0.4767960000000 1.0
C      1  0.5314170000000  0.4078900000000  0.4587520000000 1.0
C      1  0.5598390000000  0.4920540000000  0.5586400000000 1.0
C      1  0.5125640000000  0.4423910000000  0.5494720000000 1.0
C      1  0.4562230000000  0.4641290000000  0.5628570000000 1.0
C      1  0.4495220000000  0.5439300000000  0.5740460000000 1.0
C      1  0.5125400000000  0.5721910000000  0.5568190000000 1.0
C      1  0.5040920000000  0.6015000000000  0.5619190000000 1.0
C      1  0.5694600000000  0.5191370000000  0.5677240000000 1.0
C      1  0.5397520000000  0.4381970000000  0.5629560000000 1.0
C      1  0.4621490000000  0.4374420000000  0.5663640000000 1.0
C      1  0.4275440000000  0.5286500000000  0.5817880000000 1.0
C      1  0.5487720000000  0.4446850000000  0.4145040000000 1.0
C      1  0.4575660000000  0.4397490000000  0.4239320000000 1.0
C      1  0.4327380000000  0.5243150000000  0.4212640000000 1.0
C      1  0.5008370000000  0.5791840000000  0.4183730000000 1.0
C      1  0.5713700000000  0.5259050000000  0.4267670000000 1.0
C      1  0.4970590000000  0.3852580000000  0.4899560000000 1.0
C      1  0.4014300000000  0.4695210000000  0.4979970000000 1.0
C      1  0.4304820000000  0.5806410000000  0.4919270000000 1.0
C      1  0.5641300000000  0.5895370000000  0.4880070000000 1.0
C      1  0.6022220000000  0.4586230000000  0.4907610000000 1.0
C      1  0.4903420000000  0.4536980000000  0.5363760000000 1.0
C      1  0.4731990000000  0.4922800000000  0.5629130000000 1.0
C      1  0.4773770000000  0.5345460000000  0.5616330000000 1.0
C      1  0.5168580000000  0.5379480000000  0.5577640000000 1.0
C      1  0.5256290000000  0.4911220000000  0.5595340000000 1.0
C      1  0.5045730000000  0.4202070000000  0.4319220000000 1.0
C      1  0.4178270000000  0.4696230000000  0.4334390000000 1.0
C      1  0.4431170000000  0.5612080000000  0.4325440000000 1.0
C      1  0.5482250000000  0.5714440000000  0.4370000000000 1.0
C      1  0.5747500000000  0.4790160000000  0.4483710000000 1.0
C      1  0.4872210000000  0.5547100000000  0.4550930000000 1.0
C      1  0.5563780000000  0.5225630000000  0.4636190000000 1.0
C      1  0.5385450000000  0.4397900000000  0.4525430000000 1.0
C      1  0.4644940000000  0.4472910000000  0.4625560000000 1.0
C      1  0.4470130000000  0.4989010000000  0.4590690000000 1.0
C      1  0.4908490000000  0.6061360000000  0.5107220000000 1.0
C      1  0.6004160000000  0.5427440000000  0.5202090000000 1.0
C      1  0.5696520000000  0.4082590000000  0.5041660000000 1.0
C      1  0.4385900000000  0.4019560000000  0.5129930000000 1.0
C      1  0.4075030000000  0.5300450000000  0.5170020000000 1.0
C      1  0.4861320000000  0.4849600000000  0.3865240000000 1.0
C      1  0.4904930000000  0.5106520000000  0.3728500000000 1.0
C      1  0.5185290000000  0.5159860000000  0.3747960000000 1.0
C      1  0.5298180000000  0.4935680000000  0.3904210000000 1.0
C      1  0.5122270000000  0.4699690000000  0.3838060000000 1.0
C      1  0.4739910000000  0.4179420000000  0.4282750000000 1.0
C      1  0.4339910000000  0.4967300000000  0.4320420000000 1.0
C      1  0.4749040000000  0.5716060000000  0.4315350000000 1.0
C      1  0.5712660000000  0.5522020000000  0.4390650000000 1.0
C      1  0.5675100000000  0.4506310000000  0.4411000000000 1.0
C      1  0.5163260000000  0.4736980000000  0.4911460000000 1.0
C      1  0.4863970000000  0.4773020000000  0.4825680000000 1.0
C      1  0.4718070000000  0.5137890000000  0.4944920000000 1.0
C      1  0.4991610000000  0.5328510000000  0.4915620000000 1.0
C      1  0.5276220000000  0.5164930000000  0.4906970000000 1.0
C      1  0.4124580000000  0.4643050000000  0.4656010000000 1.0
C      1  0.4275600000000  0.5685830000000  0.4612400000000 1.0
C      1  0.5486730000000  0.5915120000000  0.4645520000000 1.0
C      1  0.5951770000000  0.4803460000000  0.4737250000000 1.0
C      1  0.4986910000000  0.4015700000000  0.4599130000000 1.0
C      1  0.4662370000000  0.5478930000000  0.4748790000000 1.0
C      1  0.5383840000000  0.5460360000000  0.4662380000000 1.0
C      1  0.5559980000000  0.4749070000000  0.4864380000000 1.0
C      1  0.4922830000000  0.4396040000000  0.4706750000000 1.0
C      1  0.4365980000000  0.4788180000000  0.4816830000000 1.0
C      1  0.5282510000000  0.3907530000000  0.4845200000000 1.0
C      1  0.4155860000000  0.4398480000000  0.4962450000000 1.0
C      1  0.4065160000000  0.5575800000000  0.4931670000000 1.0
C      1  0.5136830000000  0.6170810000000  0.4884740000000 1.0
C      1  0.6141170000000  0.5210440000000  0.4985680000000 1.0
C      1  0.5891110000000  0.4546890000000  0.5195300000000 1.0
C      1  0.4913440000000  0.3976240000000  0.5186130000000 1.0
C      1  0.4072620000000  0.4789350000000  0.5284920000000 1.0
C      1  0.4457040000000  0.5773440000000  0.5206330000000 1.0
C      1  0.5527840000000  0.5733310000000  0.5145660000000 1.0
C      1  0.4829830000000  0.5172750000000  0.4295860000000 1.0
C      1  0.5139950000000  0.5259430000000  0.4255550000000 1.0
C      1  0.5293010000000  0.4987950000000  0.4209020000000 1.0
C      1  0.5066650000000  0.4792720000000  0.4348780000000 1.0
C      1  0.4788910000000  0.4866350000000  0.4161920000000 1.0
C      1  0.4020480000000  0.5739100000000  0.5431820000000 1.0
C      1  0.5365270000000  0.6114960000000  0.5408310000000 1.0
C      1  0.6174310000000  0.4906620000000  0.5408940000000 1.0
C      1  0.5361690000000  0.3853400000000  0.5322410000000 1.0
C      1  0.4113910000000  0.4327410000000  0.5432590000000 1.0
C      1  0.5856800000000  0.5523930000000  0.4627140000000 1.0
C      1  0.5867730000000  0.4284720000000  0.4502170000000 1.0
C      1  0.4639940000000  0.3958290000000  0.4408610000000 1.0
C      1  0.3774530000000  0.4983250000000  0.4621340000000 1.0
C      1  0.4595940000000  0.5926060000000  0.4507970000000 1.0
C      1  0.4443790000000  0.3897200000000  0.4892500000000 1.0
C      1  0.4137550000000  0.5184450000000  0.4902030000000 1.0
C      1  0.4838370000000  0.5828280000000  0.4908860000000 1.0
C      1  0.5802250000000  0.5421170000000  0.4947790000000 1.0
C      1  0.5777770000000  0.4168990000000  0.4790350000000 1.0
C      1  0.4734560000000  0.5039830000000  0.5247090000000 1.0
C      1  0.4909930000000  0.5317150000000  0.5243900000000 1.0
C      1  0.5203030000000  0.5197260000000  0.5225480000000 1.0
C      1  0.5196130000000  0.4887870000000  0.5183810000000 1.0
C      1  0.4920530000000  0.4806770000000  0.5291310000000 1.0
C      1  0.4797970000000  0.5273830000000  0.5942740000000 1.0
C      1  0.5041250000000  0.5484810000000  0.5878250000000 1.0
C      1  0.5372580000000  0.4911940000000  0.5914770000000 1.0
C      1  0.5125060000000  0.4675100000000  0.5930970000000 1.0
C      1  0.4795800000000  0.4765350000000  0.5925800000000 1.0
C      1  0.4137170000000  0.5433010000000  0.4345490000000 1.0
C      1  0.5211370000000  0.5925710000000  0.4363820000000 1.0
C      1  0.5862340000000  0.5134690000000  0.4537480000000 1.0
C      1  0.5381560000000  0.4149450000000  0.4272210000000 1.0
C      1  0.4323460000000  0.4422530000000  0.4390480000000 1.0
C      1  0.5232110000000  0.4421370000000  0.4958490000000 1.0
C      1  0.4640240000000  0.4748600000000  0.4989650000000 1.0
C      1  0.4406820000000  0.5184140000000  0.4836480000000 1.0
C      1  0.5040540000000  0.5634870000000  0.4902340000000 1.0
C      1  0.5530840000000  0.5328140000000  0.5046500000000 1.0
C      1  0.5195280000000  0.6195670000000  0.5202890000000 1.0
C      1  0.6183440000000  0.5155780000000  0.5292610000000 1.0
C      1  0.5463930000000  0.3916030000000  0.5063130000000 1.0
C      1  0.4188370000000  0.4221330000000  0.5175720000000 1.0
C      1  0.3932130000000  0.5579420000000  0.5229130000000 1.0
C      1  0.5604400000000  0.4258780000000  0.5487420000000 1.0
C      1  0.4599770000000  0.4115980000000  0.5592950000000 1.0
C      1  0.4080080000000  0.5167380000000  0.5671520000000 1.0
C      1  0.4826930000000  0.6079460000000  0.5496770000000 1.0
C      1  0.5739360000000  0.5425890000000  0.5619220000000 1.0
C      1  0.4456570000000  0.5722400000000  0.5696780000000 1.0
C      1  0.5426870000000  0.5662220000000  0.5680470000000 1.0
C      1  0.5826460000000  0.4699260000000  0.5671040000000 1.0
C      1  0.5083580000000  0.4135470000000  0.5633180000000 1.0
C      1  0.4278100000000  0.4716230000000  0.5721220000000 1.0
C      1  0.4728720000000  0.5177580000000  0.4601460000000 1.0
C      1  0.5128410000000  0.5425070000000  0.4527730000000 1.0
C      1  0.5440600000000  0.4966410000000  0.4737130000000 1.0
C      1  0.5164580000000  0.4586440000000  0.4601690000000 1.0
C      1  0.4801430000000  0.4737450000000  0.4539660000000 1.0
C      1  0.5444820000000  0.5210820000000  0.5988620000000 1.0
C      1  0.5407400000000  0.4518450000000  0.5874060000000 1.0
C      1  0.4811550000000  0.4445840000000  0.6007280000000 1.0
C      1  0.4616080000000  0.5103720000000  0.6039200000000 1.0
C      1  0.4908500000000  0.5765380000000  0.5901170000000 1.0
C      1  0.5431990000000  0.5376290000000  0.5368500000000 1.0
C      1  0.5441510000000  0.4785030000000  0.5334680000000 1.0
C      1  0.4769580000000  0.4345480000000  0.5202570000000 1.0
C      1  0.4475510000000  0.5013850000000  0.5422110000000 1.0
C      1  0.4873310000000  0.5585880000000  0.5409100000000 1.0
C      1  0.5000000000000  0.5090760000000  0.5571910000000 1.0
END
