TITL C-2782225-7408-737 -0.000538225409132703 125000 -1156.06384766922 0 0 200 (C1) n - 1
REM
REM in /home/nfs/bkarasulu/CARBON/AIRSS/Generating-Clusters/REBO/Higher-Symm/SD-CG/HFTN-CG
REM
REM
REM
REM
REM
REM ./C.cell (12c818d87b63d06a65506943cc24bca4)
REM
REM compiler GCC version 9.2.1 20190827 (Red Hat 9.2.1-1)
REM options -cpp -mtune=generic -march=x86-64 -g -O0 -fpre-include=/usr/include/finclude/math-vector-fortran.h
REM seed -466322236 -388628591 307037809 -590520324 -1577216370 1191849109 1353935365 752377846 -1709459966 -864149634 1002606494 781349278 213097478 -1226967910 -1334793483 -1482618411 26007837 1002288928 1835890780 920921977 -1606249795 93274118 -1262953492 936421529 586346144 -1009320921 -635026622 -1902393772 -1729103659 -1047791374 -652250478 1668547111 1406711812
REM
CELL 1.54180   50.00000   50.00000   50.00000   90.00000   90.00000   90.00000
LATT -1
SFAC C  
C      1  0.5896380000000  0.5246500000000  0.4475700000000 1.0
C      1  0.5031250000000  0.5992960000000  0.4490400000000 1.0
C      1  0.4123930000000  0.5349340000000  0.4537830000000 1.0
C      1  0.4386660000000  0.4287840000000  0.4471350000000 1.0
C      1  0.5523380000000  0.4222170000000  0.4551640000000 1.0
C      1  0.4725270000000  0.5884280000000  0.4388190000000 1.0
C      1  0.4074240000000  0.5064460000000  0.4369100000000 1.0
C      1  0.4693780000000  0.4181220000000  0.4394940000000 1.0
C      1  0.5748040000000  0.4365510000000  0.4338710000000 1.0
C      1  0.5769620000000  0.5530100000000  0.4371170000000 1.0
C      1  0.4643830000000  0.5647900000000  0.5150160000000 1.0
C      1  0.4213610000000  0.4637730000000  0.5187260000000 1.0
C      1  0.4936450000000  0.4233860000000  0.5110090000000 1.0
C      1  0.5827260000000  0.4819370000000  0.5198400000000 1.0
C      1  0.5438160000000  0.5654400000000  0.5188140000000 1.0
C      1  0.5855600000000  0.4987100000000  0.5655770000000 1.0
C      1  0.5248400000000  0.5657940000000  0.5538370000000 1.0
C      1  0.4421310000000  0.5513190000000  0.5540000000000 1.0
C      1  0.4391350000000  0.4610090000000  0.5570070000000 1.0
C      1  0.5141030000000  0.4279250000000  0.5539040000000 1.0
C      1  0.5203070000000  0.5161870000000  0.6103480000000 1.0
C      1  0.4915170000000  0.5246190000000  0.6101050000000 1.0
C      1  0.4749840000000  0.5001730000000  0.6093420000000 1.0
C      1  0.4929030000000  0.4768460000000  0.6095090000000 1.0
C      1  0.5214460000000  0.4861290000000  0.6090590000000 1.0
C      1  0.5536270000000  0.5871060000000  0.4398040000000 1.0
C      1  0.4334280000000  0.5806470000000  0.4399040000000 1.0
C      1  0.4012870000000  0.4647060000000  0.4353710000000 1.0
C      1  0.5045130000000  0.3983690000000  0.4418490000000 1.0
C      1  0.5984900000000  0.4775160000000  0.4375110000000 1.0
C      1  0.5431840000000  0.5326870000000  0.4722070000000 1.0
C      1  0.4806510000000  0.5496430000000  0.4717820000000 1.0
C      1  0.4465810000000  0.4853330000000  0.4679770000000 1.0
C      1  0.4853130000000  0.4484630000000  0.4688760000000 1.0
C      1  0.5522820000000  0.4803380000000  0.4723930000000 1.0
C      1  0.5738760000000  0.5317830000000  0.5838910000000 1.0
C      1  0.4951920000000  0.5807070000000  0.5879240000000 1.0
C      1  0.4230000000000  0.5208600000000  0.5797650000000 1.0
C      1  0.4563250000000  0.4357760000000  0.5891690000000 1.0
C      1  0.5496910000000  0.4376980000000  0.5794100000000 1.0
C      1  0.5787100000000  0.4642290000000  0.4141150000000 1.0
C      1  0.5529700000000  0.5624420000000  0.4164700000000 1.0
C      1  0.4562260000000  0.5698390000000  0.4168690000000 1.0
C      1  0.4132060000000  0.4851880000000  0.4109630000000 1.0
C      1  0.4924950000000  0.4177120000000  0.4162990000000 1.0
C      1  0.5091890000000  0.3961290000000  0.5518220000000 1.0
C      1  0.5996700000000  0.4745290000000  0.5631010000000 1.0
C      1  0.5666560000000  0.5992600000000  0.5498070000000 1.0
C      1  0.4404280000000  0.5856460000000  0.5511180000000 1.0
C      1  0.4095110000000  0.4594880000000  0.5563440000000 1.0
C      1  0.4541930000000  0.3961550000000  0.5176960000000 1.0
C      1  0.5872030000000  0.4332340000000  0.5193180000000 1.0
C      1  0.5953930000000  0.5580760000000  0.5181480000000 1.0
C      1  0.4756680000000  0.6087880000000  0.5134190000000 1.0
C      1  0.3893630000000  0.5066060000000  0.5187250000000 1.0
C      1  0.5740020000000  0.5036130000000  0.4089620000000 1.0
C      1  0.5171680000000  0.5707770000000  0.4065480000000 1.0
C      1  0.4294860000000  0.5338700000000  0.4180080000000 1.0
C      1  0.4446500000000  0.4453790000000  0.4113800000000 1.0
C      1  0.5399490000000  0.4328730000000  0.4187780000000 1.0
C      1  0.4955430000000  0.5945890000000  0.5568820000000 1.0
C      1  0.4091000000000  0.5438620000000  0.5586220000000 1.0
C      1  0.4484600000000  0.4179530000000  0.5680930000000 1.0
C      1  0.5550800000000  0.4102130000000  0.5596390000000 1.0
C      1  0.6017590000000  0.5270070000000  0.5632270000000 1.0
C      1  0.5699580000000  0.5130190000000  0.5168400000000 1.0
C      1  0.5103880000000  0.5659580000000  0.5111130000000 1.0
C      1  0.4392190000000  0.5254490000000  0.5034430000000 1.0
C      1  0.4494980000000  0.4459710000000  0.5099120000000 1.0
C      1  0.5344550000000  0.4420060000000  0.5046720000000 1.0
C      1  0.5418630000000  0.5121190000000  0.4018100000000 1.0
C      1  0.4988270000000  0.5435130000000  0.4012130000000 1.0
C      1  0.4544520000000  0.5172360000000  0.4040060000000 1.0
C      1  0.4689840000000  0.4649590000000  0.3979640000000 1.0
C      1  0.5267640000000  0.4596770000000  0.4040320000000 1.0
C      1  0.5032290000000  0.5241100000000  0.4281790000000 1.0
C      1  0.4753150000000  0.5102270000000  0.4290340000000 1.0
C      1  0.4807800000000  0.4798100000000  0.4262850000000 1.0
C      1  0.5101510000000  0.4751020000000  0.4285300000000 1.0
C      1  0.5245000000000  0.5018270000000  0.4283570000000 1.0
C      1  0.5542580000000  0.4869570000000  0.5031480000000 1.0
C      1  0.5310870000000  0.5419650000000  0.4991730000000 1.0
C      1  0.4672970000000  0.5422230000000  0.4980810000000 1.0
C      1  0.4457200000000  0.4770830000000  0.4992300000000 1.0
C      1  0.5021670000000  0.4457680000000  0.4944900000000 1.0
C      1  0.5280160000000  0.5030370000000  0.5735780000000 1.0
C      1  0.5079290000000  0.5272500000000  0.5739950000000 1.0
C      1  0.4769780000000  0.5166220000000  0.5731170000000 1.0
C      1  0.4782140000000  0.4837710000000  0.5730330000000 1.0
C      1  0.5089630000000  0.4747280000000  0.5730260000000 1.0
C      1  0.5145150000000  0.3935530000000  0.4906960000000 1.0
C      1  0.6062410000000  0.4770710000000  0.4880820000000 1.0
C      1  0.5516120000000  0.5942930000000  0.4927570000000 1.0
C      1  0.4232170000000  0.5811620000000  0.4916090000000 1.0
C      1  0.4010560000000  0.4527150000000  0.4861950000000 1.0
C      1  0.4338450000000  0.4876100000000  0.4371070000000 1.0
C      1  0.4967450000000  0.4372670000000  0.4436120000000 1.0
C      1  0.5605400000000  0.4663440000000  0.4424990000000 1.0
C      1  0.5449330000000  0.5491390000000  0.4477250000000 1.0
C      1  0.4640570000000  0.5564600000000  0.4472750000000 1.0
C      1  0.3951630000000  0.4764190000000  0.4629650000000 1.0
C      1  0.4881190000000  0.3968390000000  0.4693490000000 1.0
C      1  0.5955630000000  0.4673590000000  0.4636750000000 1.0
C      1  0.5656000000000  0.5779310000000  0.4662340000000 1.0
C      1  0.4442020000000  0.5914380000000  0.4668610000000 1.0
C      1  0.4128890000000  0.4392590000000  0.4357530000000 1.0
C      1  0.5321290000000  0.4015900000000  0.4458260000000 1.0
C      1  0.6062890000000  0.5035100000000  0.4346290000000 1.0
C      1  0.5318140000000  0.6046840000000  0.4405290000000 1.0
C      1  0.4124070000000  0.5627080000000  0.4431010000000 1.0
C      1  0.5722780000000  0.5717320000000  0.5363990000000 1.0
C      1  0.4470320000000  0.6102550000000  0.5308760000000 1.0
C      1  0.4000780000000  0.4810200000000  0.5354170000000 1.0
C      1  0.4818830000000  0.3866480000000  0.5345920000000 1.0
C      1  0.5909350000000  0.4589870000000  0.5405610000000 1.0
C      1  0.5852340000000  0.5348390000000  0.4974980000000 1.0
C      1  0.4986770000000  0.5916360000000  0.4954190000000 1.0
C      1  0.4061170000000  0.5228450000000  0.4959490000000 1.0
C      1  0.4457770000000  0.4176300000000  0.4962460000000 1.0
C      1  0.5646790000000  0.4288320000000  0.4957500000000 1.0
C      1  0.5551500000000  0.4970560000000  0.4362230000000 1.0
C      1  0.5166590000000  0.5529500000000  0.4355770000000 1.0
C      1  0.4501110000000  0.5291620000000  0.4418540000000 1.0
C      1  0.4536280000000  0.4643960000000  0.4346520000000 1.0
C      1  0.5249350000000  0.4481390000000  0.4421940000000 1.0
C      1  0.5006490000000  0.4720030000000  0.5088640000000 1.0
C      1  0.5258770000000  0.4914340000000  0.5132600000000 1.0
C      1  0.5146440000000  0.5199750000000  0.5128060000000 1.0
C      1  0.4817710000000  0.5183480000000  0.5094220000000 1.0
C      1  0.4722080000000  0.4877120000000  0.5091870000000 1.0
C      1  0.5330370000000  0.5409950000000  0.3992510000000 1.0
C      1  0.4684870000000  0.5465640000000  0.3992170000000 1.0
C      1  0.4442120000000  0.4883070000000  0.3975830000000 1.0
C      1  0.4962870000000  0.4465330000000  0.3999840000000 1.0
C      1  0.5511680000000  0.4790180000000  0.4004760000000 1.0
C      1  0.5640340000000  0.5114140000000  0.4635410000000 1.0
C      1  0.5010450000000  0.5677670000000  0.4568590000000 1.0
C      1  0.4366670000000  0.5178420000000  0.4707530000000 1.0
C      1  0.4561420000000  0.4521700000000  0.4636960000000 1.0
C      1  0.5392140000000  0.4485230000000  0.4722770000000 1.0
C      1  0.4147180000000  0.4313750000000  0.4966240000000 1.0
C      1  0.5439540000000  0.4033740000000  0.5052940000000 1.0
C      1  0.6063870000000  0.5084190000000  0.5014070000000 1.0
C      1  0.5275530000000  0.6017990000000  0.5112500000000 1.0
C      1  0.4118570000000  0.5541770000000  0.5081630000000 1.0
C      1  0.4432600000000  0.4947950000000  0.5577910000000 1.0
C      1  0.4843710000000  0.4426490000000  0.5614930000000 1.0
C      1  0.5441490000000  0.4689570000000  0.5556620000000 1.0
C      1  0.5429270000000  0.5385790000000  0.5602760000000 1.0
C      1  0.4752120000000  0.5600950000000  0.5603050000000 1.0
C      1  0.4738530000000  0.4142680000000  0.5472500000000 1.0
C      1  0.5659070000000  0.4466910000000  0.5502850000000 1.0
C      1  0.5800000000000  0.5505490000000  0.5559390000000 1.0
C      1  0.4658810000000  0.5904710000000  0.5725470000000 1.0
C      1  0.4133020000000  0.5053290000000  0.5506090000000 1.0
C      1  0.5295900000000  0.4930310000000  0.5441630000000 1.0
C      1  0.5028290000000  0.5282700000000  0.5417010000000 1.0
C      1  0.4758940000000  0.5106090000000  0.5415310000000 1.0
C      1  0.4770630000000  0.4787840000000  0.5403180000000 1.0
C      1  0.5072200000000  0.4688740000000  0.5404160000000 1.0
C      1  0.4584650000000  0.4439730000000  0.5395750000000 1.0
C      1  0.5358280000000  0.4417810000000  0.5360500000000 1.0
C      1  0.5664830000000  0.5201360000000  0.5464670000000 1.0
C      1  0.4973960000000  0.5586910000000  0.5394270000000 1.0
C      1  0.4396740000000  0.5218260000000  0.5365330000000 1.0
C      1  0.4463880000000  0.4988150000000  0.5918620000000 1.0
C      1  0.4868930000000  0.4497410000000  0.5948070000000 1.0
C      1  0.5449700000000  0.4706560000000  0.5897580000000 1.0
C      1  0.5414230000000  0.5350470000000  0.5942780000000 1.0
C      1  0.4803750000000  0.5505830000000  0.5934110000000 1.0
C      1  0.4174150000000  0.4308140000000  0.5279100000000 1.0
C      1  0.5156840000000  0.4037640000000  0.5221190000000 1.0
C      1  0.6110650000000  0.4963600000000  0.5318840000000 1.0
C      1  0.5380410000000  0.5913200000000  0.5412640000000 1.0
C      1  0.4373560000000  0.5729590000000  0.5208110000000 1.0
C      1  0.4526510000000  0.4676790000000  0.5853890000000 1.0
C      1  0.5173720000000  0.4432400000000  0.5831700000000 1.0
C      1  0.5588390000000  0.5010100000000  0.5838250000000 1.0
C      1  0.5186200000000  0.5576080000000  0.5850970000000 1.0
C      1  0.4526430000000  0.5365570000000  0.5829320000000 1.0
C      1  0.5010980000000  0.6037030000000  0.5330660000000 1.0
C      1  0.3967350000000  0.5370080000000  0.5318690000000 1.0
C      1  0.4347390000000  0.4118550000000  0.5400610000000 1.0
C      1  0.5640340000000  0.4114730000000  0.5315760000000 1.0
C      1  0.6080170000000  0.5296440000000  0.5296790000000 1.0
C      1  0.4828380000000  0.3863160000000  0.5014530000000 1.0
C      1  0.6091740000000  0.4555060000000  0.5057920000000 1.0
C      1  0.5780080000000  0.5767190000000  0.4975500000000 1.0
C      1  0.4461720000000  0.6048190000000  0.4981670000000 1.0
C      1  0.3898470000000  0.4816670000000  0.4964490000000 1.0
C      1  0.3976650000000  0.5093840000000  0.4690820000000 1.0
C      1  0.4575990000000  0.4119280000000  0.4698630000000 1.0
C      1  0.5781190000000  0.4408150000000  0.4677540000000 1.0
C      1  0.5803050000000  0.5473120000000  0.4707450000000 1.0
C      1  0.4775830000000  0.5965000000000  0.4715170000000 1.0
C      1  0.4967520000000  0.4766930000000  0.4693390000000 1.0
C      1  0.5213160000000  0.4888540000000  0.4699800000000 1.0
C      1  0.5172400000000  0.5163920000000  0.4717350000000 1.0
C      1  0.4900220000000  0.5210690000000  0.4703890000000 1.0
C      1  0.4770370000000  0.4966500000000  0.4680370000000 1.0
END
