TITL C-2782235-7892-683 -6.6283060955681e-05 125000 -347.922212909201 0 0 58 (C1) n - 1
REM
REM in /home/nfs/bkarasulu/CARBON/AIRSS/Generating-Clusters/REBO/Higher-Symm/SD-CG/HFTN-CG
REM
REM
REM
REM
REM
REM ./C.cell (12c818d87b63d06a65506943cc24bca4)
REM
REM compiler GCC version 9.2.1 20190827 (Red Hat 9.2.1-1)
REM options -cpp -mtune=generic -march=x86-64 -g -O0 -fpre-include=/usr/include/finclude/math-vector-fortran.h
REM seed 1646886910 -1358389716 221977684 2065972194 -1840753759 1946741274 827695947 1947212937 -1465135013 973714278 -829318463 -659793231 1979857755 1719999587 -996097898 -583118959 -1558018611 78679110 2043231727 160704786 -1472662040 1936225090 -1558157698 1839335119 -431368081 -2060576173 -2079864336 -514367979 1201812470 -998448049 663129096 -1766018041 313597077
REM
CELL 1.54180   50.00000   50.00000   50.00000   90.00000   90.00000   90.00000
LATT -1
SFAC C  
C      1  0.4886270000000  0.5582850000000  0.5273140000000 1.0
C      1  0.4739430000000  0.4414780000000  0.5122850000000 1.0
C      1  0.4735080000000  0.5584300000000  0.4886890000000 1.0
C      1  0.4837380000000  0.4383290000000  0.4611130000000 1.0
C      1  0.5115420000000  0.5575450000000  0.4741100000000 1.0
C      1  0.5308640000000  0.4349810000000  0.4862070000000 1.0
C      1  0.5273870000000  0.5580900000000  0.5108110000000 1.0
C      1  0.5174910000000  0.4434130000000  0.5382200000000 1.0
C      1  0.4682190000000  0.4676420000000  0.4578760000000 1.0
C      1  0.5079100000000  0.5308890000000  0.4536830000000 1.0
C      1  0.5177480000000  0.4655730000000  0.4874880000000 1.0
C      1  0.5486930000000  0.5327250000000  0.5089330000000 1.0
C      1  0.5324810000000  0.4708850000000  0.5380180000000 1.0
C      1  0.4902260000000  0.5330960000000  0.5494160000000 1.0
C      1  0.4620600000000  0.4667310000000  0.5298880000000 1.0
C      1  0.4514640000000  0.5328330000000  0.4924170000000 1.0
C      1  0.4859940000000  0.4822850000000  0.4362070000000 1.0
C      1  0.5342880000000  0.5196660000000  0.4431250000000 1.0
C      1  0.5701200000000  0.4838270000000  0.4867430000000 1.0
C      1  0.5566040000000  0.5190150000000  0.5359430000000 1.0
C      1  0.5090290000000  0.4850870000000  0.5714470000000 1.0
C      1  0.4623460000000  0.5191140000000  0.5539760000000 1.0
C      1  0.4376360000000  0.4798720000000  0.5137200000000 1.0
C      1  0.4451560000000  0.5190400000000  0.4648390000000 1.0
C      1  0.5431240000000  0.5485290000000  0.4814160000000 1.0
C      1  0.5415640000000  0.4479650000000  0.5143490000000 1.0
C      1  0.5182010000000  0.5486810000000  0.5422150000000 1.0
C      1  0.4877220000000  0.4481050000000  0.5421770000000 1.0
C      1  0.4570770000000  0.5520570000000  0.5181910000000 1.0
C      1  0.4590470000000  0.4467990000000  0.4831250000000 1.0
C      1  0.4821680000000  0.5508170000000  0.4575480000000 1.0
C      1  0.5160450000000  0.4485420000000  0.4579710000000 1.0
C      1  0.5543350000000  0.5274570000000  0.4613280000000 1.0
C      1  0.5626230000000  0.4734400000000  0.5119260000000 1.0
C      1  0.5370480000000  0.5269390000000  0.5546250000000 1.0
C      1  0.4848570000000  0.4736880000000  0.5620090000000 1.0
C      1  0.4445580000000  0.5273080000000  0.5338030000000 1.0
C      1  0.4390050000000  0.4718720000000  0.4865410000000 1.0
C      1  0.4640730000000  0.5278620000000  0.4457410000000 1.0
C      1  0.5129570000000  0.4731650000000  0.4375420000000 1.0
C      1  0.4763870000000  0.5080680000000  0.4295410000000 1.0
C      1  0.5325490000000  0.4931570000000  0.4329350000000 1.0
C      1  0.5701430000000  0.5063930000000  0.4715190000000 1.0
C      1  0.5658620000000  0.4922810000000  0.5331780000000 1.0
C      1  0.5254880000000  0.5066520000000  0.5703920000000 1.0
C      1  0.4632640000000  0.4918920000000  0.5618790000000 1.0
C      1  0.4302140000000  0.5061410000000  0.5216330000000 1.0
C      1  0.4357330000000  0.4923550000000  0.4672340000000 1.0
C      1  0.4738520000000  0.4946470000000  0.5216460000000 1.0
C      1  0.4642370000000  0.5044650000000  0.4967670000000 1.0
C      1  0.4758520000000  0.4946990000000  0.4728010000000 1.0
C      1  0.5017270000000  0.5048620000000  0.4682330000000 1.0
C      1  0.5209160000000  0.4938230000000  0.4851070000000 1.0
C      1  0.5323950000000  0.5062730000000  0.5068730000000 1.0
C      1  0.5225220000000  0.4963110000000  0.5318560000000 1.0
C      1  0.4954340000000  0.5044260000000  0.5371300000000 1.0
C      1  0.5004210000000  0.5731910000000  0.5006090000000 1.0
C      1  0.4971610000000  0.4383060000000  0.4913970000000 1.0
END
