TITL C-2782227-3064-768 -0.000857624585519489 125000 -611.285590282226 0 0 108 (C1) n - 1
REM
REM in /home/nfs/bkarasulu/CARBON/AIRSS/Generating-Clusters/REBO/Higher-Symm/SD-CG/HFTN-CG
REM
REM
REM
REM
REM
REM ./C.cell (12c818d87b63d06a65506943cc24bca4)
REM
REM compiler GCC version 9.2.1 20190827 (Red Hat 9.2.1-1)
REM options -cpp -mtune=generic -march=x86-64 -g -O0 -fpre-include=/usr/include/finclude/math-vector-fortran.h
REM seed 1040342801 136130341 1018530827 -652680886 1939698069 1989635073 21272607 -1111516402 -570272354 -1854706840 659959697 -1827636269 -826680688 -643010226 27857103 202207301 -1116378921 654280734 983185165 -594804645 2021041633 1541997617 414305451 -1544077855 647108931 795984634 1110206463 1551056012 1218799838 367549279 -1651637866 1657670576 -992355868
REM
CELL 1.54180   50.00000   50.00000   50.00000   90.00000   90.00000   90.00000
LATT -1
SFAC C  
C      1  0.5015410000000  0.4310640000000  0.4723830000000 1.0
C      1  0.4768480000000  0.5729760000000  0.5004410000000 1.0
C      1  0.4950600000000  0.4353950000000  0.5181980000000 1.0
C      1  0.5224000000000  0.5711370000000  0.4972160000000 1.0
C      1  0.5510870000000  0.5598560000000  0.4897810000000 1.0
C      1  0.4880940000000  0.4393620000000  0.4474870000000 1.0
C      1  0.4498390000000  0.5648370000000  0.5102690000000 1.0
C      1  0.5062380000000  0.4408660000000  0.5453590000000 1.0
C      1  0.5574290000000  0.4961170000000  0.5025430000000 1.0
C      1  0.5055930000000  0.4990760000000  0.4546350000000 1.0
C      1  0.4472110000000  0.4955770000000  0.4991060000000 1.0
C      1  0.4982010000000  0.5014250000000  0.5528560000000 1.0
C      1  0.5329680000000  0.5322880000000  0.4227260000000 1.0
C      1  0.4201720000000  0.4747550000000  0.4757810000000 1.0
C      1  0.4773710000000  0.5256850000000  0.5766300000000 1.0
C      1  0.5790910000000  0.4729800000000  0.5268540000000 1.0
C      1  0.4257990000000  0.5700200000000  0.4885320000000 1.0
C      1  0.4890970000000  0.4271310000000  0.5700070000000 1.0
C      1  0.5728070000000  0.5706360000000  0.5122010000000 1.0
C      1  0.5002980000000  0.4242490000000  0.4208610000000 1.0
C      1  0.4949140000000  0.5945260000000  0.5137610000000 1.0
C      1  0.5124540000000  0.4110520000000  0.5050010000000 1.0
C      1  0.5057470000000  0.5932040000000  0.4821990000000 1.0
C      1  0.4842070000000  0.4096210000000  0.4900000000000 1.0
C      1  0.5950230000000  0.5071540000000  0.5071890000000 1.0
C      1  0.4964980000000  0.4938300000000  0.4240190000000 1.0
C      1  0.4099980000000  0.5086210000000  0.4977530000000 1.0
C      1  0.4975610000000  0.4913180000000  0.5910950000000 1.0
C      1  0.4598800000000  0.5670620000000  0.4716530000000 1.0
C      1  0.4688970000000  0.4287780000000  0.5377390000000 1.0
C      1  0.5383390000000  0.5655360000000  0.5272250000000 1.0
C      1  0.5338160000000  0.4328700000000  0.4639060000000 1.0
C      1  0.5842630000000  0.4840840000000  0.4872940000000 1.0
C      1  0.4858790000000  0.5204150000000  0.4160040000000 1.0
C      1  0.4213300000000  0.4853900000000  0.5162720000000 1.0
C      1  0.5157080000000  0.5135510000000  0.5784010000000 1.0
C      1  0.5625300000000  0.4433390000000  0.4760660000000 1.0
C      1  0.4677160000000  0.5558680000000  0.4415800000000 1.0
C      1  0.4405560000000  0.4427310000000  0.5281990000000 1.0
C      1  0.5273060000000  0.5547800000000  0.5564710000000 1.0
C      1  0.5862360000000  0.4519980000000  0.5109120000000 1.0
C      1  0.5056950000000  0.5404160000000  0.4169620000000 1.0
C      1  0.4121840000000  0.4546590000000  0.4926030000000 1.0
C      1  0.4937910000000  0.5464350000000  0.5836350000000 1.0
C      1  0.4763220000000  0.5050820000000  0.4681240000000 1.0
C      1  0.4701550000000  0.4950960000000  0.5202090000000 1.0
C      1  0.5212440000000  0.5026500000000  0.5317810000000 1.0
C      1  0.5375280000000  0.4974220000000  0.4785050000000 1.0
C      1  0.4654360000000  0.5590040000000  0.5584530000000 1.0
C      1  0.5587610000000  0.4404880000000  0.5377630000000 1.0
C      1  0.5288870000000  0.5655750000000  0.4441740000000 1.0
C      1  0.4367100000000  0.4401490000000  0.4647030000000 1.0
C      1  0.4924720000000  0.5478680000000  0.4841340000000 1.0
C      1  0.4783400000000  0.4586010000000  0.4995310000000 1.0
C      1  0.5050760000000  0.5477810000000  0.5143260000000 1.0
C      1  0.5164970000000  0.4541910000000  0.4923760000000 1.0
C      1  0.5155260000000  0.5225300000000  0.4853180000000 1.0
C      1  0.4897060000000  0.4830760000000  0.4875970000000 1.0
C      1  0.4917240000000  0.5167810000000  0.5090020000000 1.0
C      1  0.5134530000000  0.4834650000000  0.5070570000000 1.0
C      1  0.5759750000000  0.4694820000000  0.4646160000000 1.0
C      1  0.4618850000000  0.5279710000000  0.4291780000000 1.0
C      1  0.4303890000000  0.4706200000000  0.5381590000000 1.0
C      1  0.5373310000000  0.5281800000000  0.5689480000000 1.0
C      1  0.4956360000000  0.4589830000000  0.5702170000000 1.0
C      1  0.5704890000000  0.5378460000000  0.5041100000000 1.0
C      1  0.5065440000000  0.4557230000000  0.4247080000000 1.0
C      1  0.4336330000000  0.5392300000000  0.4966640000000 1.0
C      1  0.4635120000000  0.4557620000000  0.4539200000000 1.0
C      1  0.4508270000000  0.5426000000000  0.5326010000000 1.0
C      1  0.5321730000000  0.4580010000000  0.5494100000000 1.0
C      1  0.5330660000000  0.5461650000000  0.4680390000000 1.0
C      1  0.4231700000000  0.5241550000000  0.5254160000000 1.0
C      1  0.5248290000000  0.4746710000000  0.5782880000000 1.0
C      1  0.5843730000000  0.5228190000000  0.4789410000000 1.0
C      1  0.4750880000000  0.4700490000000  0.4253860000000 1.0
C      1  0.5727490000000  0.5086580000000  0.4572210000000 1.0
C      1  0.4445310000000  0.4833370000000  0.4322700000000 1.0
C      1  0.4338110000000  0.5142890000000  0.5550930000000 1.0
C      1  0.5546990000000  0.4848170000000  0.5685760000000 1.0
C      1  0.4972530000000  0.5695450000000  0.5608900000000 1.0
C      1  0.5632360000000  0.4293540000000  0.5070750000000 1.0
C      1  0.4978190000000  0.5676950000000  0.4342830000000 1.0
C      1  0.4346630000000  0.4314200000000  0.4968970000000 1.0
C      1  0.5459380000000  0.4809280000000  0.5297790000000 1.0
C      1  0.5341720000000  0.5169750000000  0.4508110000000 1.0
C      1  0.4535780000000  0.4800560000000  0.4709810000000 1.0
C      1  0.4716710000000  0.5193530000000  0.5433700000000 1.0
C      1  0.4694590000000  0.5339320000000  0.4678990000000 1.0
C      1  0.4687500000000  0.4627420000000  0.5307030000000 1.0
C      1  0.5284420000000  0.5322570000000  0.5302660000000 1.0
C      1  0.5371190000000  0.4666230000000  0.4725130000000 1.0
C      1  0.5492230000000  0.5585670000000  0.4230150000000 1.0
C      1  0.4258940000000  0.4659810000000  0.4458380000000 1.0
C      1  0.4472020000000  0.5337380000000  0.5713210000000 1.0
C      1  0.5709300000000  0.4648920000000  0.5563320000000 1.0
C      1  0.4616530000000  0.4166970000000  0.5066410000000 1.0
C      1  0.5108590000000  0.5841870000000  0.5353580000000 1.0
C      1  0.5372950000000  0.4174270000000  0.4928640000000 1.0
C      1  0.4877240000000  0.5838470000000  0.4615810000000 1.0
C      1  0.5693790000000  0.5147950000000  0.5288430000000 1.0
C      1  0.5269420000000  0.4809640000000  0.4349840000000 1.0
C      1  0.4338830000000  0.5146720000000  0.4736320000000 1.0
C      1  0.4730630000000  0.4836650000000  0.5681060000000 1.0
C      1  0.4440570000000  0.4873200000000  0.5567270000000 1.0
C      1  0.5566880000000  0.5112750000000  0.5571840000000 1.0
C      1  0.5576590000000  0.4852550000000  0.4441340000000 1.0
C      1  0.4452330000000  0.5100530000000  0.4433470000000 1.0
END
