TITL C-2782239-8622-1073 -0.00183080641278962 125000 -900.202678011816 0 0 156 (C2) n - 1
REM
REM in /home/nfs/bkarasulu/CARBON/AIRSS/Generating-Clusters/REBO/Higher-Symm/SD-CG/HFTN-CG
REM
REM
REM
REM
REM
REM ./C.cell (12c818d87b63d06a65506943cc24bca4)
REM
REM compiler GCC version 9.2.1 20190827 (Red Hat 9.2.1-1)
REM options -cpp -mtune=generic -march=x86-64 -g -O0 -fpre-include=/usr/include/finclude/math-vector-fortran.h
REM seed -93527464 -1338676013 1019408523 1693436257 758124696 107455149 1689612853 2115653314 -1875569765 -1961743581 -502305678 524910547 1378584701 1056960228 41279973 1539769818 -12077462 858499693 1560546878 497045879 -722462898 -1307553846 -1160167566 391125028 -1769209633 1366713406 -702518969 908301987 -1068110709 598041545 -767622350 -906843139 -1786369327
REM
CELL 1.54180   50.00000   50.00000   50.00000   90.00000   90.00000   90.00000
LATT -1
SFAC C  
C      1  0.4628500000000  0.4385470000000  0.4465460000000 1.0
C      1  0.4422710000000  0.4384150000000  0.5403260000000 1.0
C      1  0.5371500000000  0.4385470000000  0.5534540000000 1.0
C      1  0.5577290000000  0.4384140000000  0.4596750000000 1.0
C      1  0.4598620000000  0.5608210000000  0.4483580000000 1.0
C      1  0.4505210000000  0.5604780000000  0.5390410000000 1.0
C      1  0.5401380000000  0.5608210000000  0.5516420000000 1.0
C      1  0.5494790000000  0.5604780000000  0.4609590000000 1.0
C      1  0.5293570000000  0.4733760000000  0.4426890000000 1.0
C      1  0.4422150000000  0.4741240000000  0.4706790000000 1.0
C      1  0.4706430000000  0.4733770000000  0.5573110000000 1.0
C      1  0.5577850000000  0.4741240000000  0.5293210000000 1.0
C      1  0.5245060000000  0.5308040000000  0.4445470000000 1.0
C      1  0.4441500000000  0.5311350000000  0.4746220000000 1.0
C      1  0.4754940000000  0.5308050000000  0.5554520000000 1.0
C      1  0.5558500000000  0.5311350000000  0.5253780000000 1.0
C      1  0.4465910000000  0.5419200000000  0.4323310000000 1.0
C      1  0.4341050000000  0.5424300000000  0.5527170000000 1.0
C      1  0.5534090000000  0.5419200000000  0.5676680000000 1.0
C      1  0.5658960000000  0.5424290000000  0.4472820000000 1.0
C      1  0.4488300000000  0.4533680000000  0.4272210000000 1.0
C      1  0.4231580000000  0.4539580000000  0.5538190000000 1.0
C      1  0.5511700000000  0.4533680000000  0.5727790000000 1.0
C      1  0.5768420000000  0.4539580000000  0.4461820000000 1.0
C      1  0.5221820000000  0.4751730000000  0.4037950000000 1.0
C      1  0.4033190000000  0.4766310000000  0.4780080000000 1.0
C      1  0.4778180000000  0.4751740000000  0.5962050000000 1.0
C      1  0.5966810000000  0.4766300000000  0.5219920000000 1.0
C      1  0.5185310000000  0.5287470000000  0.4051560000000 1.0
C      1  0.4048730000000  0.5305080000000  0.4813100000000 1.0
C      1  0.4814690000000  0.5287480000000  0.5948430000000 1.0
C      1  0.5951270000000  0.5305080000000  0.5186900000000 1.0
C      1  0.4204760000000  0.4885760000000  0.4519320000000 1.0
C      1  0.4517660000000  0.4883760000000  0.5787570000000 1.0
C      1  0.5795230000000  0.4885760000000  0.5480680000000 1.0
C      1  0.5482340000000  0.4883750000000  0.4212430000000 1.0
C      1  0.4210490000000  0.5203940000000  0.4551590000000 1.0
C      1  0.4557040000000  0.5201670000000  0.5783860000000 1.0
C      1  0.5789510000000  0.5203940000000  0.5448410000000 1.0
C      1  0.5442960000000  0.5201660000000  0.4216140000000 1.0
C      1  0.4957230000000  0.5173170000000  0.4358820000000 1.0
C      1  0.4353630000000  0.5193500000000  0.5045390000000 1.0
C      1  0.5042770000000  0.5173180000000  0.5641180000000 1.0
C      1  0.5646370000000  0.5193490000000  0.4954610000000 1.0
C      1  0.4978120000000  0.4846090000000  0.4350600000000 1.0
C      1  0.4353140000000  0.4866730000000  0.5018720000000 1.0
C      1  0.5021880000000  0.4846090000000  0.5649400000000 1.0
C      1  0.5646860000000  0.4866720000000  0.4981280000000 1.0
C      1  0.5723220000000  0.3823440000000  0.5004870000000 1.0
C      1  0.4954500000000  0.3796280000000  0.4322630000000 1.0
C      1  0.4276780000000  0.3823450000000  0.4995140000000 1.0
C      1  0.5045490000000  0.3796280000000  0.5677380000000 1.0
C      1  0.5642340000000  0.6235090000000  0.4892210000000 1.0
C      1  0.4973390000000  0.6225170000000  0.4295570000000 1.0
C      1  0.4357670000000  0.6235090000000  0.5107780000000 1.0
C      1  0.5026610000000  0.6225180000000  0.5704420000000 1.0
C      1  0.4042510000000  0.5226000000000  0.5147330000000 1.0
C      1  0.5145900000000  0.5198880000000  0.5954040000000 1.0
C      1  0.5957490000000  0.5225990000000  0.4852670000000 1.0
C      1  0.4854100000000  0.5198870000000  0.4045960000000 1.0
C      1  0.4040610000000  0.4827490000000  0.5117860000000 1.0
C      1  0.5118160000000  0.4800150000000  0.5960700000000 1.0
C      1  0.5959390000000  0.4827480000000  0.4882140000000 1.0
C      1  0.4881840000000  0.4800150000000  0.4039300000000 1.0
C      1  0.5065970000000  0.6011900000000  0.5553620000000 1.0
C      1  0.5502510000000  0.6009850000000  0.4908530000000 1.0
C      1  0.4934040000000  0.6011890000000  0.4446370000000 1.0
C      1  0.4497500000000  0.6009860000000  0.5091460000000 1.0
C      1  0.5050740000000  0.4008820000000  0.5517190000000 1.0
C      1  0.5557510000000  0.4025440000000  0.4955190000000 1.0
C      1  0.4949250000000  0.4008820000000  0.4482820000000 1.0
C      1  0.4442490000000  0.4025440000000  0.5044820000000 1.0
C      1  0.4745780000000  0.4234910000000  0.4739690000000 1.0
C      1  0.4691970000000  0.4240010000000  0.5272110000000 1.0
C      1  0.5254220000000  0.4234910000000  0.5260320000000 1.0
C      1  0.5308030000000  0.4240010000000  0.4727900000000 1.0
C      1  0.4758790000000  0.5719180000000  0.4762090000000 1.0
C      1  0.4777880000000  0.5725620000000  0.5226990000000 1.0
C      1  0.5241210000000  0.5719180000000  0.5237900000000 1.0
C      1  0.5222130000000  0.5725620000000  0.4773010000000 1.0
C      1  0.5280910000000  0.5103780000000  0.5058910000000 1.0
C      1  0.5055020000000  0.5114230000000  0.4734580000000 1.0
C      1  0.4719090000000  0.5103790000000  0.4941090000000 1.0
C      1  0.4944980000000  0.5114230000000  0.5265420000000 1.0
C      1  0.5270260000000  0.4792460000000  0.5060080000000 1.0
C      1  0.5060100000000  0.4808450000000  0.4730670000000 1.0
C      1  0.4729740000000  0.4792470000000  0.4939930000000 1.0
C      1  0.4939900000000  0.4808450000000  0.5269330000000 1.0
C      1  0.5618930000000  0.5722120000000  0.4898880000000 1.0
C      1  0.4890250000000  0.5711980000000  0.4358700000000 1.0
C      1  0.4381080000000  0.5722130000000  0.5101110000000 1.0
C      1  0.5109750000000  0.5711980000000  0.5641290000000 1.0
C      1  0.5644560000000  0.4324540000000  0.4925380000000 1.0
C      1  0.4950550000000  0.4307560000000  0.4383970000000 1.0
C      1  0.4355430000000  0.4324550000000  0.5074630000000 1.0
C      1  0.5049450000000  0.4307560000000  0.5616040000000 1.0
C      1  0.4917880000000  0.5983660000000  0.4749820000000 1.0
C      1  0.4809420000000  0.5991300000000  0.5059070000000 1.0
C      1  0.5082120000000  0.5983670000000  0.5250170000000 1.0
C      1  0.5190580000000  0.5991300000000  0.4940920000000 1.0
C      1  0.4940910000000  0.3989220000000  0.4805900000000 1.0
C      1  0.4752560000000  0.3996980000000  0.5081700000000 1.0
C      1  0.5059090000000  0.3989230000000  0.5194110000000 1.0
C      1  0.5247440000000  0.3996980000000  0.4918310000000 1.0
C      1  0.4747730000000  0.4771760000000  0.4595650000000 1.0
C      1  0.4594060000000  0.4800940000000  0.5254670000000 1.0
C      1  0.5252270000000  0.4771770000000  0.5404350000000 1.0
C      1  0.5405940000000  0.4800930000000  0.4745330000000 1.0
C      1  0.4745370000000  0.5217320000000  0.4621280000000 1.0
C      1  0.4624290000000  0.5223710000000  0.5250530000000 1.0
C      1  0.5254630000000  0.5217330000000  0.5378720000000 1.0
C      1  0.5375710000000  0.5223710000000  0.4749470000000 1.0
C      1  0.5269620000000  0.4412960000000  0.4441930000000 1.0
C      1  0.4470760000000  0.4422250000000  0.4770720000000 1.0
C      1  0.4730380000000  0.4412960000000  0.5558080000000 1.0
C      1  0.5529230000000  0.4422250000000  0.5229280000000 1.0
C      1  0.5181580000000  0.5618450000000  0.4465890000000 1.0
C      1  0.4444780000000  0.5628000000000  0.4791410000000 1.0
C      1  0.4818430000000  0.5618460000000  0.5534100000000 1.0
C      1  0.5555220000000  0.5628000000000  0.5208590000000 1.0
C      1  0.4965410000000  0.5506930000000  0.4139250000000 1.0
C      1  0.4141010000000  0.5530920000000  0.5031400000000 1.0
C      1  0.5034590000000  0.5506930000000  0.5860740000000 1.0
C      1  0.5858990000000  0.5530910000000  0.4968590000000 1.0
C      1  0.5022230000000  0.4507800000000  0.4144860000000 1.0
C      1  0.4141040000000  0.4531370000000  0.4982620000000 1.0
C      1  0.4977770000000  0.4507810000000  0.5855150000000 1.0
C      1  0.5858960000000  0.4531370000000  0.5017390000000 1.0
C      1  0.4395230000000  0.4799130000000  0.4251290000000 1.0
C      1  0.4234160000000  0.4811230000000  0.5614880000000 1.0
C      1  0.5604770000000  0.4799130000000  0.5748710000000 1.0
C      1  0.5765840000000  0.4811220000000  0.4385120000000 1.0
C      1  0.4379490000000  0.5139150000000  0.4264990000000 1.0
C      1  0.4270540000000  0.5149370000000  0.5619780000000 1.0
C      1  0.5620510000000  0.5139160000000  0.5735010000000 1.0
C      1  0.5729460000000  0.5149360000000  0.4380220000000 1.0
C      1  0.4759780000000  0.5443010000000  0.4947140000000 1.0
C      1  0.4954920000000  0.5442570000000  0.5202880000000 1.0
C      1  0.5240230000000  0.5443010000000  0.5052850000000 1.0
C      1  0.5045080000000  0.5442570000000  0.4797120000000 1.0
C      1  0.4851090000000  0.4496900000000  0.4866900000000 1.0
C      1  0.4838990000000  0.4498000000000  0.5184800000000 1.0
C      1  0.5148900000000  0.4496900000000  0.5133100000000 1.0
C      1  0.5161010000000  0.4497990000000  0.4815210000000 1.0
C      1  0.4219700000000  0.6457330000000  0.5123880000000 1.0
C      1  0.4987560000000  0.6436780000000  0.5854030000000 1.0
C      1  0.5780300000000  0.6457320000000  0.4876110000000 1.0
C      1  0.5012440000000  0.6436770000000  0.4145960000000 1.0
C      1  0.4113480000000  0.3624400000000  0.4946180000000 1.0
C      1  0.5040320000000  0.3587040000000  0.5835090000000 1.0
C      1  0.5886510000000  0.3624390000000  0.5053830000000 1.0
C      1  0.4959670000000  0.3587030000000  0.4164920000000 1.0
C      1  0.5931540000000  0.5005680000000  0.4610690000000 1.0
C      1  0.4611620000000  0.4987300000000  0.4068320000000 1.0
C      1  0.4068460000000  0.5005690000000  0.5389310000000 1.0
C      1  0.5388380000000  0.4987310000000  0.5931680000000 1.0
END
