TITL C-2782231-7322-1221 0.00637629962874616 125000 -941.163440893655 0 0 160 (C1) n - 1
REM
REM in /home/nfs/bkarasulu/CARBON/AIRSS/Generating-Clusters/REBO/Higher-Symm/SD-CG/HFTN-CG
REM
REM
REM
REM
REM
REM ./C.cell (12c818d87b63d06a65506943cc24bca4)
REM
REM compiler GCC version 9.2.1 20190827 (Red Hat 9.2.1-1)
REM options -cpp -mtune=generic -march=x86-64 -g -O0 -fpre-include=/usr/include/finclude/math-vector-fortran.h
REM seed 1348069348 -1727078622 432523661 1583620438 -2048503632 -1513691490 958757543 937441850 -953713461 -216562807 298467229 1735714957 -2006183656 1568341389 2061483577 -712369232 -898676319 1455440511 1089604656 2030226517 1938623359 1066818156 2133592244 1598334760 974024524 -1361361609 801878141 349496309 1871483862 643255611 -1258367379 221929667 22139138
REM
CELL 1.54180   50.00000   50.00000   50.00000   90.00000   90.00000   90.00000
LATT -1
SFAC C  
C      1  0.5545480000000  0.5906490000000  0.5374050000000 1.0
C      1  0.4315520000000  0.5956620000000  0.5278690000000 1.0
C      1  0.4984340000000  0.5827900000000  0.4455840000000 1.0
C      1  0.5617800000000  0.4189560000000  0.5368060000000 1.0
C      1  0.4345900000000  0.4120040000000  0.5319220000000 1.0
C      1  0.4976990000000  0.4048090000000  0.4118870000000 1.0
C      1  0.5424780000000  0.5423140000000  0.6094840000000 1.0
C      1  0.3979490000000  0.5384520000000  0.4837830000000 1.0
C      1  0.5580290000000  0.5385680000000  0.4207130000000 1.0
C      1  0.5388090000000  0.4652600000000  0.5948460000000 1.0
C      1  0.3945750000000  0.4599900000000  0.4796830000000 1.0
C      1  0.5685360000000  0.4605710000000  0.4156430000000 1.0
C      1  0.5330290000000  0.5567640000000  0.4104160000000 1.0
C      1  0.5606760000000  0.5574150000000  0.5863510000000 1.0
C      1  0.4000480000000  0.5591400000000  0.5075420000000 1.0
C      1  0.5394090000000  0.4453420000000  0.4071230000000 1.0
C      1  0.5591570000000  0.4456120000000  0.5802890000000 1.0
C      1  0.4017370000000  0.4460730000000  0.5078180000000 1.0
C      1  0.4896120000000  0.4746460000000  0.6001580000000 1.0
C      1  0.4142060000000  0.4692160000000  0.4355810000000 1.0
C      1  0.5975320000000  0.4694980000000  0.4571520000000 1.0
C      1  0.4886000000000  0.5326940000000  0.6068790000000 1.0
C      1  0.4176870000000  0.5307070000000  0.4369520000000 1.0
C      1  0.5884900000000  0.5321970000000  0.4609060000000 1.0
C      1  0.4761640000000  0.5980250000000  0.4920740000000 1.0
C      1  0.5326380000000  0.5888700000000  0.4791910000000 1.0
C      1  0.5018110000000  0.5763960000000  0.5322050000000 1.0
C      1  0.4675990000000  0.4166710000000  0.4895900000000 1.0
C      1  0.5204590000000  0.4124160000000  0.4619050000000 1.0
C      1  0.5117630000000  0.4137270000000  0.5233400000000 1.0
C      1  0.4218290000000  0.5380030000000  0.5705210000000 1.0
C      1  0.4743230000000  0.5302860000000  0.3996480000000 1.0
C      1  0.6074260000000  0.5327350000000  0.5334610000000 1.0
C      1  0.4259360000000  0.4729710000000  0.5706450000000 1.0
C      1  0.4750500000000  0.4663350000000  0.3935890000000 1.0
C      1  0.5987240000000  0.4680990000000  0.5297540000000 1.0
C      1  0.5809860000000  0.4510270000000  0.4395880000000 1.0
C      1  0.5120000000000  0.4583970000000  0.5889580000000 1.0
C      1  0.4115980000000  0.4515900000000  0.4589810000000 1.0
C      1  0.5652360000000  0.5459210000000  0.4472680000000 1.0
C      1  0.5129570000000  0.5498810000000  0.6112260000000 1.0
C      1  0.4158530000000  0.5459430000000  0.4630280000000 1.0
C      1  0.5048900000000  0.4804940000000  0.5538490000000 1.0
C      1  0.4466010000000  0.4701660000000  0.4730240000000 1.0
C      1  0.5502010000000  0.4644530000000  0.4612830000000 1.0
C      1  0.5096350000000  0.5382890000000  0.5644700000000 1.0
C      1  0.4530640000000  0.5265770000000  0.4700570000000 1.0
C      1  0.5421960000000  0.5210810000000  0.4712670000000 1.0
C      1  0.6107490000000  0.5326320000000  0.4779870000000 1.0
C      1  0.4606560000000  0.5338040000000  0.6119560000000 1.0
C      1  0.4228230000000  0.5269780000000  0.4095620000000 1.0
C      1  0.6142950000000  0.4736940000000  0.4792520000000 1.0
C      1  0.4627440000000  0.4775130000000  0.6076350000000 1.0
C      1  0.4222970000000  0.4684280000000  0.4088850000000 1.0
C      1  0.5014560000000  0.6019620000000  0.4733320000000 1.0
C      1  0.5267810000000  0.5940780000000  0.5179210000000 1.0
C      1  0.4635130000000  0.6062470000000  0.5228260000000 1.0
C      1  0.4932180000000  0.4000780000000  0.4456490000000 1.0
C      1  0.5425490000000  0.4014450000000  0.5149370000000 1.0
C      1  0.4666070000000  0.4061740000000  0.5221950000000 1.0
C      1  0.4597190000000  0.4289760000000  0.5472140000000 1.0
C      1  0.4716900000000  0.4199860000000  0.4280680000000 1.0
C      1  0.5691710000000  0.4204880000000  0.5044770000000 1.0
C      1  0.4534800000000  0.5819040000000  0.5481450000000 1.0
C      1  0.4731070000000  0.5624890000000  0.4466510000000 1.0
C      1  0.5766000000000  0.5730860000000  0.5186080000000 1.0
C      1  0.4635300000000  0.5621640000000  0.5041810000000 1.0
C      1  0.5135540000000  0.5611310000000  0.4852610000000 1.0
C      1  0.5209720000000  0.5545760000000  0.5171610000000 1.0
C      1  0.4880500000000  0.4385760000000  0.5036280000000 1.0
C      1  0.4968130000000  0.4358100000000  0.4702410000000 1.0
C      1  0.5198050000000  0.4322110000000  0.4958590000000 1.0
C      1  0.4548010000000  0.5194130000000  0.5589500000000 1.0
C      1  0.4707650000000  0.5037450000000  0.4288770000000 1.0
C      1  0.5764010000000  0.5159320000000  0.5150990000000 1.0
C      1  0.4594470000000  0.4872790000000  0.5547640000000 1.0
C      1  0.4708700000000  0.4743700000000  0.4323610000000 1.0
C      1  0.5688080000000  0.4872940000000  0.5120950000000 1.0
C      1  0.5242630000000  0.3965510000000  0.4318840000000 1.0
C      1  0.5331250000000  0.4036410000000  0.5476370000000 1.0
C      1  0.4409150000000  0.3986780000000  0.5011220000000 1.0
C      1  0.5261170000000  0.6023350000000  0.4492620000000 1.0
C      1  0.5229950000000  0.5956330000000  0.5509500000000 1.0
C      1  0.4426570000000  0.6025480000000  0.4961210000000 1.0
C      1  0.5469030000000  0.4221210000000  0.4812910000000 1.0
C      1  0.4894870000000  0.4351480000000  0.5367690000000 1.0
C      1  0.4665230000000  0.4268110000000  0.4583600000000 1.0
C      1  0.5474860000000  0.5714190000000  0.5033820000000 1.0
C      1  0.4736260000000  0.5683840000000  0.5290660000000 1.0
C      1  0.4833940000000  0.5668830000000  0.4788690000000 1.0
C      1  0.4975150000000  0.4840200000000  0.3954740000000 1.0
C      1  0.5931950000000  0.4861870000000  0.5525060000000 1.0
C      1  0.4094260000000  0.4892550000000  0.5537580000000 1.0
C      1  0.4973340000000  0.5129840000000  0.3949520000000 1.0
C      1  0.5969600000000  0.5150460000000  0.5536550000000 1.0
C      1  0.4089240000000  0.5184260000000  0.5524430000000 1.0
C      1  0.4358480000000  0.5128530000000  0.4531170000000 1.0
C      1  0.5676820000000  0.5106160000000  0.4657570000000 1.0
C      1  0.4947370000000  0.5203040000000  0.5805460000000 1.0
C      1  0.4324070000000  0.4853480000000  0.4539600000000 1.0
C      1  0.5710170000000  0.4831360000000  0.4611200000000 1.0
C      1  0.4960540000000  0.4929950000000  0.5769900000000 1.0
C      1  0.5486870000000  0.4832130000000  0.4145320000000 1.0
C      1  0.5511880000000  0.4925660000000  0.5937530000000 1.0
C      1  0.3955440000000  0.4841690000000  0.4978060000000 1.0
C      1  0.5498890000000  0.5100530000000  0.4153660000000 1.0
C      1  0.5560250000000  0.5190540000000  0.5957490000000 1.0
C      1  0.3965050000000  0.5110600000000  0.4953160000000 1.0
C      1  0.5579940000000  0.4342350000000  0.4547560000000 1.0
C      1  0.5070510000000  0.4490940000000  0.5572070000000 1.0
C      1  0.4398810000000  0.4398470000000  0.4702410000000 1.0
C      1  0.5373640000000  0.5515720000000  0.4659040000000 1.0
C      1  0.5180910000000  0.5584150000000  0.5822370000000 1.0
C      1  0.4448270000000  0.5553880000000  0.4764420000000 1.0
C      1  0.5211780000000  0.5034540000000  0.4744890000000 1.0
C      1  0.5189920000000  0.5307900000000  0.5363210000000 1.0
C      1  0.4679630000000  0.5131570000000  0.4877910000000 1.0
C      1  0.5250040000000  0.4731970000000  0.4668960000000 1.0
C      1  0.5087410000000  0.4992420000000  0.5292290000000 1.0
C      1  0.4643970000000  0.4821160000000  0.4897420000000 1.0
C      1  0.6022390000000  0.4874640000000  0.5041430000000 1.0
C      1  0.4459570000000  0.4914010000000  0.5859670000000 1.0
C      1  0.4497240000000  0.4802750000000  0.4046440000000 1.0
C      1  0.6083760000000  0.5189050000000  0.5051650000000 1.0
C      1  0.4418010000000  0.5225290000000  0.5902810000000 1.0
C      1  0.4489560000000  0.5121330000000  0.4036850000000 1.0
C      1  0.5435740000000  0.4228130000000  0.4310980000000 1.0
C      1  0.5336720000000  0.4325560000000  0.5617520000000 1.0
C      1  0.4278550000000  0.4275670000000  0.4957440000000 1.0
C      1  0.5365910000000  0.5728000000000  0.4401160000000 1.0
C      1  0.5382030000000  0.5781550000000  0.5714590000000 1.0
C      1  0.4271300000000  0.5751260000000  0.4940960000000 1.0
C      1  0.4049360000000  0.4746870000000  0.5263540000000 1.0
C      1  0.5184380000000  0.4713900000000  0.4141390000000 1.0
C      1  0.5689360000000  0.4771450000000  0.5715320000000 1.0
C      1  0.4067820000000  0.5286450000000  0.5214970000000 1.0
C      1  0.5223520000000  0.5248270000000  0.4093800000000 1.0
C      1  0.5752960000000  0.5298890000000  0.5721850000000 1.0
C      1  0.5966450000000  0.5589630000000  0.5296250000000 1.0
C      1  0.4336630000000  0.5627040000000  0.5643440000000 1.0
C      1  0.4714610000000  0.5486300000000  0.4229240000000 1.0
C      1  0.5889630000000  0.4431440000000  0.5206090000000 1.0
C      1  0.4386510000000  0.4490160000000  0.5636400000000 1.0
C      1  0.4762440000000  0.4402950000000  0.4026860000000 1.0
C      1  0.5563910000000  0.4778990000000  0.5394330000000 1.0
C      1  0.4387670000000  0.4732870000000  0.5318910000000 1.0
C      1  0.4991580000000  0.4590140000000  0.4401090000000 1.0
C      1  0.5630440000000  0.5312430000000  0.5401690000000 1.0
C      1  0.4398620000000  0.5307030000000  0.5305190000000 1.0
C      1  0.4987950000000  0.5206420000000  0.4340310000000 1.0
C      1  0.5119030000000  0.4334410000000  0.4235230000000 1.0
C      1  0.5593280000000  0.4476640000000  0.5469910000000 1.0
C      1  0.4302300000000  0.4441740000000  0.5249670000000 1.0
C      1  0.5094890000000  0.5523760000000  0.4347430000000 1.0
C      1  0.5598150000000  0.5605900000000  0.5524630000000 1.0
C      1  0.4282260000000  0.5617630000000  0.5249260000000 1.0
C      1  0.5416190000000  0.5058030000000  0.5345890000000 1.0
C      1  0.5023870000000  0.4917740000000  0.4497810000000 1.0
C      1  0.4558170000000  0.5013540000000  0.5239270000000 1.0
C      1  0.4863450000000  0.4976350000000  0.5109720000000 1.0
END
