TITL C-2782234-8014-1031 -0.00125152961507555 125000 -839.13801847339 0 0 143 (C1) n - 1
REM
REM in /home/nfs/bkarasulu/CARBON/AIRSS/Generating-Clusters/REBO/Higher-Symm/SD-CG/HFTN-CG
REM
REM
REM
REM
REM
REM ./C.cell (12c818d87b63d06a65506943cc24bca4)
REM
REM compiler GCC version 9.2.1 20190827 (Red Hat 9.2.1-1)
REM options -cpp -mtune=generic -march=x86-64 -g -O0 -fpre-include=/usr/include/finclude/math-vector-fortran.h
REM seed 207759730 -553173585 -422592650 -2075999425 470161734 1475888510 1666949865 1977750446 -1234292183 1967371186 -301843284 2069756665 922146761 -1732664675 -300994886 1891586587 -1668938927 -1073194316 494690737 -1397627839 506244906 -2117602043 -2078448719 -1220433751 747059142 142926750 1063524364 -1153440752 -890978236 459692311 -1272817896 2027361601 -759363313
REM
CELL 1.54180   50.00000   50.00000   50.00000   90.00000   90.00000   90.00000
LATT -1
SFAC C  
C      1  0.4532060000000  0.4271880000000  0.4781180000000 1.0
C      1  0.4854080000000  0.4249690000000  0.5428680000000 1.0
C      1  0.5436300000000  0.4201210000000  0.5209820000000 1.0
C      1  0.5197870000000  0.4104640000000  0.4410090000000 1.0
C      1  0.4517480000000  0.5755710000000  0.4782800000000 1.0
C      1  0.4807060000000  0.5747640000000  0.5465490000000 1.0
C      1  0.5343960000000  0.5786940000000  0.5177190000000 1.0
C      1  0.5199250000000  0.5834740000000  0.4420730000000 1.0
C      1  0.4863650000000  0.5809540000000  0.4456100000000 1.0
C      1  0.4478150000000  0.5774080000000  0.5096850000000 1.0
C      1  0.5131240000000  0.5801980000000  0.5513790000000 1.0
C      1  0.5442300000000  0.5740580000000  0.4867790000000 1.0
C      1  0.4878920000000  0.4157770000000  0.4503140000000 1.0
C      1  0.4496020000000  0.4300530000000  0.5095230000000 1.0
C      1  0.5170480000000  0.4224110000000  0.5506830000000 1.0
C      1  0.5471030000000  0.4127690000000  0.4878120000000 1.0
C      1  0.5879860000000  0.5149990000000  0.5723070000000 1.0
C      1  0.5769390000000  0.5101050000000  0.4312260000000 1.0
C      1  0.4121380000000  0.5157560000000  0.4167460000000 1.0
C      1  0.4329500000000  0.5156670000000  0.5912580000000 1.0
C      1  0.5895430000000  0.4866900000000  0.5741500000000 1.0
C      1  0.5776220000000  0.4825270000000  0.4289970000000 1.0
C      1  0.4142100000000  0.4874180000000  0.4162690000000 1.0
C      1  0.4297260000000  0.4875950000000  0.5894990000000 1.0
C      1  0.4160380000000  0.5162320000000  0.4765350000000 1.0
C      1  0.4887110000000  0.5099120000000  0.5881600000000 1.0
C      1  0.5877170000000  0.5102080000000  0.5168710000000 1.0
C      1  0.5218820000000  0.5128520000000  0.4204770000000 1.0
C      1  0.4164900000000  0.4848850000000  0.4748250000000 1.0
C      1  0.4856540000000  0.4801760000000  0.5865400000000 1.0
C      1  0.5856350000000  0.4787260000000  0.5172380000000 1.0
C      1  0.5220890000000  0.4813290000000  0.4190830000000 1.0
C      1  0.5092760000000  0.5988590000000  0.4973130000000 1.0
C      1  0.4975470000000  0.6051460000000  0.4671560000000 1.0
C      1  0.4806470000000  0.6233720000000  0.4850410000000 1.0
C      1  0.4843560000000  0.6127060000000  0.5136870000000 1.0
C      1  0.5235230000000  0.3890620000000  0.4915290000000 1.0
C      1  0.4950260000000  0.3969590000000  0.4782920000000 1.0
C      1  0.4779330000000  0.3889020000000  0.5059110000000 1.0
C      1  0.5047800000000  0.3755250000000  0.5104430000000 1.0
C      1  0.5570460000000  0.5209830000000  0.5120150000000 1.0
C      1  0.5102750000000  0.5231170000000  0.4505980000000 1.0
C      1  0.4477220000000  0.5220470000000  0.4868660000000 1.0
C      1  0.4915120000000  0.5212290000000  0.5562700000000 1.0
C      1  0.5532710000000  0.4745110000000  0.5111170000000 1.0
C      1  0.5124230000000  0.4736490000000  0.4489290000000 1.0
C      1  0.4480990000000  0.4767350000000  0.4843690000000 1.0
C      1  0.4910440000000  0.4737660000000  0.5534590000000 1.0
C      1  0.5419630000000  0.4657400000000  0.4863780000000 1.0
C      1  0.4864560000000  0.4675070000000  0.4578460000000 1.0
C      1  0.4676430000000  0.4752580000000  0.5089040000000 1.0
C      1  0.5144960000000  0.4668880000000  0.5385860000000 1.0
C      1  0.5080540000000  0.5177150000000  0.4980600000000 1.0
C      1  0.4848750000000  0.5332180000000  0.4583330000000 1.0
C      1  0.4615770000000  0.5283860000000  0.5157990000000 1.0
C      1  0.5137430000000  0.5294270000000  0.5397350000000 1.0
C      1  0.5233690000000  0.5474690000000  0.4908430000000 1.0
C      1  0.4809670000000  0.5608570000000  0.4717970000000 1.0
C      1  0.4716720000000  0.5569400000000  0.5198420000000 1.0
C      1  0.5109310000000  0.5569860000000  0.5274780000000 1.0
C      1  0.5296140000000  0.4403660000000  0.4853340000000 1.0
C      1  0.4826630000000  0.4408240000000  0.4714840000000 1.0
C      1  0.4779560000000  0.4452530000000  0.5165480000000 1.0
C      1  0.5168830000000  0.4396340000000  0.5231560000000 1.0
C      1  0.5765580000000  0.5656460000000  0.4895350000000 1.0
C      1  0.4826080000000  0.5541920000000  0.4245350000000 1.0
C      1  0.4284100000000  0.5529380000000  0.5199700000000 1.0
C      1  0.5224440000000  0.5603500000000  0.5748110000000 1.0
C      1  0.5738130000000  0.4324770000000  0.4802700000000 1.0
C      1  0.4825250000000  0.4416030000000  0.4277850000000 1.0
C      1  0.4268650000000  0.4497770000000  0.5171460000000 1.0
C      1  0.5209340000000  0.4433950000000  0.5739580000000 1.0
C      1  0.5815110000000  0.4474930000000  0.5036890000000 1.0
C      1  0.5084520000000  0.4501240000000  0.4170300000000 1.0
C      1  0.4147840000000  0.4566280000000  0.4919650000000 1.0
C      1  0.4945440000000  0.4488890000000  0.5843100000000 1.0
C      1  0.5896090000000  0.5437670000000  0.5113240000000 1.0
C      1  0.5091230000000  0.5442890000000  0.4168920000000 1.0
C      1  0.4159140000000  0.5441250000000  0.4953230000000 1.0
C      1  0.5074310000000  0.5351000000000  0.5898220000000 1.0
C      1  0.4103060000000  0.5242590000000  0.4439900000000 1.0
C      1  0.4599250000000  0.5241520000000  0.5876340000000 1.0
C      1  0.5843940000000  0.5248200000000  0.5458620000000 1.0
C      1  0.5526460000000  0.5227170000000  0.4241400000000 1.0
C      1  0.4120830000000  0.4770370000000  0.4426420000000 1.0
C      1  0.4539150000000  0.4731990000000  0.5869430000000 1.0
C      1  0.5888470000000  0.4733300000000  0.5491050000000 1.0
C      1  0.5531940000000  0.4701640000000  0.4210170000000 1.0
C      1  0.4169890000000  0.5307180000000  0.5723630000000 1.0
C      1  0.5674590000000  0.5272430000000  0.5886410000000 1.0
C      1  0.5899210000000  0.5264810000000  0.4509830000000 1.0
C      1  0.4347610000000  0.5297390000000  0.4051410000000 1.0
C      1  0.4122460000000  0.4783300000000  0.5683280000000 1.0
C      1  0.5685710000000  0.4746980000000  0.5903180000000 1.0
C      1  0.5923100000000  0.4638770000000  0.4454860000000 1.0
C      1  0.4381600000000  0.4759190000000  0.4045360000000 1.0
C      1  0.5428050000000  0.4649620000000  0.5710700000000 1.0
C      1  0.5751580000000  0.4409680000000  0.4528040000000 1.0
C      1  0.4600830000000  0.4646640000000  0.4279080000000 1.0
C      1  0.4300100000000  0.4669500000000  0.5420730000000 1.0
C      1  0.5401260000000  0.5329700000000  0.5702310000000 1.0
C      1  0.5689840000000  0.5474880000000  0.4633620000000 1.0
C      1  0.4595140000000  0.5324550000000  0.4274150000000 1.0
C      1  0.4341320000000  0.5349430000000  0.5440750000000 1.0
C      1  0.4669740000000  0.4861550000000  0.4641640000000 1.0
C      1  0.4701440000000  0.4851750000000  0.5382210000000 1.0
C      1  0.5344040000000  0.4849440000000  0.5304530000000 1.0
C      1  0.5302040000000  0.4842960000000  0.4687660000000 1.0
C      1  0.4662260000000  0.5143670000000  0.4661110000000 1.0
C      1  0.4685880000000  0.5125390000000  0.5418160000000 1.0
C      1  0.5354480000000  0.5134520000000  0.5302060000000 1.0
C      1  0.5232960000000  0.5113500000000  0.4730310000000 1.0
C      1  0.5349610000000  0.5915580000000  0.4633650000000 1.0
C      1  0.4557640000000  0.5949900000000  0.4512060000000 1.0
C      1  0.4668630000000  0.5956580000000  0.5275830000000 1.0
C      1  0.5312840000000  0.6017100000000  0.5390760000000 1.0
C      1  0.5396170000000  0.4003820000000  0.4568750000000 1.0
C      1  0.4565080000000  0.4030210000000  0.4548010000000 1.0
C      1  0.4667050000000  0.4077210000000  0.5234090000000 1.0
C      1  0.5375030000000  0.3973010000000  0.5445890000000 1.0
C      1  0.4338380000000  0.4581530000000  0.4466140000000 1.0
C      1  0.4510810000000  0.4542040000000  0.5653310000000 1.0
C      1  0.5659640000000  0.4552570000000  0.5493980000000 1.0
C      1  0.5535050000000  0.4429550000000  0.4313380000000 1.0
C      1  0.4346780000000  0.5398810000000  0.4494240000000 1.0
C      1  0.4595070000000  0.5437170000000  0.5650290000000 1.0
C      1  0.5613530000000  0.5424340000000  0.5454550000000 1.0
C      1  0.5522150000000  0.5484760000000  0.4362240000000 1.0
C      1  0.4309770000000  0.5550880000000  0.4718720000000 1.0
C      1  0.4882930000000  0.5574890000000  0.5725950000000 1.0
C      1  0.5619450000000  0.5619120000000  0.5203910000000 1.0
C      1  0.5295860000000  0.5621260000000  0.4272070000000 1.0
C      1  0.4302940000000  0.4441080000000  0.4696900000000 1.0
C      1  0.4735180000000  0.4373980000000  0.5672930000000 1.0
C      1  0.5662250000000  0.4386150000000  0.5274710000000 1.0
C      1  0.5286250000000  0.4311360000000  0.4245760000000 1.0
C      1  0.5515780000000  0.5349030000000  0.4885100000000 1.0
C      1  0.4303730000000  0.5011190000000  0.5409110000000 1.0
C      1  0.5379390000000  0.4988170000000  0.5709760000000 1.0
C      1  0.4641860000000  0.4986250000000  0.4263020000000 1.0
C      1  0.5005170000000  0.4390940000000  0.4953350000000 1.0
C      1  0.4946840000000  0.5589360000000  0.4982740000000 1.0
C      1  0.4839480000000  0.5050980000000  0.5059220000000 1.0
END
