TITL C-2782235-7892-850 -0.0104531681065198 125000 -1058.51007444876 0 0 182 (C1) n - 1
REM
REM in /home/nfs/bkarasulu/CARBON/AIRSS/Generating-Clusters/REBO/Higher-Symm/SD-CG/HFTN-CG
REM
REM
REM
REM
REM
REM ./C.cell (12c818d87b63d06a65506943cc24bca4)
REM
REM compiler GCC version 9.2.1 20190827 (Red Hat 9.2.1-1)
REM options -cpp -mtune=generic -march=x86-64 -g -O0 -fpre-include=/usr/include/finclude/math-vector-fortran.h
REM seed 859790628 -1652014801 -1974985538 -1703019302 968310275 4611870 -1278465014 -654047267 171839048 -1514242231 -191105560 62423752 -2136188383 -923268719 1456408247 -482550840 -1611584840 759656062 -683312462 -778372066 186347213 -1294649401 1533914049 1880332506 1268250136 -1225683801 1874083411 19140725 -9970275 377377243 -922650554 -1343355275 1388311430
REM
CELL 1.54180   50.00000   50.00000   50.00000   90.00000   90.00000   90.00000
LATT -1
SFAC C  
C      1  0.4304290000000  0.4248220000000  0.4717840000000 1.0
C      1  0.4208930000000  0.4633690000000  0.4364710000000 1.0
C      1  0.4383960000000  0.5349850000000  0.5287200000000 1.0
C      1  0.4893670000000  0.5730110000000  0.4387100000000 1.0
C      1  0.5558450000000  0.4250850000000  0.4395060000000 1.0
C      1  0.4638450000000  0.5833870000000  0.4494650000000 1.0
C      1  0.5076860000000  0.4542790000000  0.4367420000000 1.0
C      1  0.4114410000000  0.5427700000000  0.5104250000000 1.0
C      1  0.3945670000000  0.5359880000000  0.4577230000000 1.0
C      1  0.4345370000000  0.4688750000000  0.4734060000000 1.0
C      1  0.5805240000000  0.5575850000000  0.4844730000000 1.0
C      1  0.4917910000000  0.5191000000000  0.5621690000000 1.0
C      1  0.4077480000000  0.5717450000000  0.4983050000000 1.0
C      1  0.5891010000000  0.5379240000000  0.5518060000000 1.0
C      1  0.4953750000000  0.4213720000000  0.4338130000000 1.0
C      1  0.4380700000000  0.5100250000000  0.5519610000000 1.0
C      1  0.5780610000000  0.4595090000000  0.5639850000000 1.0
C      1  0.4604870000000  0.5366460000000  0.4125900000000 1.0
C      1  0.4343790000000  0.5438600000000  0.4878570000000 1.0
C      1  0.4010650000000  0.5113190000000  0.5321530000000 1.0
C      1  0.5283960000000  0.5035960000000  0.5639830000000 1.0
C      1  0.4600620000000  0.4531530000000  0.4076490000000 1.0
C      1  0.5162740000000  0.4393610000000  0.4626570000000 1.0
C      1  0.4540380000000  0.4050260000000  0.4788580000000 1.0
C      1  0.5247080000000  0.4587440000000  0.6066850000000 1.0
C      1  0.4110030000000  0.4929640000000  0.4783070000000 1.0
C      1  0.4165610000000  0.4913380000000  0.4456610000000 1.0
C      1  0.4975680000000  0.5108620000000  0.4615100000000 1.0
C      1  0.5879830000000  0.4880480000000  0.5636430000000 1.0
C      1  0.6071100000000  0.4933400000000  0.5420170000000 1.0
C      1  0.5770600000000  0.5870620000000  0.4951170000000 1.0
C      1  0.5602840000000  0.5276810000000  0.5906430000000 1.0
C      1  0.4892230000000  0.3780360000000  0.5044880000000 1.0
C      1  0.4802840000000  0.4150990000000  0.5540730000000 1.0
C      1  0.5395720000000  0.5163160000000  0.4710850000000 1.0
C      1  0.5041960000000  0.4016580000000  0.4602610000000 1.0
C      1  0.5698630000000  0.5813790000000  0.5280720000000 1.0
C      1  0.5432710000000  0.5561700000000  0.5821220000000 1.0
C      1  0.5615320000000  0.4205360000000  0.4836930000000 1.0
C      1  0.5557060000000  0.4126020000000  0.5347910000000 1.0
C      1  0.5106690000000  0.5509350000000  0.5928700000000 1.0
C      1  0.4783870000000  0.5394640000000  0.5933990000000 1.0
C      1  0.4598760000000  0.5527200000000  0.5724430000000 1.0
C      1  0.4060910000000  0.5330710000000  0.5528800000000 1.0
C      1  0.5222570000000  0.5911910000000  0.5234300000000 1.0
C      1  0.4191050000000  0.5449760000000  0.4610320000000 1.0
C      1  0.5407740000000  0.5460320000000  0.4331620000000 1.0
C      1  0.5140620000000  0.5265070000000  0.4372510000000 1.0
C      1  0.4764280000000  0.5707540000000  0.5007020000000 1.0
C      1  0.6140780000000  0.5104190000000  0.4930100000000 1.0
C      1  0.5166340000000  0.5877020000000  0.4445690000000 1.0
C      1  0.4651690000000  0.4734210000000  0.5921440000000 1.0
C      1  0.4524190000000  0.4808400000000  0.4049010000000 1.0
C      1  0.4225610000000  0.4649580000000  0.5206220000000 1.0
C      1  0.4920870000000  0.4503890000000  0.4067520000000 1.0
C      1  0.5070050000000  0.5720290000000  0.5698660000000 1.0
C      1  0.4594790000000  0.4679020000000  0.4564950000000 1.0
C      1  0.5119180000000  0.5181290000000  0.5895720000000 1.0
C      1  0.4498580000000  0.5034560000000  0.5072150000000 1.0
C      1  0.4346620000000  0.5402160000000  0.4245610000000 1.0
C      1  0.4809860000000  0.5619310000000  0.5528350000000 1.0
C      1  0.5282320000000  0.3961910000000  0.5358900000000 1.0
C      1  0.4743080000000  0.5061730000000  0.5895480000000 1.0
C      1  0.5540770000000  0.5785020000000  0.5584270000000 1.0
C      1  0.4472420000000  0.4240800000000  0.5530030000000 1.0
C      1  0.5092480000000  0.4051910000000  0.5573370000000 1.0
C      1  0.5771390000000  0.5278920000000  0.5116290000000 1.0
C      1  0.5797550000000  0.5162180000000  0.5732330000000 1.0
C      1  0.5302280000000  0.5976430000000  0.5499300000000 1.0
C      1  0.4637840000000  0.3948610000000  0.5098760000000 1.0
C      1  0.5452180000000  0.4645590000000  0.5929730000000 1.0
C      1  0.4010540000000  0.4469540000000  0.5482000000000 1.0
C      1  0.5464580000000  0.4951790000000  0.4933570000000 1.0
C      1  0.4404360000000  0.6058430000000  0.4840610000000 1.0
C      1  0.5629130000000  0.4372400000000  0.5574390000000 1.0
C      1  0.4884050000000  0.4521150000000  0.5029970000000 1.0
C      1  0.5814070000000  0.4676220000000  0.5108530000000 1.0
C      1  0.5751060000000  0.5057740000000  0.4858840000000 1.0
C      1  0.5421390000000  0.5770730000000  0.5108370000000 1.0
C      1  0.4564900000000  0.5665110000000  0.4763010000000 1.0
C      1  0.4973000000000  0.4660190000000  0.5440450000000 1.0
C      1  0.5551840000000  0.4503540000000  0.4704480000000 1.0
C      1  0.4702930000000  0.4384370000000  0.4596750000000 1.0
C      1  0.4446110000000  0.4541430000000  0.4992960000000 1.0
C      1  0.5059430000000  0.6046970000000  0.5668140000000 1.0
C      1  0.5408910000000  0.5106160000000  0.6013100000000 1.0
C      1  0.4567220000000  0.4278070000000  0.5040650000000 1.0
C      1  0.4166510000000  0.4260950000000  0.5025030000000 1.0
C      1  0.4711010000000  0.4950570000000  0.3849180000000 1.0
C      1  0.4654850000000  0.4998920000000  0.5580580000000 1.0
C      1  0.5610910000000  0.4587600000000  0.4380210000000 1.0
C      1  0.5601280000000  0.5476540000000  0.5469790000000 1.0
C      1  0.5351190000000  0.5316100000000  0.5599930000000 1.0
C      1  0.5447780000000  0.5315530000000  0.5213470000000 1.0
C      1  0.5262230000000  0.4344180000000  0.5025460000000 1.0
C      1  0.4829950000000  0.4747490000000  0.4783100000000 1.0
C      1  0.4530290000000  0.4760050000000  0.5212660000000 1.0
C      1  0.3913360000000  0.4652020000000  0.5142700000000 1.0
C      1  0.5348960000000  0.4683330000000  0.4832650000000 1.0
C      1  0.5072990000000  0.5673300000000  0.4930270000000 1.0
C      1  0.5778460000000  0.5159520000000  0.4533610000000 1.0
C      1  0.4950300000000  0.4572300000000  0.5942010000000 1.0
C      1  0.5124490000000  0.4392030000000  0.5320960000000 1.0
C      1  0.4833860000000  0.5938600000000  0.5466340000000 1.0
C      1  0.4634110000000  0.5002970000000  0.4792910000000 1.0
C      1  0.3935910000000  0.4800130000000  0.5434830000000 1.0
C      1  0.5241090000000  0.4935940000000  0.4069320000000 1.0
C      1  0.4778760000000  0.4424790000000  0.5705490000000 1.0
C      1  0.4224070000000  0.4268910000000  0.5327210000000 1.0
C      1  0.5417810000000  0.4759460000000  0.5625390000000 1.0
C      1  0.4630780000000  0.5410900000000  0.5059310000000 1.0
C      1  0.4840870000000  0.5588060000000  0.4131130000000 1.0
C      1  0.4622580000000  0.4292490000000  0.4298870000000 1.0
C      1  0.4921360000000  0.6046490000000  0.4866920000000 1.0
C      1  0.5345490000000  0.4163080000000  0.4548370000000 1.0
C      1  0.5118510000000  0.4730870000000  0.5056340000000 1.0
C      1  0.4337630000000  0.5684550000000  0.4434860000000 1.0
C      1  0.4195310000000  0.5102770000000  0.5036100000000 1.0
C      1  0.5211860000000  0.5934590000000  0.4758140000000 1.0
C      1  0.4121640000000  0.4918250000000  0.5649280000000 1.0
C      1  0.6028110000000  0.4860470000000  0.5139130000000 1.0
C      1  0.4225840000000  0.5973820000000  0.5079870000000 1.0
C      1  0.5821410000000  0.4543150000000  0.4862580000000 1.0
C      1  0.5673830000000  0.4898190000000  0.4337450000000 1.0
C      1  0.4802330000000  0.4313070000000  0.5261630000000 1.0
C      1  0.5189600000000  0.4097040000000  0.4903560000000 1.0
C      1  0.5405750000000  0.5746010000000  0.4353120000000 1.0
C      1  0.5021220000000  0.5043810000000  0.5121720000000 1.0
C      1  0.5518640000000  0.4984560000000  0.4050030000000 1.0
C      1  0.5661990000000  0.5338600000000  0.4304920000000 1.0
C      1  0.4921970000000  0.4836080000000  0.4090030000000 1.0
C      1  0.5111900000000  0.4806370000000  0.4665460000000 1.0
C      1  0.4331830000000  0.4379400000000  0.4458740000000 1.0
C      1  0.4669170000000  0.6049010000000  0.4730820000000 1.0
C      1  0.4207970000000  0.5834590000000  0.4709380000000 1.0
C      1  0.5304290000000  0.4304620000000  0.5597030000000 1.0
C      1  0.5829510000000  0.5400070000000  0.4091790000000 1.0
C      1  0.4906060000000  0.5375320000000  0.5344480000000 1.0
C      1  0.5153270000000  0.3894640000000  0.5108610000000 1.0
C      1  0.4376500000000  0.4908930000000  0.5875760000000 1.0
C      1  0.5551570000000  0.5960880000000  0.4765820000000 1.0
C      1  0.5323350000000  0.5427970000000  0.4739970000000 1.0
C      1  0.5151280000000  0.4565760000000  0.5679640000000 1.0
C      1  0.5990730000000  0.5342820000000  0.4729400000000 1.0
C      1  0.4731550000000  0.5097720000000  0.5281900000000 1.0
C      1  0.3827330000000  0.4778570000000  0.4849460000000 1.0
C      1  0.5220990000000  0.5581810000000  0.5461990000000 1.0
C      1  0.5621430000000  0.5882940000000  0.4487650000000 1.0
C      1  0.4208970000000  0.5199530000000  0.5809050000000 1.0
C      1  0.5205840000000  0.4811590000000  0.4366570000000 1.0
C      1  0.4465820000000  0.4486000000000  0.5773960000000 1.0
C      1  0.5173000000000  0.4286810000000  0.4083620000000 1.0
C      1  0.5903010000000  0.5577760000000  0.5232100000000 1.0
C      1  0.5157900000000  0.5474880000000  0.5155140000000 1.0
C      1  0.5987450000000  0.5458030000000  0.3890840000000 1.0
C      1  0.5493490000000  0.5588540000000  0.4898650000000 1.0
C      1  0.4189530000000  0.5171260000000  0.4323270000000 1.0
C      1  0.5114470000000  0.4923190000000  0.5401250000000 1.0
C      1  0.4816940000000  0.4888570000000  0.4409980000000 1.0
C      1  0.5402360000000  0.5059100000000  0.4424350000000 1.0
C      1  0.5562020000000  0.4712100000000  0.5326310000000 1.0
C      1  0.4932970000000  0.5291460000000  0.4149610000000 1.0
C      1  0.6059620000000  0.5222860000000  0.5300770000000 1.0
C      1  0.4920470000000  0.4359180000000  0.4768320000000 1.0
C      1  0.6023210000000  0.4642170000000  0.4694810000000 1.0
C      1  0.6130880000000  0.5423400000000  0.5031990000000 1.0
C      1  0.4586270000000  0.5401490000000  0.4563820000000 1.0
C      1  0.4355010000000  0.5491520000000  0.5588250000000 1.0
C      1  0.5438680000000  0.4397520000000  0.4148800000000 1.0
C      1  0.4664240000000  0.4635180000000  0.5463630000000 1.0
C      1  0.4322790000000  0.4606060000000  0.5515210000000 1.0
C      1  0.4919080000000  0.5953170000000  0.5170020000000 1.0
C      1  0.5060650000000  0.5544820000000  0.4619420000000 1.0
C      1  0.4527140000000  0.4963380000000  0.4293750000000 1.0
C      1  0.4850480000000  0.5207480000000  0.4916300000000 1.0
C      1  0.5668280000000  0.4094040000000  0.5050430000000 1.0
C      1  0.4809240000000  0.3874250000000  0.4752260000000 1.0
C      1  0.6024310000000  0.4910720000000  0.4706190000000 1.0
C      1  0.5399340000000  0.4991860000000  0.5238990000000 1.0
C      1  0.4070070000000  0.4538700000000  0.4857110000000 1.0
C      1  0.5503290000000  0.4424980000000  0.5201990000000 1.0
C      1  0.4533610000000  0.5135210000000  0.4543690000000 1.0
END
