TITL C-2782227-3064-254 -0.000286216107255394 125000 -252.327466664032 0 0 42 (D7) n - 1
REM
REM in /home/nfs/bkarasulu/CARBON/AIRSS/Generating-Clusters/REBO/Higher-Symm/SD-CG/HFTN-CG
REM
REM
REM
REM
REM
REM ./C.cell (12c818d87b63d06a65506943cc24bca4)
REM
REM compiler GCC version 9.2.1 20190827 (Red Hat 9.2.1-1)
REM options -cpp -mtune=generic -march=x86-64 -g -O0 -fpre-include=/usr/include/finclude/math-vector-fortran.h
REM seed 972144036 -1455436362 -1633862990 -277104596 -965686088 -573289974 1021234829 -1866263502 -2011969382 1489287597 1439323093 1709228609 -325337575 -837158253 -1802474737 -1764950849 -1287491153 1865997885 1387842295 -1695564759 2006049054 183345905 1294771489 474447778 1898899866 -879091895 -1455634513 1915449609 1790482919 -23276024 -810772960 -355077004 -757821389
REM
CELL 1.54180   50.00000   50.00000   50.00000   90.00000   90.00000   90.00000
LATT -1
SFAC C  
C      1  0.5303080000000  0.5670810000000  0.5166040000000 1.0
C      1  0.5318780000000  0.5670810000000  0.4866580000000 1.0
C      1  0.5094450000000  0.5670820000000  0.4667590000000 1.0
C      1  0.4799000000000  0.5670820000000  0.4718920000000 1.0
C      1  0.4654920000000  0.5670820000000  0.4981910000000 1.0
C      1  0.4770710000000  0.5670820000000  0.5258520000000 1.0
C      1  0.5059160000000  0.5670810000000  0.5340470000000 1.0
C      1  0.5175770000000  0.4651490000000  0.4649580000000 1.0
C      1  0.4835620000000  0.4651500000000  0.4644080000000 1.0
C      1  0.4619240000000  0.4651500000000  0.4906600000000 1.0
C      1  0.4689580000000  0.4651500000000  0.5239450000000 1.0
C      1  0.4993660000000  0.4651490000000  0.5391980000000 1.0
C      1  0.5302510000000  0.4651480000000  0.5249350000000 1.0
C      1  0.5383560000000  0.4651480000000  0.4918950000000 1.0
C      1  0.4778630000000  0.4329190000000  0.4734630000000 1.0
C      1  0.4654510000000  0.4329190000000  0.5007610000000 1.0
C      1  0.4790530000000  0.4329190000000  0.5274850000000 1.0
C      1  0.5084280000000  0.4329180000000  0.5335120000000 1.0
C      1  0.5314550000000  0.4329180000000  0.5143040000000 1.0
C      1  0.5307950000000  0.4329180000000  0.4843240000000 1.0
C      1  0.5069440000000  0.4329190000000  0.4661480000000 1.0
C      1  0.5380940000000  0.5348500000000  0.5092660000000 1.0
C      1  0.5309960000000  0.5348500000000  0.4759950000000 1.0
C      1  0.5005580000000  0.5348510000000  0.4608000000000 1.0
C      1  0.4697000000000  0.5348520000000  0.4751240000000 1.0
C      1  0.4616600000000  0.5348520000000  0.5081800000000 1.0
C      1  0.4824910000000  0.5348510000000  0.5350760000000 1.0
C      1  0.5165070000000  0.5348500000000  0.5355600000000 1.0
C      1  0.5241970000000  0.4925890000000  0.4516460000000 1.0
C      1  0.4772820000000  0.4925900000000  0.4509330000000 1.0
C      1  0.4474730000000  0.4925910000000  0.4871690000000 1.0
C      1  0.4572190000000  0.4925900000000  0.5330670000000 1.0
C      1  0.4991790000000  0.4925890000000  0.5540650000000 1.0
C      1  0.5417570000000  0.4925880000000  0.5343510000000 1.0
C      1  0.5528920000000  0.4925890000000  0.4887700000000 1.0
C      1  0.5427810000000  0.5074100000000  0.4669330000000 1.0
C      1  0.5008210000000  0.5074110000000  0.4459350000000 1.0
C      1  0.4582420000000  0.5074120000000  0.4656500000000 1.0
C      1  0.4471080000000  0.5074110000000  0.5112300000000 1.0
C      1  0.4758030000000  0.5074110000000  0.5483550000000 1.0
C      1  0.5227180000000  0.5074100000000  0.5490670000000 1.0
C      1  0.5525270000000  0.5074090000000  0.5128310000000 1.0
END
