TITL C-2782228-2999-682 -0.000807493141991867 125000 -470.551580401966 0 0 84 (C3) n - 1
REM
REM in /home/nfs/bkarasulu/CARBON/AIRSS/Generating-Clusters/REBO/Higher-Symm/SD-CG/HFTN-CG
REM
REM
REM
REM
REM
REM ./C.cell (12c818d87b63d06a65506943cc24bca4)
REM
REM compiler GCC version 9.2.1 20190827 (Red Hat 9.2.1-1)
REM options -cpp -mtune=generic -march=x86-64 -g -O0 -fpre-include=/usr/include/finclude/math-vector-fortran.h
REM seed 972356679 923863344 1319993503 377508554 2014643697 -883918990 570864995 166046457 -612950264 -463315511 -1495971906 -599938329 -1188444485 79764598 285565028 -2026566399 369325912 -1641929437 -470564859 -594753228 961943674 1374239714 952615492 -1092826410 -1482803486 921314289 -1806371394 1927242377 -1408679795 -1733737441 1455091120 -901522833 -1390519356
REM
CELL 1.54180   50.00000   50.00000   50.00000   90.00000   90.00000   90.00000
LATT -1
SFAC C  
C      1  0.5130860000000  0.4791310000000  0.5761100000000 1.0
C      1  0.4734850000000  0.5848800000000  0.5172380000000 1.0
C      1  0.5802880000000  0.5134290000000  0.4762730000000 1.0
C      1  0.4827380000000  0.5265270000000  0.5848710000000 1.0
C      1  0.5177400000000  0.5245140000000  0.4177150000000 1.0
C      1  0.4865760000000  0.4762550000000  0.4197170000000 1.0
C      1  0.5237310000000  0.4197170000000  0.5134470000000 1.0
C      1  0.4754750000000  0.4177150000000  0.4822790000000 1.0
C      1  0.5208820000000  0.5761030000000  0.4868970000000 1.0
C      1  0.4238970000000  0.4869030000000  0.4791140000000 1.0
C      1  0.5822800000000  0.4822730000000  0.5245380000000 1.0
C      1  0.4151200000000  0.5172580000000  0.5265020000000 1.0
C      1  0.5190200000000  0.4760560000000  0.4152390000000 1.0
C      1  0.4729270000000  0.5806830000000  0.4844360000000 1.0
C      1  0.5816920000000  0.5146800000000  0.5245880000000 1.0
C      1  0.4853320000000  0.5245700000000  0.4183000000000 1.0
C      1  0.5155410000000  0.5270870000000  0.5806830000000 1.0
C      1  0.4814520000000  0.4776790000000  0.5821230000000 1.0
C      1  0.5239330000000  0.4152310000000  0.4810040000000 1.0
C      1  0.4754160000000  0.4183070000000  0.5146860000000 1.0
C      1  0.5223320000000  0.5821250000000  0.5185290000000 1.0
C      1  0.4193120000000  0.4844550000000  0.5270690000000 1.0
C      1  0.5847690000000  0.4809850000000  0.4760810000000 1.0
C      1  0.4178800000000  0.5185360000000  0.4776550000000 1.0
C      1  0.5240080000000  0.5170600000000  0.4523110000000 1.0
C      1  0.5160940000000  0.4547720000000  0.5149730000000 1.0
C      1  0.4472960000000  0.5115750000000  0.5184950000000 1.0
C      1  0.4850400000000  0.4838980000000  0.4547710000000 1.0
C      1  0.5164640000000  0.4915900000000  0.5439540000000 1.0
C      1  0.4884220000000  0.5185110000000  0.5526980000000 1.0
C      1  0.4814960000000  0.5527040000000  0.5115620000000 1.0
C      1  0.5084190000000  0.5439490000000  0.4835260000000 1.0
C      1  0.4829350000000  0.4523070000000  0.4760030000000 1.0
C      1  0.5476880000000  0.4760000000000  0.5170760000000 1.0
C      1  0.4560490000000  0.4835310000000  0.4915810000000 1.0
C      1  0.5452320000000  0.5149620000000  0.4839070000000 1.0
C      1  0.5188590000000  0.5247500000000  0.5449570000000 1.0
C      1  0.5141650000000  0.4471900000000  0.4839080000000 1.0
C      1  0.4509730000000  0.5161090000000  0.4869680000000 1.0
C      1  0.4838840000000  0.4869840000000  0.5490290000000 1.0
C      1  0.5161070000000  0.4858280000000  0.4471970000000 1.0
C      1  0.4910640000000  0.5165650000000  0.4507880000000 1.0
C      1  0.4752590000000  0.5449560000000  0.4811270000000 1.0
C      1  0.5130220000000  0.5490310000000  0.5161050000000 1.0
C      1  0.4834270000000  0.4507920000000  0.5089470000000 1.0
C      1  0.5528090000000  0.4838960000000  0.4858450000000 1.0
C      1  0.4550390000000  0.4811400000000  0.5247410000000 1.0
C      1  0.5492070000000  0.5089430000000  0.5165760000000 1.0
C      1  0.4648190000000  0.4618830000000  0.5585020000000 1.0
C      1  0.4566120000000  0.5649150000000  0.4608960000000 1.0
C      1  0.5608370000000  0.4626700000000  0.4620270000000 1.0
C      1  0.5390830000000  0.5434020000000  0.5649180000000 1.0
C      1  0.4677110000000  0.5386410000000  0.4423620000000 1.0
C      1  0.5373310000000  0.4620060000000  0.4391770000000 1.0
C      1  0.5379890000000  0.4391610000000  0.4626890000000 1.0
C      1  0.4613470000000  0.4423760000000  0.5323000000000 1.0
C      1  0.5381220000000  0.5585050000000  0.5351700000000 1.0
C      1  0.4415050000000  0.5351690000000  0.4618630000000 1.0
C      1  0.5576250000000  0.5323010000000  0.5386510000000 1.0
C      1  0.4350750000000  0.4609170000000  0.5433920000000 1.0
C      1  0.4665700000000  0.4604750000000  0.4404340000000 1.0
C      1  0.4600710000000  0.5604360000000  0.5353030000000 1.0
C      1  0.5649110000000  0.4609480000000  0.5422420000000 1.0
C      1  0.5390650000000  0.5422190000000  0.4350820000000 1.0
C      1  0.4646770000000  0.5399350000000  0.5604200000000 1.0
C      1  0.5340010000000  0.4656640000000  0.5546830000000 1.0
C      1  0.5395130000000  0.4404370000000  0.5334490000000 1.0
C      1  0.4577750000000  0.4350790000000  0.4609470000000 1.0
C      1  0.5343480000000  0.5546690000000  0.4659880000000 1.0
C      1  0.4395660000000  0.5353220000000  0.5399140000000 1.0
C      1  0.5595730000000  0.5334300000000  0.4604850000000 1.0
C      1  0.4453300000000  0.4659880000000  0.4656550000000 1.0
C      1  0.5270870000000  0.5013280000000  0.4024760000000 1.0
C      1  0.4736570000000  0.5014250000000  0.5975270000000 1.0
C      1  0.5241210000000  0.5014000000000  0.5917810000000 1.0
C      1  0.4756710000000  0.4998290000000  0.4060820000000 1.0
C      1  0.4986600000000  0.4024690000000  0.4729380000000 1.0
C      1  0.4082210000000  0.4758690000000  0.5013800000000 1.0
C      1  0.4986170000000  0.5917750000000  0.4758550000000 1.0
C      1  0.4985880000000  0.5975340000000  0.5263180000000 1.0
C      1  0.5001540000000  0.4060890000000  0.5243530000000 1.0
C      1  0.5939150000000  0.5243390000000  0.4998500000000 1.0
C      1  0.4024700000000  0.5263330000000  0.5013950000000 1.0
C      1  0.5975270000000  0.4729240000000  0.5013580000000 1.0
END
