TITL C-2782229-3092-1494 -0.00169274272541967 125000 -511.061520180627 0 0 88 (C1) n - 1
REM
REM in /home/nfs/bkarasulu/CARBON/AIRSS/Generating-Clusters/REBO/Higher-Symm/SD-CG/HFTN-CG
REM
REM
REM
REM
REM
REM ./C.cell (12c818d87b63d06a65506943cc24bca4)
REM
REM compiler GCC version 9.2.1 20190827 (Red Hat 9.2.1-1)
REM options -cpp -mtune=generic -march=x86-64 -g -O0 -fpre-include=/usr/include/finclude/math-vector-fortran.h
REM seed 1947729371 1358911386 829988913 1713772949 -754350943 1850007097 1799966870 -65071302 -1095161658 -72115342 -2032880918 -1665259571 -507368530 -264545660 508868532 5687097 34979019 -863956210 -1686897585 1619273183 -1080939002 -1787322938 -1750536645 350643812 -63577089 1658213947 -2031800690 1675144087 1918574023 -1590200079 -1280769474 1554379338 -1604516381
REM
CELL 1.54180   50.00000   50.00000   50.00000   90.00000   90.00000   90.00000
LATT -1
SFAC C  
C      1  0.4658180000000  0.5335510000000  0.4432310000000 1.0
C      1  0.4706850000000  0.4635040000000  0.5501460000000 1.0
C      1  0.5343160000000  0.4623520000000  0.4440960000000 1.0
C      1  0.5341720000000  0.5339340000000  0.5572190000000 1.0
C      1  0.4730390000000  0.4390960000000  0.5278320000000 1.0
C      1  0.4761120000000  0.5545480000000  0.4662950000000 1.0
C      1  0.5224990000000  0.4430300000000  0.4670850000000 1.0
C      1  0.5236830000000  0.5526430000000  0.5327150000000 1.0
C      1  0.4952040000000  0.4198960000000  0.5620060000000 1.0
C      1  0.4966840000000  0.5796380000000  0.4429430000000 1.0
C      1  0.5011330000000  0.5804450000000  0.5638100000000 1.0
C      1  0.5037620000000  0.4197690000000  0.4405080000000 1.0
C      1  0.4975470000000  0.5574780000000  0.4257500000000 1.0
C      1  0.4970210000000  0.4391360000000  0.5820150000000 1.0
C      1  0.5034680000000  0.5589940000000  0.5815850000000 1.0
C      1  0.5044590000000  0.4402370000000  0.4216260000000 1.0
C      1  0.5125740000000  0.5153370000000  0.5404610000000 1.0
C      1  0.5076220000000  0.4784890000000  0.4561230000000 1.0
C      1  0.5012660000000  0.4772620000000  0.5446680000000 1.0
C      1  0.4931280000000  0.5199280000000  0.4557320000000 1.0
C      1  0.4965580000000  0.5390520000000  0.5216520000000 1.0
C      1  0.4948620000000  0.4566850000000  0.4774340000000 1.0
C      1  0.5040900000000  0.5427880000000  0.4765030000000 1.0
C      1  0.4922440000000  0.4621040000000  0.5166800000000 1.0
C      1  0.5386920000000  0.5402910000000  0.4425020000000 1.0
C      1  0.5294350000000  0.4661610000000  0.5531960000000 1.0
C      1  0.4624680000000  0.4553570000000  0.4372150000000 1.0
C      1  0.4640300000000  0.5419600000000  0.5626690000000 1.0
C      1  0.5349220000000  0.4368990000000  0.5424900000000 1.0
C      1  0.5308390000000  0.5554010000000  0.4662510000000 1.0
C      1  0.4680220000000  0.4449450000000  0.4668450000000 1.0
C      1  0.4715430000000  0.5530230000000  0.5338330000000 1.0
C      1  0.4867370000000  0.5810370000000  0.5097080000000 1.0
C      1  0.4842320000000  0.4189640000000  0.4936680000000 1.0
C      1  0.5066730000000  0.4211770000000  0.5106110000000 1.0
C      1  0.5116850000000  0.5843710000000  0.4962510000000 1.0
C      1  0.4909920000000  0.5077670000000  0.5762240000000 1.0
C      1  0.4885690000000  0.4905190000000  0.4231750000000 1.0
C      1  0.5123320000000  0.5060260000000  0.4235120000000 1.0
C      1  0.5145880000000  0.4925580000000  0.5791540000000 1.0
C      1  0.4647240000000  0.5641040000000  0.4960920000000 1.0
C      1  0.4552390000000  0.4300480000000  0.5015340000000 1.0
C      1  0.5305980000000  0.4359560000000  0.4983240000000 1.0
C      1  0.5381370000000  0.5713480000000  0.5113280000000 1.0
C      1  0.4678470000000  0.4961180000000  0.5595360000000 1.0
C      1  0.4631830000000  0.5006690000000  0.4376100000000 1.0
C      1  0.5387910000000  0.4930810000000  0.4344500000000 1.0
C      1  0.5406210000000  0.5023390000000  0.5656210000000 1.0
C      1  0.5115790000000  0.4631100000000  0.5805750000000 1.0
C      1  0.5153480000000  0.5348240000000  0.4259960000000 1.0
C      1  0.4868850000000  0.5358400000000  0.5785130000000 1.0
C      1  0.4859580000000  0.4620160000000  0.4223430000000 1.0
C      1  0.5120590000000  0.5807480000000  0.4672170000000 1.0
C      1  0.5114450000000  0.4210840000000  0.5385940000000 1.0
C      1  0.4871050000000  0.5804160000000  0.5393160000000 1.0
C      1  0.4887450000000  0.4194680000000  0.4643050000000 1.0
C      1  0.5516430000000  0.4851590000000  0.5381500000000 1.0
C      1  0.5546610000000  0.5173480000000  0.4488550000000 1.0
C      1  0.4508560000000  0.5200020000000  0.5420820000000 1.0
C      1  0.4472020000000  0.4774330000000  0.4568880000000 1.0
C      1  0.5511280000000  0.5539700000000  0.4881200000000 1.0
C      1  0.5476610000000  0.4571140000000  0.5189870000000 1.0
C      1  0.4481810000000  0.5406830000000  0.5147930000000 1.0
C      1  0.4432670000000  0.4569430000000  0.4842450000000 1.0
C      1  0.5617870000000  0.4809630000000  0.4991930000000 1.0
C      1  0.5737980000000  0.5326210000000  0.4993380000000 1.0
C      1  0.4284420000000  0.5243860000000  0.4944890000000 1.0
C      1  0.4261530000000  0.4745720000000  0.5057740000000 1.0
C      1  0.5688410000000  0.5068350000000  0.4779900000000 1.0
C      1  0.5684620000000  0.5072150000000  0.5190180000000 1.0
C      1  0.4311560000000  0.5044430000000  0.5200230000000 1.0
C      1  0.4291220000000  0.4940960000000  0.4798410000000 1.0
C      1  0.5112180000000  0.4807310000000  0.4955840000000 1.0
C      1  0.5358130000000  0.5242610000000  0.4919790000000 1.0
C      1  0.4898440000000  0.5183270000000  0.4954200000000 1.0
C      1  0.4717440000000  0.4832180000000  0.4999900000000 1.0
C      1  0.5195230000000  0.5052130000000  0.4720640000000 1.0
C      1  0.5240250000000  0.5054110000000  0.5114810000000 1.0
C      1  0.4866460000000  0.5006570000000  0.5245760000000 1.0
C      1  0.4815230000000  0.4939650000000  0.4724780000000 1.0
C      1  0.4451530000000  0.5450240000000  0.4753180000000 1.0
C      1  0.4417650000000  0.4519770000000  0.5238960000000 1.0
C      1  0.5512070000000  0.4556940000000  0.4795740000000 1.0
C      1  0.5565170000000  0.5453010000000  0.5262050000000 1.0
C      1  0.4432640000000  0.4810610000000  0.5410690000000 1.0
C      1  0.4400320000000  0.5165650000000  0.4572900000000 1.0
C      1  0.5594210000000  0.4799510000000  0.4593200000000 1.0
C      1  0.5639800000000  0.5213360000000  0.5491970000000 1.0
END
