TITL C-2782230-7391-11 -0.00159485367827276 125000 -599.040838760612 0 0 103 (C1) n - 1
REM
REM in /home/nfs/bkarasulu/CARBON/AIRSS/Generating-Clusters/REBO/Higher-Symm/SD-CG/HFTN-CG
REM
REM
REM
REM
REM
REM ./C.cell (12c818d87b63d06a65506943cc24bca4)
REM
REM compiler GCC version 9.2.1 20190827 (Red Hat 9.2.1-1)
REM options -cpp -mtune=generic -march=x86-64 -g -O0 -fpre-include=/usr/include/finclude/math-vector-fortran.h
REM seed -1321776000 -1976828455 1097862088 690492728 -498451749 566996775 1068014458 523158770 -621156484 1842419538 -2082423022 1754398241 -884436968 141561225 -1237534143 -543843306 1852813112 125686343 797282327 -1953230489 -417997931 -991590678 1748000602 -896863756 1909252136 390111471 -241049581 1635197742 -1119517787 432089140 -326405828 -1916763168 569180471
REM
CELL 1.54180   50.00000   50.00000   50.00000   90.00000   90.00000   90.00000
LATT -1
SFAC C  
C      1  0.4314610000000  0.4865570000000  0.5641490000000 1.0
C      1  0.5430710000000  0.4730710000000  0.5802280000000 1.0
C      1  0.5999790000000  0.4846470000000  0.4991420000000 1.0
C      1  0.5260130000000  0.4889670000000  0.4049270000000 1.0
C      1  0.4218510000000  0.4896310000000  0.4495880000000 1.0
C      1  0.5563380000000  0.5367710000000  0.5362730000000 1.0
C      1  0.5602010000000  0.5402390000000  0.4618030000000 1.0
C      1  0.4760960000000  0.5410780000000  0.4309810000000 1.0
C      1  0.4226200000000  0.5450350000000  0.4980110000000 1.0
C      1  0.4756850000000  0.5471400000000  0.5734600000000 1.0
C      1  0.4396840000000  0.5708390000000  0.4729650000000 1.0
C      1  0.4466710000000  0.5749880000000  0.5532740000000 1.0
C      1  0.5315110000000  0.5599400000000  0.5570210000000 1.0
C      1  0.5633190000000  0.5629200000000  0.4943820000000 1.0
C      1  0.5082240000000  0.5646910000000  0.4326650000000 1.0
C      1  0.4576780000000  0.4782560000000  0.4838150000000 1.0
C      1  0.4750790000000  0.4752810000000  0.5388300000000 1.0
C      1  0.5305500000000  0.4702030000000  0.5410150000000 1.0
C      1  0.5527220000000  0.4737380000000  0.4838580000000 1.0
C      1  0.5029190000000  0.4761080000000  0.4493690000000 1.0
C      1  0.5221670000000  0.4957160000000  0.5092160000000 1.0
C      1  0.5364550000000  0.5034280000000  0.4564850000000 1.0
C      1  0.4892590000000  0.5125650000000  0.4759070000000 1.0
C      1  0.4559280000000  0.5038030000000  0.5187460000000 1.0
C      1  0.4992260000000  0.5068750000000  0.5416350000000 1.0
C      1  0.5120710000000  0.4994460000000  0.4294100000000 1.0
C      1  0.4358690000000  0.5004080000000  0.4723000000000 1.0
C      1  0.4573430000000  0.4989060000000  0.5549060000000 1.0
C      1  0.5284070000000  0.4992480000000  0.5481190000000 1.0
C      1  0.5769690000000  0.4955110000000  0.4858160000000 1.0
C      1  0.5316950000000  0.4313560000000  0.4654020000000 1.0
C      1  0.4776950000000  0.4327170000000  0.4626380000000 1.0
C      1  0.4562350000000  0.4331470000000  0.5096800000000 1.0
C      1  0.4967140000000  0.4317350000000  0.5443730000000 1.0
C      1  0.5434230000000  0.4285880000000  0.5182280000000 1.0
C      1  0.4799730000000  0.4325920000000  0.4344380000000 1.0
C      1  0.4316910000000  0.4364610000000  0.4945030000000 1.0
C      1  0.4815230000000  0.4373510000000  0.5680530000000 1.0
C      1  0.5554340000000  0.4276210000000  0.5431030000000 1.0
C      1  0.5590780000000  0.4332480000000  0.4567980000000 1.0
C      1  0.4571070000000  0.5236210000000  0.4425220000000 1.0
C      1  0.4094880000000  0.5297220000000  0.5165910000000 1.0
C      1  0.4977980000000  0.5353980000000  0.5850110000000 1.0
C      1  0.5696220000000  0.5176710000000  0.5195640000000 1.0
C      1  0.5592670000000  0.5295930000000  0.4366760000000 1.0
C      1  0.4610540000000  0.5554170000000  0.4661740000000 1.0
C      1  0.4357010000000  0.5607920000000  0.5323340000000 1.0
C      1  0.5042900000000  0.5560530000000  0.5472140000000 1.0
C      1  0.5433300000000  0.5387810000000  0.4985080000000 1.0
C      1  0.5233220000000  0.5498040000000  0.4496760000000 1.0
C      1  0.4872520000000  0.5840020000000  0.4752140000000 1.0
C      1  0.4692280000000  0.5838410000000  0.4990400000000 1.0
C      1  0.4873130000000  0.5820380000000  0.5222150000000 1.0
C      1  0.5141890000000  0.5779370000000  0.5124700000000 1.0
C      1  0.5146390000000  0.5802590000000  0.4839890000000 1.0
C      1  0.5362720000000  0.5603020000000  0.5236200000000 1.0
C      1  0.5399760000000  0.5665320000000  0.4701920000000 1.0
C      1  0.4800270000000  0.5709690000000  0.4453090000000 1.0
C      1  0.4366630000000  0.5755010000000  0.5045180000000 1.0
C      1  0.4786980000000  0.5749090000000  0.5540140000000 1.0
C      1  0.4284440000000  0.4638200000000  0.4865200000000 1.0
C      1  0.4725800000000  0.4647520000000  0.5690370000000 1.0
C      1  0.5556780000000  0.4557700000000  0.5564960000000 1.0
C      1  0.5703260000000  0.4592270000000  0.4614340000000 1.0
C      1  0.4857440000000  0.4589670000000  0.4263900000000 1.0
C      1  0.5547970000000  0.4927280000000  0.5189130000000 1.0
C      1  0.5630070000000  0.4987320000000  0.4319820000000 1.0
C      1  0.4708190000000  0.5002350000000  0.4531060000000 1.0
C      1  0.4217190000000  0.5008400000000  0.5197570000000 1.0
C      1  0.5007060000000  0.5053530000000  0.5759650000000 1.0
C      1  0.5436730000000  0.5204400000000  0.5562990000000 1.0
C      1  0.5747920000000  0.5231870000000  0.4794150000000 1.0
C      1  0.4981700000000  0.5263810000000  0.4231870000000 1.0
C      1  0.4343090000000  0.5281150000000  0.4782730000000 1.0
C      1  0.4587160000000  0.5275140000000  0.5652220000000 1.0
C      1  0.4982970000000  0.4108500000000  0.5250490000000 1.0
C      1  0.5236000000000  0.4101150000000  0.5094030000000 1.0
C      1  0.5170250000000  0.4116770000000  0.4807850000000 1.0
C      1  0.4876890000000  0.4122310000000  0.4791220000000 1.0
C      1  0.4761570000000  0.4122670000000  0.5059100000000 1.0
C      1  0.5374890000000  0.5129060000000  0.4891910000000 1.0
C      1  0.5139970000000  0.5249290000000  0.4597890000000 1.0
C      1  0.4733760000000  0.5379790000000  0.4850980000000 1.0
C      1  0.4473650000000  0.5354120000000  0.5278500000000 1.0
C      1  0.4961450000000  0.5352830000000  0.5302950000000 1.0
C      1  0.5263120000000  0.4898680000000  0.5868560000000 1.0
C      1  0.5959470000000  0.4705540000000  0.5227980000000 1.0
C      1  0.5513620000000  0.4897300000000  0.4056310000000 1.0
C      1  0.4373730000000  0.4760790000000  0.4308860000000 1.0
C      1  0.4129730000000  0.4883650000000  0.5470080000000 1.0
C      1  0.4783210000000  0.4853530000000  0.5861420000000 1.0
C      1  0.5696070000000  0.4723490000000  0.5329960000000 1.0
C      1  0.5809760000000  0.4773180000000  0.4438920000000 1.0
C      1  0.4654870000000  0.4785480000000  0.4354900000000 1.0
C      1  0.4109150000000  0.4816120000000  0.4975210000000 1.0
C      1  0.4653310000000  0.4614180000000  0.5121730000000 1.0
C      1  0.5024010000000  0.4592300000000  0.5303910000000 1.0
C      1  0.5363630000000  0.4585250000000  0.5094160000000 1.0
C      1  0.5232520000000  0.4614960000000  0.4718630000000 1.0
C      1  0.4834790000000  0.4622360000000  0.4739220000000 1.0
C      1  0.4886070000000  0.5024070000000  0.5088040000000 1.0
C      1  0.5040910000000  0.4594170000000  0.4987650000000 1.0
C      1  0.4736450000000  0.5391950000000  0.5134130000000 1.0
END
