TITL C-2782235-7892-79 0.000167945447182355 125000 -197.493117322011 0 0 36 (C1) n - 1
REM
REM in /home/nfs/bkarasulu/CARBON/AIRSS/Generating-Clusters/REBO/Higher-Symm/SD-CG/HFTN-CG
REM
REM
REM
REM
REM
REM ./C.cell (12c818d87b63d06a65506943cc24bca4)
REM
REM compiler GCC version 9.2.1 20190827 (Red Hat 9.2.1-1)
REM options -cpp -mtune=generic -march=x86-64 -g -O0 -fpre-include=/usr/include/finclude/math-vector-fortran.h
REM seed -615163535 703387598 1379203500 471008323 -2055080231 1361893783 -1618664230 -812352063 -192499005 1258911713 1529549680 -957943268 -2127411413 1237607631 -806019746 1646501597 462434240 371933841 -778797847 1709877866 -1085758842 -1709946060 1641556332 1469075099 1444242532 -1101233578 266579646 -30133170 1467007400 969806478 881830613 -919088841 -769330101
REM
CELL 1.54180   50.00000   50.00000   50.00000   90.00000   90.00000   90.00000
LATT -1
SFAC C  
C      1  0.4929750000000  0.4897680000000  0.4390480000000 1.0
C      1  0.4875190000000  0.5224230000000  0.4470330000000 1.0
C      1  0.4855960000000  0.5445560000000  0.4728670000000 1.0
C      1  0.4862400000000  0.5493270000000  0.5065910000000 1.0
C      1  0.4875340000000  0.5339250000000  0.5370040000000 1.0
C      1  0.4875110000000  0.5032420000000  0.5519500000000 1.0
C      1  0.4861520000000  0.4700410000000  0.5443030000000 1.0
C      1  0.4854550000000  0.4483700000000  0.5180660000000 1.0
C      1  0.4889720000000  0.4495690000000  0.4844580000000 1.0
C      1  0.5155370000000  0.4375870000000  0.5118450000000 1.0
C      1  0.5142630000000  0.4461120000000  0.4728130000000 1.0
C      1  0.5183070000000  0.4777430000000  0.4372240000000 1.0
C      1  0.5183240000000  0.5206350000000  0.4368910000000 1.0
C      1  0.5160670000000  0.5530490000000  0.4657710000000 1.0
C      1  0.5162960000000  0.5607840000000  0.5087620000000 1.0
C      1  0.5175340000000  0.5410320000000  0.5460210000000 1.0
C      1  0.5176700000000  0.5018300000000  0.5630040000000 1.0
C      1  0.5164430000000  0.4600940000000  0.5496780000000 1.0
C      1  0.5372380000000  0.5352970000000  0.4763690000000 1.0
C      1  0.5377020000000  0.5406230000000  0.5048090000000 1.0
C      1  0.5386700000000  0.5269300000000  0.5305120000000 1.0
C      1  0.5383550000000  0.5001240000000  0.5418150000000 1.0
C      1  0.5370390000000  0.4726880000000  0.5326320000000 1.0
C      1  0.5361740000000  0.4582010000000  0.5076030000000 1.0
C      1  0.5368530000000  0.4646690000000  0.4786890000000 1.0
C      1  0.5381370000000  0.4842250000000  0.4580240000000 1.0
C      1  0.5381990000000  0.5133170000000  0.4575340000000 1.0
C      1  0.4587690000000  0.5166060000000  0.4636060000000 1.0
C      1  0.4551390000000  0.5360740000000  0.4855300000000 1.0
C      1  0.4548580000000  0.5393690000000  0.5148660000000 1.0
C      1  0.4553980000000  0.5233730000000  0.5396700000000 1.0
C      1  0.4549920000000  0.4946830000000  0.5468310000000 1.0
C      1  0.4543830000000  0.4690560000000  0.5318450000000 1.0
C      1  0.4558140000000  0.4590350000000  0.5038180000000 1.0
C      1  0.4652480000000  0.4669320000000  0.4752080000000 1.0
C      1  0.4686360000000  0.4887100000000  0.4573100000000 1.0
END
