TITL C-2782225-7408-37 -0.00681745985671936 125000 -1180.46599304883 0 0 200 (C1) n - 1
REM
REM in /home/nfs/bkarasulu/CARBON/AIRSS/Generating-Clusters/REBO/Higher-Symm/SD-CG/HFTN-CG
REM
REM
REM
REM
REM
REM ./C.cell (12c818d87b63d06a65506943cc24bca4)
REM
REM compiler GCC version 9.2.1 20190827 (Red Hat 9.2.1-1)
REM options -cpp -mtune=generic -march=x86-64 -g -O0 -fpre-include=/usr/include/finclude/math-vector-fortran.h
REM seed 2020901692 306347802 -646658494 -803698619 -338612639 -1728653836 -1067175655 -296639109 -1111635368 -1831298663 -855113189 -787519856 853488194 539384428 -105395173 -1671497136 -787548905 1155076505 1293294266 -1384570570 2069762107 680563798 -1207630673 -852721890 721256670 -685183210 -1771397961 -590217314 -86507283 804406797 1819460935 -1986565836 -1898616728
REM
CELL 1.54180   50.00000   50.00000   50.00000   90.00000   90.00000   90.00000
LATT -1
SFAC C  
C      1  0.4007520000000  0.5221780000000  0.4283010000000 1.0
C      1  0.4005440000000  0.5694640000000  0.4749790000000 1.0
C      1  0.3998030000000  0.5637010000000  0.5398970000000 1.0
C      1  0.4000350000000  0.5058390000000  0.5755120000000 1.0
C      1  0.3996290000000  0.4442670000000  0.5540790000000 1.0
C      1  0.3992140000000  0.4220260000000  0.4928190000000 1.0
C      1  0.3997550000000  0.4562260000000  0.4366010000000 1.0
C      1  0.4566530000000  0.5877810000000  0.4170880000000 1.0
C      1  0.4608420000000  0.6148150000000  0.5209040000000 1.0
C      1  0.4603800000000  0.5570970000000  0.5893420000000 1.0
C      1  0.4606090000000  0.4808630000000  0.6246550000000 1.0
C      1  0.4650630000000  0.3829830000000  0.5433930000000 1.0
C      1  0.4596000000000  0.3951640000000  0.4293580000000 1.0
C      1  0.4586470000000  0.4990240000000  0.3978020000000 1.0
C      1  0.4973230000000  0.4527670000000  0.5495810000000 1.0
C      1  0.4955030000000  0.4316150000000  0.4949370000000 1.0
C      1  0.4973570000000  0.4632710000000  0.4459270000000 1.0
C      1  0.4953920000000  0.5157580000000  0.4412450000000 1.0
C      1  0.4986850000000  0.5599650000000  0.4729140000000 1.0
C      1  0.4977180000000  0.5565480000000  0.5318470000000 1.0
C      1  0.4995860000000  0.5103590000000  0.5646670000000 1.0
C      1  0.6173040000000  0.4720510000000  0.4706300000000 1.0
C      1  0.6246540000000  0.5045710000000  0.4674270000000 1.0
C      1  0.6173570000000  0.5304610000000  0.4875240000000 1.0
C      1  0.6191720000000  0.5243320000000  0.5207560000000 1.0
C      1  0.6178760000000  0.4959580000000  0.5365080000000 1.0
C      1  0.6186850000000  0.4687120000000  0.5242680000000 1.0
C      1  0.6158530000000  0.4588560000000  0.4951530000000 1.0
C      1  0.3858060000000  0.5309920000000  0.5071580000000 1.0
C      1  0.3844650000000  0.5132160000000  0.5304450000000 1.0
C      1  0.3835000000000  0.4838630000000  0.5311480000000 1.0
C      1  0.3846020000000  0.4653010000000  0.5086430000000 1.0
C      1  0.3862250000000  0.4714190000000  0.4802900000000 1.0
C      1  0.3868690000000  0.4971810000000  0.4670540000000 1.0
C      1  0.3866190000000  0.5235740000000  0.4790640000000 1.0
C      1  0.4543360000000  0.4778400000000  0.4313040000000 1.0
C      1  0.4539520000000  0.5397060000000  0.4402790000000 1.0
C      1  0.4552060000000  0.5707270000000  0.4943380000000 1.0
C      1  0.4522100000000  0.5467720000000  0.5516550000000 1.0
C      1  0.4540110000000  0.4886740000000  0.5697570000000 1.0
C      1  0.4539470000000  0.4358710000000  0.5348090000000 1.0
C      1  0.4539430000000  0.4319700000000  0.4720500000000 1.0
C      1  0.5879440000000  0.4507290000000  0.5071580000000 1.0
C      1  0.5954260000000  0.4824620000000  0.4523290000000 1.0
C      1  0.5945510000000  0.5165260000000  0.4564230000000 1.0
C      1  0.5883170000000  0.5406800000000  0.4803130000000 1.0
C      1  0.5879040000000  0.5345360000000  0.5142150000000 1.0
C      1  0.5861440000000  0.5075100000000  0.5356200000000 1.0
C      1  0.5855870000000  0.4730170000000  0.5333350000000 1.0
C      1  0.4230260000000  0.5377170000000  0.4446000000000 1.0
C      1  0.4239540000000  0.5663910000000  0.4963280000000 1.0
C      1  0.4208500000000  0.5434060000000  0.5517030000000 1.0
C      1  0.4234280000000  0.4865060000000  0.5657180000000 1.0
C      1  0.4231850000000  0.4384510000000  0.5330610000000 1.0
C      1  0.4221710000000  0.4339670000000  0.4744370000000 1.0
C      1  0.4226160000000  0.4779510000000  0.4336180000000 1.0
C      1  0.5787170000000  0.4672100000000  0.4339340000000 1.0
C      1  0.5807650000000  0.5293270000000  0.4305310000000 1.0
C      1  0.5763820000000  0.5691560000000  0.4752410000000 1.0
C      1  0.5767420000000  0.5595030000000  0.5328780000000 1.0
C      1  0.5727590000000  0.5098960000000  0.5664190000000 1.0
C      1  0.5705310000000  0.4508610000000  0.5529440000000 1.0
C      1  0.5757440000000  0.4273460000000  0.4941720000000 1.0
C      1  0.5548490000000  0.5188480000000  0.4785740000000 1.0
C      1  0.5385520000000  0.5337580000000  0.4993700000000 1.0
C      1  0.5344700000000  0.5175970000000  0.5250430000000 1.0
C      1  0.5388970000000  0.4887770000000  0.5274980000000 1.0
C      1  0.5438790000000  0.4684350000000  0.5086190000000 1.0
C      1  0.5474020000000  0.4711240000000  0.4818620000000 1.0
C      1  0.5388210000000  0.4961380000000  0.4674180000000 1.0
C      1  0.5063720000000  0.4610160000000  0.4968770000000 1.0
C      1  0.5095430000000  0.4784660000000  0.4718290000000 1.0
C      1  0.4989650000000  0.5084050000000  0.4713190000000 1.0
C      1  0.5103790000000  0.5342500000000  0.4857590000000 1.0
C      1  0.5039800000000  0.5282810000000  0.5185670000000 1.0
C      1  0.5038750000000  0.4952690000000  0.5378350000000 1.0
C      1  0.5057950000000  0.4672980000000  0.5222840000000 1.0
C      1  0.3963130000000  0.4500150000000  0.4632800000000 1.0
C      1  0.3967630000000  0.4972460000000  0.4395130000000 1.0
C      1  0.3966420000000  0.5452410000000  0.4622490000000 1.0
C      1  0.3961410000000  0.5580570000000  0.5130510000000 1.0
C      1  0.3946660000000  0.5243450000000  0.5556590000000 1.0
C      1  0.3950380000000  0.4716390000000  0.5555030000000 1.0
C      1  0.3954770000000  0.4386170000000  0.5147220000000 1.0
C      1  0.4668280000000  0.4578670000000  0.4537640000000 1.0
C      1  0.4657300000000  0.5094940000000  0.4370350000000 1.0
C      1  0.4682750000000  0.5537040000000  0.4679550000000 1.0
C      1  0.4677350000000  0.5588500000000  0.5237580000000 1.0
C      1  0.4683690000000  0.5192010000000  0.5634650000000 1.0
C      1  0.4663340000000  0.4619170000000  0.5526570000000 1.0
C      1  0.4652960000000  0.4324870000000  0.5029320000000 1.0
C      1  0.4717770000000  0.4855620000000  0.5317680000000 1.0
C      1  0.4692590000000  0.4720540000000  0.5068070000000 1.0
C      1  0.4573560000000  0.4704880000000  0.4821130000000 1.0
C      1  0.4583820000000  0.4980560000000  0.4655310000000 1.0
C      1  0.4587570000000  0.5261620000000  0.4808890000000 1.0
C      1  0.4574310000000  0.5316610000000  0.5118420000000 1.0
C      1  0.4560520000000  0.5105690000000  0.5351010000000 1.0
C      1  0.4880660000000  0.6108860000000  0.4710040000000 1.0
C      1  0.4900480000000  0.5967180000000  0.5576550000000 1.0
C      1  0.4913060000000  0.5231980000000  0.6034400000000 1.0
C      1  0.4818590000000  0.4213770000000  0.5791820000000 1.0
C      1  0.4896890000000  0.3870530000000  0.4732760000000 1.0
C      1  0.4874510000000  0.4406920000000  0.4056460000000 1.0
C      1  0.4913730000000  0.5521170000000  0.4009830000000 1.0
C      1  0.5008150000000  0.5537600000000  0.5951120000000 1.0
C      1  0.4975430000000  0.4441810000000  0.5937930000000 1.0
C      1  0.5028720000000  0.3918970000000  0.5042800000000 1.0
C      1  0.5071890000000  0.4207130000000  0.4246880000000 1.0
C      1  0.5054420000000  0.5216230000000  0.3950480000000 1.0
C      1  0.5024230000000  0.5941690000000  0.4448860000000 1.0
C      1  0.5084490000000  0.6078650000000  0.5313760000000 1.0
C      1  0.5150280000000  0.4132830000000  0.5759860000000 1.0
C      1  0.5230910000000  0.3936910000000  0.4703530000000 1.0
C      1  0.5201310000000  0.4502510000000  0.4017750000000 1.0
C      1  0.5249910000000  0.5547700000000  0.4032490000000 1.0
C      1  0.5212110000000  0.6071460000000  0.4773340000000 1.0
C      1  0.5222120000000  0.5883810000000  0.5632560000000 1.0
C      1  0.5198940000000  0.5070520000000  0.6121450000000 1.0
C      1  0.4232100000000  0.4880830000000  0.5325160000000 1.0
C      1  0.4236520000000  0.4668390000000  0.5170640000000 1.0
C      1  0.4266980000000  0.4639870000000  0.4865970000000 1.0
C      1  0.4260450000000  0.4882050000000  0.4651180000000 1.0
C      1  0.4259160000000  0.5198690000000  0.4719740000000 1.0
C      1  0.4251320000000  0.5337590000000  0.5004800000000 1.0
C      1  0.4239530000000  0.5194400000000  0.5290390000000 1.0
C      1  0.4627480000000  0.5768180000000  0.5613790000000 1.0
C      1  0.4694390000000  0.4994200000000  0.5981030000000 1.0
C      1  0.4667960000000  0.4139010000000  0.5535160000000 1.0
C      1  0.4642220000000  0.4058370000000  0.4608230000000 1.0
C      1  0.4687700000000  0.4668300000000  0.4036290000000 1.0
C      1  0.4620430000000  0.5552330000000  0.4154380000000 1.0
C      1  0.4641890000000  0.5992450000000  0.4918430000000 1.0
C      1  0.4898500000000  0.3992560000000  0.5297130000000 1.0
C      1  0.4912140000000  0.3998790000000  0.4409940000000 1.0
C      1  0.4902780000000  0.4952230000000  0.3968460000000 1.0
C      1  0.4884870000000  0.5791360000000  0.4227950000000 1.0
C      1  0.4909910000000  0.6160370000000  0.5053760000000 1.0
C      1  0.4842820000000  0.5812510000000  0.5875710000000 1.0
C      1  0.4819090000000  0.4678740000000  0.6037150000000 1.0
C      1  0.5150080000000  0.4285580000000  0.5185380000000 1.0
C      1  0.5187130000000  0.4429740000000  0.4557990000000 1.0
C      1  0.5168270000000  0.5004010000000  0.4259110000000 1.0
C      1  0.5225760000000  0.5539260000000  0.4534900000000 1.0
C      1  0.5174410000000  0.5728850000000  0.5148300000000 1.0
C      1  0.5197500000000  0.5328330000000  0.5674060000000 1.0
C      1  0.5156040000000  0.4703820000000  0.5668470000000 1.0
C      1  0.5423950000000  0.5615080000000  0.5088750000000 1.0
C      1  0.5424530000000  0.5310630000000  0.5492520000000 1.0
C      1  0.5391620000000  0.4787620000000  0.5550650000000 1.0
C      1  0.5390110000000  0.4422690000000  0.5182740000000 1.0
C      1  0.5439350000000  0.4487400000000  0.4660350000000 1.0
C      1  0.5410560000000  0.4963850000000  0.4380430000000 1.0
C      1  0.5482110000000  0.5449610000000  0.4608360000000 1.0
C      1  0.5662420000000  0.4391270000000  0.4346720000000 1.0
C      1  0.5639980000000  0.5148700000000  0.4112050000000 1.0
C      1  0.5604480000000  0.5815980000000  0.4511220000000 1.0
C      1  0.5640220000000  0.5882640000000  0.5289530000000 1.0
C      1  0.5604990000000  0.5326700000000  0.5844810000000 1.0
C      1  0.5546070000000  0.4521530000000  0.5802850000000 1.0
C      1  0.5585400000000  0.4083550000000  0.5109340000000 1.0
C      1  0.5348990000000  0.5949540000000  0.5898920000000 1.0
C      1  0.5317020000000  0.4962970000000  0.6342300000000 1.0
C      1  0.5256380000000  0.3885220000000  0.5819360000000 1.0
C      1  0.5391500000000  0.3822790000000  0.4511580000000 1.0
C      1  0.5305490000000  0.4542950000000  0.3763560000000 1.0
C      1  0.5385850000000  0.5771360000000  0.3954270000000 1.0
C      1  0.5358070000000  0.6264960000000  0.4905560000000 1.0
C      1  0.4394590000000  0.6068680000000  0.4158230000000 1.0
C      1  0.4505570000000  0.6086310000000  0.5441420000000 1.0
C      1  0.4531460000000  0.5340030000000  0.5985660000000 1.0
C      1  0.4464880000000  0.4785410000000  0.6460240000000 1.0
C      1  0.4523250000000  0.3606320000000  0.5448650000000 1.0
C      1  0.4438370000000  0.3883940000000  0.4103680000000 1.0
C      1  0.4477760000000  0.5228910000000  0.4011100000000 1.0
C      1  0.5686530000000  0.5532870000000  0.4393990000000 1.0
C      1  0.5653300000000  0.5785240000000  0.4994610000000 1.0
C      1  0.5656210000000  0.5479730000000  0.5566290000000 1.0
C      1  0.5623250000000  0.4839820000000  0.5737940000000 1.0
C      1  0.5606190000000  0.4297870000000  0.5357220000000 1.0
C      1  0.5678700000000  0.4297610000000  0.4659010000000 1.0
C      1  0.5623260000000  0.4859410000000  0.4201670000000 1.0
C      1  0.5388880000000  0.4329510000000  0.4228510000000 1.0
C      1  0.5385050000000  0.5245110000000  0.4013720000000 1.0
C      1  0.5344670000000  0.5931010000000  0.4511570000000 1.0
C      1  0.5386260000000  0.5981880000000  0.5373970000000 1.0
C      1  0.5292840000000  0.5343070000000  0.5979400000000 1.0
C      1  0.5298400000000  0.4401640000000  0.5885730000000 1.0
C      1  0.5345100000000  0.3964850000000  0.5014680000000 1.0
C      1  0.5058160000000  0.5602440000000  0.5614790000000 1.0
C      1  0.5069290000000  0.4899150000000  0.5882230000000 1.0
C      1  0.5052910000000  0.4220200000000  0.5472460000000 1.0
C      1  0.5075700000000  0.4218280000000  0.4697830000000 1.0
C      1  0.5054170000000  0.4737450000000  0.4173410000000 1.0
C      1  0.5133290000000  0.5398600000000  0.4309040000000 1.0
C      1  0.5063680000000  0.5824110000000  0.4910090000000 1.0
C      1  0.4869910000000  0.5070530000000  0.5017620000000 1.0
C      1  0.6007740000000  0.4957570000000  0.4982770000000 1.0
C      1  0.6338000000000  0.5010590000000  0.5002000000000 1.0
C      1  0.5789230000000  0.5033790000000  0.4908120000000 1.0
END
