TITL C-2782235-7892-738 -0.000167893383121005 125000 -933.677259616125 0 0 160 (C1) n - 1
REM
REM in /home/nfs/bkarasulu/CARBON/AIRSS/Generating-Clusters/REBO/Higher-Symm/SD-CG/HFTN-CG
REM
REM
REM
REM
REM
REM ./C.cell (12c818d87b63d06a65506943cc24bca4)
REM
REM compiler GCC version 9.2.1 20190827 (Red Hat 9.2.1-1)
REM options -cpp -mtune=generic -march=x86-64 -g -O0 -fpre-include=/usr/include/finclude/math-vector-fortran.h
REM seed -462320066 1128398088 -1586886014 2130659243 1922946962 1378089697 -1042580537 -598375987 -480516167 845888068 1694820895 -834782308 -95942796 -1379584202 -1626595796 1056852062 -1967890273 1540169401 2036298484 1502083987 -122013011 -905488880 -1277275723 69482668 -2006094928 304007433 -15938617 -1509012612 1932125025 -2006373384 -535045977 -1427562080 1709526356
REM
CELL 1.54180   50.00000   50.00000   50.00000   90.00000   90.00000   90.00000
LATT -1
SFAC C  
C      1  0.4006140000000  0.5131530000000  0.5423130000000 1.0
C      1  0.4010800000000  0.4520580000000  0.5000220000000 1.0
C      1  0.3956140000000  0.5166480000000  0.4695470000000 1.0
C      1  0.5961080000000  0.4825180000000  0.5357520000000 1.0
C      1  0.6065840000000  0.5422590000000  0.5008280000000 1.0
C      1  0.6134890000000  0.4739070000000  0.4697370000000 1.0
C      1  0.4519580000000  0.5979600000000  0.4811430000000 1.0
C      1  0.4581200000000  0.4704010000000  0.5946680000000 1.0
C      1  0.4618880000000  0.4340430000000  0.4246240000000 1.0
C      1  0.5347230000000  0.4048290000000  0.4748770000000 1.0
C      1  0.5401680000000  0.5361140000000  0.5959750000000 1.0
C      1  0.5330980000000  0.5660880000000  0.4348740000000 1.0
C      1  0.5672760000000  0.5078150000000  0.5687800000000 1.0
C      1  0.5767880000000  0.4363640000000  0.4694330000000 1.0
C      1  0.5773210000000  0.5439640000000  0.4595840000000 1.0
C      1  0.4256100000000  0.4865730000000  0.5586620000000 1.0
C      1  0.4202630000000  0.5582360000000  0.4833940000000 1.0
C      1  0.4296190000000  0.4456900000000  0.4568730000000 1.0
C      1  0.4304740000000  0.4507100000000  0.4869720000000 1.0
C      1  0.4240290000000  0.5323300000000  0.4679570000000 1.0
C      1  0.4324050000000  0.5164280000000  0.5501740000000 1.0
C      1  0.5766280000000  0.5451730000000  0.4889050000000 1.0
C      1  0.5835110000000  0.4685820000000  0.4653060000000 1.0
C      1  0.5660430000000  0.4882010000000  0.5453400000000 1.0
C      1  0.4412970000000  0.5819200000000  0.5496680000000 1.0
C      1  0.4301990000000  0.4213640000000  0.5481520000000 1.0
C      1  0.4455900000000  0.4959980000000  0.4063030000000 1.0
C      1  0.5646150000000  0.4177170000000  0.5402160000000 1.0
C      1  0.5591420000000  0.5767680000000  0.5478820000000 1.0
C      1  0.5581930000000  0.4959140000000  0.4058610000000 1.0
C      1  0.4183950000000  0.4685530000000  0.5346570000000 1.0
C      1  0.4176000000000  0.4888300000000  0.4430650000000 1.0
C      1  0.4182730000000  0.5546730000000  0.5137350000000 1.0
C      1  0.5844100000000  0.5373300000000  0.5369470000000 1.0
C      1  0.5781260000000  0.5158570000000  0.4489460000000 1.0
C      1  0.5817420000000  0.4516350000000  0.5134780000000 1.0
C      1  0.5538560000000  0.5839970000000  0.4555680000000 1.0
C      1  0.5256960000000  0.5064660000000  0.5963610000000 1.0
C      1  0.5545660000000  0.4110720000000  0.4479280000000 1.0
C      1  0.4636800000000  0.4139000000000  0.4436110000000 1.0
C      1  0.4660080000000  0.4977190000000  0.5920340000000 1.0
C      1  0.4560730000000  0.5820640000000  0.4576530000000 1.0
C      1  0.5097890000000  0.4632660000000  0.5730200000000 1.0
C      1  0.5148640000000  0.4399400000000  0.4310230000000 1.0
C      1  0.5047280000000  0.5855120000000  0.4910920000000 1.0
C      1  0.4922470000000  0.5549740000000  0.5979460000000 1.0
C      1  0.4843660000000  0.5600810000000  0.4047010000000 1.0
C      1  0.4840710000000  0.4110950000000  0.4931100000000 1.0
C      1  0.6255560000000  0.4900190000000  0.4889220000000 1.0
C      1  0.6217720000000  0.5190980000000  0.5032510000000 1.0
C      1  0.6161400000000  0.4918440000000  0.5195980000000 1.0
C      1  0.3834160000000  0.5026210000000  0.4899430000000 1.0
C      1  0.3852280000000  0.4741700000000  0.5050030000000 1.0
C      1  0.3858340000000  0.5015130000000  0.5222330000000 1.0
C      1  0.4801880000000  0.5988910000000  0.5332740000000 1.0
C      1  0.4778250000000  0.4224860000000  0.5692620000000 1.0
C      1  0.4843070000000  0.4805500000000  0.4057350000000 1.0
C      1  0.5175920000000  0.4021620000000  0.5291820000000 1.0
C      1  0.5228700000000  0.5825530000000  0.5639740000000 1.0
C      1  0.5231630000000  0.5290600000000  0.3960710000000 1.0
C      1  0.5263500000000  0.4367280000000  0.5705680000000 1.0
C      1  0.5304900000000  0.4574660000000  0.4090580000000 1.0
C      1  0.5239550000000  0.5938500000000  0.5140140000000 1.0
C      1  0.4717720000000  0.5689770000000  0.5864200000000 1.0
C      1  0.4666520000000  0.5404150000000  0.3994380000000 1.0
C      1  0.4684580000000  0.4030510000000  0.5177640000000 1.0
C      1  0.5467860000000  0.5529430000000  0.5030080000000 1.0
C      1  0.5413980000000  0.4667800000000  0.5490460000000 1.0
C      1  0.5607940000000  0.4620890000000  0.4438080000000 1.0
C      1  0.4575310000000  0.4389890000000  0.5032020000000 1.0
C      1  0.4618230000000  0.5336280000000  0.5514770000000 1.0
C      1  0.4494180000000  0.5289350000000  0.4455710000000 1.0
C      1  0.5209750000000  0.5263820000000  0.4290630000000 1.0
C      1  0.5277860000000  0.5504630000000  0.5534080000000 1.0
C      1  0.5262920000000  0.4315070000000  0.5139590000000 1.0
C      1  0.4745400000000  0.4800700000000  0.4379690000000 1.0
C      1  0.4726170000000  0.4510520000000  0.5522070000000 1.0
C      1  0.4754480000000  0.5697290000000  0.5164220000000 1.0
C      1  0.4987810000000  0.6041070000000  0.5677220000000 1.0
C      1  0.4892620000000  0.3957890000000  0.5419080000000 1.0
C      1  0.5027100000000  0.5064770000000  0.3817660000000 1.0
C      1  0.5067640000000  0.4102470000000  0.5667660000000 1.0
C      1  0.5118630000000  0.6104510000000  0.5375940000000 1.0
C      1  0.5139010000000  0.4756900000000  0.3913560000000 1.0
C      1  0.5708000000000  0.5522070000000  0.5572220000000 1.0
C      1  0.5712120000000  0.4246700000000  0.5135090000000 1.0
C      1  0.5663370000000  0.5180310000000  0.4208010000000 1.0
C      1  0.4229900000000  0.4468960000000  0.5572390000000 1.0
C      1  0.4268880000000  0.5815550000000  0.5262480000000 1.0
C      1  0.4323790000000  0.4768850000000  0.4217040000000 1.0
C      1  0.4286270000000  0.5877740000000  0.4944530000000 1.0
C      1  0.4333090000000  0.4659310000000  0.5808850000000 1.0
C      1  0.4388400000000  0.4501720000000  0.4300190000000 1.0
C      1  0.5636460000000  0.4187740000000  0.4861140000000 1.0
C      1  0.5630610000000  0.5334790000000  0.5772270000000 1.0
C      1  0.5602540000000  0.5479880000000  0.4337740000000 1.0
C      1  0.5360790000000  0.5009470000000  0.3860170000000 1.0
C      1  0.5429690000000  0.6042580000000  0.5502240000000 1.0
C      1  0.5372290000000  0.4083330000000  0.5531750000000 1.0
C      1  0.4728760000000  0.5086770000000  0.3904020000000 1.0
C      1  0.4580390000000  0.4051670000000  0.5511290000000 1.0
C      1  0.4684460000000  0.5955280000000  0.5650610000000 1.0
C      1  0.4673120000000  0.5059810000000  0.5660450000000 1.0
C      1  0.4647250000000  0.4266940000000  0.4721370000000 1.0
C      1  0.4564660000000  0.5550830000000  0.4625430000000 1.0
C      1  0.5299060000000  0.4910540000000  0.5701210000000 1.0
C      1  0.5420470000000  0.5569620000000  0.4727190000000 1.0
C      1  0.5404650000000  0.4416290000000  0.4537520000000 1.0
C      1  0.5463090000000  0.5117280000000  0.4845200000000 1.0
C      1  0.5453440000000  0.5093170000000  0.5185450000000 1.0
C      1  0.5440380000000  0.4731740000000  0.4948060000000 1.0
C      1  0.4553420000000  0.4799250000000  0.4759500000000 1.0
C      1  0.4560100000000  0.4924770000000  0.5167280000000 1.0
C      1  0.4526560000000  0.5232150000000  0.5025390000000 1.0
C      1  0.5061440000000  0.5437420000000  0.4614060000000 1.0
C      1  0.5031990000000  0.5142370000000  0.5514800000000 1.0
C      1  0.4983870000000  0.4413840000000  0.4872710000000 1.0
C      1  0.5036560000000  0.4637950000000  0.4628080000000 1.0
C      1  0.4966140000000  0.4829120000000  0.5501230000000 1.0
C      1  0.4983540000000  0.5537030000000  0.4880340000000 1.0
C      1  0.5452290000000  0.5771420000000  0.5210470000000 1.0
C      1  0.5577380000000  0.4412210000000  0.5597790000000 1.0
C      1  0.5541010000000  0.4707010000000  0.4183980000000 1.0
C      1  0.4386140000000  0.4176770000000  0.5191200000000 1.0
C      1  0.4529070000000  0.5590190000000  0.5657450000000 1.0
C      1  0.4468750000000  0.5251260000000  0.4156860000000 1.0
C      1  0.4803230000000  0.4520140000000  0.5846600000000 1.0
C      1  0.4867340000000  0.4515960000000  0.4235660000000 1.0
C      1  0.4758300000000  0.5986440000000  0.4995040000000 1.0
C      1  0.5211690000000  0.5590100000000  0.5851280000000 1.0
C      1  0.5136680000000  0.5555520000000  0.4130310000000 1.0
C      1  0.5149060000000  0.4061530000000  0.4965200000000 1.0
C      1  0.5731010000000  0.5257110000000  0.5149740000000 1.0
C      1  0.5632820000000  0.4734270000000  0.5149120000000 1.0
C      1  0.5687570000000  0.4966270000000  0.4683890000000 1.0
C      1  0.4331720000000  0.4732820000000  0.5108000000000 1.0
C      1  0.4307610000000  0.5312040000000  0.5220540000000 1.0
C      1  0.4311160000000  0.4991190000000  0.4648480000000 1.0
C      1  0.5345070000000  0.5298510000000  0.4583390000000 1.0
C      1  0.5341880000000  0.5173600000000  0.5484770000000 1.0
C      1  0.5320700000000  0.4445390000000  0.4830300000000 1.0
C      1  0.4711720000000  0.4552700000000  0.4602070000000 1.0
C      1  0.4653610000000  0.4817740000000  0.5450510000000 1.0
C      1  0.4668560000000  0.5484150000000  0.4913600000000 1.0
C      1  0.5162440000000  0.4556160000000  0.5289380000000 1.0
C      1  0.4968530000000  0.5130760000000  0.4375460000000 1.0
C      1  0.5198690000000  0.5452550000000  0.5228880000000 1.0
C      1  0.4865560000000  0.5437770000000  0.5302820000000 1.0
C      1  0.4712570000000  0.5081420000000  0.4519360000000 1.0
C      1  0.4828880000000  0.4509470000000  0.5227190000000 1.0
C      1  0.4828850000000  0.5116600000000  0.5255580000000 1.0
C      1  0.4814880000000  0.4699820000000  0.4956680000000 1.0
C      1  0.4718670000000  0.5068550000000  0.4829860000000 1.0
C      1  0.5188910000000  0.4889080000000  0.5249150000000 1.0
C      1  0.5177780000000  0.5267320000000  0.4955010000000 1.0
C      1  0.5199950000000  0.4823710000000  0.4785240000000 1.0
C      1  0.5208270000000  0.4089610000000  0.4437740000000 1.0
C      1  0.5206120000000  0.5809190000000  0.4634870000000 1.0
C      1  0.5077310000000  0.5302000000000  0.6087330000000 1.0
C      1  0.4999710000000  0.4990610000000  0.4988740000000 1.0
END
