TITL C-2782227-3064-81 -0.000690744103912191 125000 -259.897289760024 0 0 44 (C1) n - 1
REM
REM in /home/nfs/bkarasulu/CARBON/AIRSS/Generating-Clusters/REBO/Higher-Symm/SD-CG/HFTN-CG
REM
REM
REM
REM
REM
REM ./C.cell (12c818d87b63d06a65506943cc24bca4)
REM
REM compiler GCC version 9.2.1 20190827 (Red Hat 9.2.1-1)
REM options -cpp -mtune=generic -march=x86-64 -g -O0 -fpre-include=/usr/include/finclude/math-vector-fortran.h
REM seed -1856823452 -1555941867 176264182 -2120540837 536738310 1619168170 -2087416191 -610112524 -289614593 -694752488 58469568 -619968738 52805004 -2090568529 278991751 147848700 -2126079991 -1499979426 -1337136352 -257167788 -1687314894 526895949 -893677651 -790725818 1113732383 -326934236 275608303 270654849 344286996 1219968317 -583684671 -1802421016 571982633
REM
CELL 1.54180   50.00000   50.00000   50.00000   90.00000   90.00000   90.00000
LATT -1
SFAC C  
C      1  0.5407410000000  0.5562520000000  0.5078460000000 1.0
C      1  0.5418670000000  0.4737880000000  0.4439090000000 1.0
C      1  0.5413060000000  0.4713230000000  0.5532080000000 1.0
C      1  0.5023290000000  0.4434070000000  0.5017080000000 1.0
C      1  0.4931390000000  0.5116260000000  0.5414820000000 1.0
C      1  0.4987280000000  0.5280890000000  0.4557910000000 1.0
C      1  0.4541740000000  0.5190660000000  0.4948350000000 1.0
C      1  0.4529600000000  0.4848660000000  0.4918780000000 1.0
C      1  0.4515500000000  0.4994090000000  0.5232440000000 1.0
C      1  0.5159070000000  0.4846760000000  0.4460040000000 1.0
C      1  0.5169480000000  0.4666940000000  0.5398850000000 1.0
C      1  0.5146950000000  0.5485590000000  0.5157800000000 1.0
C      1  0.5348280000000  0.4358680000000  0.4688190000000 1.0
C      1  0.5342320000000  0.5143770000000  0.5690120000000 1.0
C      1  0.5364680000000  0.5573680000000  0.4614840000000 1.0
C      1  0.5486820000000  0.4987850000000  0.5490980000000 1.0
C      1  0.5487470000000  0.5436560000000  0.4834550000000 1.0
C      1  0.5494300000000  0.4608010000000  0.4682230000000 1.0
C      1  0.4626980000000  0.4575420000000  0.4835040000000 1.0
C      1  0.4563170000000  0.5051200000000  0.5550200000000 1.0
C      1  0.4634230000000  0.5366810000000  0.4725530000000 1.0
C      1  0.5080380000000  0.5557950000000  0.4601620000000 1.0
C      1  0.5065100000000  0.4370810000000  0.4737740000000 1.0
C      1  0.5059050000000  0.5102230000000  0.5712230000000 1.0
C      1  0.5426120000000  0.5035360000000  0.5181220000000 1.0
C      1  0.5434290000000  0.5131540000000  0.4853570000000 1.0
C      1  0.5458980000000  0.4799220000000  0.4932560000000 1.0
C      1  0.4701020000000  0.4633840000000  0.5327220000000 1.0
C      1  0.4682230000000  0.5546140000000  0.5256700000000 1.0
C      1  0.4687330000000  0.4936310000000  0.4385190000000 1.0
C      1  0.4827610000000  0.4520740000000  0.4618780000000 1.0
C      1  0.4765410000000  0.4992110000000  0.5755640000000 1.0
C      1  0.4835720000000  0.5567570000000  0.4791350000000 1.0
C      1  0.4911030000000  0.4790900000000  0.5442210000000 1.0
C      1  0.4894690000000  0.5596730000000  0.5074010000000 1.0
C      1  0.4890490000000  0.4737480000000  0.4434250000000 1.0
C      1  0.5200450000000  0.4666770000000  0.5097840000000 1.0
C      1  0.5129870000000  0.5188700000000  0.5202930000000 1.0
C      1  0.5159960000000  0.5061260000000  0.4671580000000 1.0
C      1  0.4668800000000  0.5315440000000  0.5409720000000 1.0
C      1  0.4709210000000  0.5201600000000  0.4484110000000 1.0
C      1  0.4746020000000  0.4478560000000  0.5087430000000 1.0
C      1  0.5094790000000  0.4957520000000  0.4971840000000 1.0
C      1  0.4806230000000  0.5002450000000  0.5052470000000 1.0
END
