TITL C-2782228-2999-1052 0.000644842114683243 125000 -304.479654893954 0 0 52 (C1) n - 1
REM
REM in /home/nfs/bkarasulu/CARBON/AIRSS/Generating-Clusters/REBO/Higher-Symm/SD-CG/HFTN-CG
REM
REM
REM
REM
REM
REM ./C.cell (12c818d87b63d06a65506943cc24bca4)
REM
REM compiler GCC version 9.2.1 20190827 (Red Hat 9.2.1-1)
REM options -cpp -mtune=generic -march=x86-64 -g -O0 -fpre-include=/usr/include/finclude/math-vector-fortran.h
REM seed -1065050540 -1172379998 1226629736 1678671294 -1738854356 915639527 -1037004540 2135210647 -1873763683 -327182829 -977012854 -1558515881 1784266345 -2071167254 -934029699 -955034051 -849053333 -1423726656 -71622596 419684640 1927343079 -243782164 1874908309 1907128682 -630850262 -2098979592 1125048752 -2138061437 -751983128 1984426776 1361557890 -505138211 -1596814064
REM
CELL 1.54180   50.00000   50.00000   50.00000   90.00000   90.00000   90.00000
LATT -1
SFAC C  
C      1  0.4496360000000  0.5105980000000  0.5026050000000 1.0
C      1  0.4584710000000  0.4892340000000  0.4807180000000 1.0
C      1  0.4463520000000  0.4936390000000  0.5292400000000 1.0
C      1  0.5271080000000  0.5218090000000  0.5523460000000 1.0
C      1  0.5262930000000  0.5397800000000  0.4435720000000 1.0
C      1  0.5273690000000  0.4401410000000  0.4913140000000 1.0
C      1  0.5034660000000  0.5196390000000  0.5673930000000 1.0
C      1  0.4978430000000  0.5445780000000  0.4456690000000 1.0
C      1  0.4979120000000  0.4344060000000  0.4824490000000 1.0
C      1  0.4802120000000  0.5281410000000  0.4295240000000 1.0
C      1  0.4809070000000  0.4293350000000  0.5115570000000 1.0
C      1  0.4863510000000  0.5426640000000  0.5655560000000 1.0
C      1  0.4933040000000  0.4683020000000  0.4441260000000 1.0
C      1  0.4934800000000  0.4627490000000  0.5540110000000 1.0
C      1  0.4886610000000  0.5611090000000  0.5059960000000 1.0
C      1  0.5016690000000  0.4965280000000  0.5348390000000 1.0
C      1  0.5153410000000  0.5445360000000  0.4815360000000 1.0
C      1  0.5222560000000  0.4791100000000  0.4839190000000 1.0
C      1  0.5111020000000  0.5151940000000  0.4708420000000 1.0
C      1  0.5072390000000  0.4757360000000  0.5107630000000 1.0
C      1  0.4973050000000  0.5252580000000  0.5221850000000 1.0
C      1  0.4493180000000  0.4655340000000  0.5275850000000 1.0
C      1  0.4674820000000  0.5346530000000  0.5116040000000 1.0
C      1  0.4831940000000  0.4999430000000  0.4661790000000 1.0
C      1  0.5616460000000  0.4618710000000  0.5163380000000 1.0
C      1  0.5483760000000  0.5236060000000  0.5190040000000 1.0
C      1  0.5634820000000  0.5077630000000  0.4614350000000 1.0
C      1  0.4851580000000  0.4926020000000  0.5624970000000 1.0
C      1  0.4820460000000  0.5469700000000  0.4757390000000 1.0
C      1  0.4818610000000  0.4507930000000  0.4641670000000 1.0
C      1  0.5467200000000  0.4736600000000  0.5380570000000 1.0
C      1  0.5461760000000  0.5463320000000  0.4951330000000 1.0
C      1  0.5517010000000  0.4776510000000  0.4676460000000 1.0
C      1  0.4563640000000  0.5284140000000  0.4740930000000 1.0
C      1  0.4586160000000  0.4611000000000  0.4790480000000 1.0
C      1  0.4570500000000  0.5053730000000  0.5527030000000 1.0
C      1  0.4577430000000  0.5336300000000  0.5556100000000 1.0
C      1  0.4542580000000  0.5185860000000  0.4462520000000 1.0
C      1  0.4546350000000  0.4475310000000  0.5037080000000 1.0
C      1  0.5509000000000  0.5371840000000  0.4646520000000 1.0
C      1  0.5521380000000  0.4540100000000  0.4904960000000 1.0
C      1  0.5486980000000  0.5022280000000  0.5410250000000 1.0
C      1  0.5214480000000  0.5675520000000  0.5059170000000 1.0
C      1  0.5217820000000  0.4755980000000  0.4505880000000 1.0
C      1  0.5220240000000  0.4603980000000  0.5445350000000 1.0
C      1  0.4741450000000  0.4494950000000  0.5382460000000 1.0
C      1  0.4749020000000  0.5563320000000  0.5367320000000 1.0
C      1  0.4764710000000  0.4946850000000  0.4347360000000 1.0
C      1  0.5222520000000  0.5430450000000  0.5268330000000 1.0
C      1  0.5324740000000  0.5064640000000  0.4478850000000 1.0
C      1  0.5089510000000  0.4447120000000  0.5191580000000 1.0
C      1  0.4951140000000  0.5041450000000  0.4968800000000 1.0
END
