TITL C-2782238-9940-976 0.00588925193662553 125000 -1176.85774237963 0 0 199 (C1) n - 1
REM
REM in /home/nfs/bkarasulu/CARBON/AIRSS/Generating-Clusters/REBO/Higher-Symm/SD-CG/HFTN-CG
REM
REM
REM
REM
REM
REM ./C.cell (12c818d87b63d06a65506943cc24bca4)
REM
REM compiler GCC version 9.2.1 20190827 (Red Hat 9.2.1-1)
REM options -cpp -mtune=generic -march=x86-64 -g -O0 -fpre-include=/usr/include/finclude/math-vector-fortran.h
REM seed -1469699539 -172042520 1183684166 -1093953421 -1698820104 -2113713690 2049622596 -477186301 1967457506 -1768274042 -1468015775 1823153035 -1718515943 -816583586 -1487169538 685048719 1145690615 1843712300 -951163254 247924346 -722887006 -1482373939 470677263 -1149538437 380711550 2004877778 736412743 -1562408373 -557937885 123885632 88148823 2029948904 1324296136
REM
CELL 1.54180   50.00000   50.00000   50.00000   90.00000   90.00000   90.00000
LATT -1
SFAC C  
C      1  0.5803070000000  0.4761300000000  0.5693970000000 1.0
C      1  0.5143340000000  0.5808920000000  0.5441710000000 1.0
C      1  0.5386110000000  0.4301990000000  0.4900770000000 1.0
C      1  0.5390880000000  0.4769330000000  0.5040930000000 1.0
C      1  0.3958480000000  0.5596890000000  0.5204530000000 1.0
C      1  0.4019500000000  0.4699340000000  0.4592240000000 1.0
C      1  0.5129310000000  0.4621690000000  0.5803100000000 1.0
C      1  0.5286840000000  0.4211300000000  0.4358920000000 1.0
C      1  0.4874270000000  0.4654490000000  0.4958880000000 1.0
C      1  0.5289200000000  0.4584050000000  0.4809110000000 1.0
C      1  0.4630590000000  0.5641790000000  0.4734830000000 1.0
C      1  0.4148890000000  0.5517830000000  0.4966440000000 1.0
C      1  0.4653570000000  0.5867290000000  0.4257960000000 1.0
C      1  0.5908720000000  0.5610060000000  0.5166290000000 1.0
C      1  0.4658100000000  0.4335350000000  0.4013390000000 1.0
C      1  0.5291000000000  0.5533730000000  0.5069050000000 1.0
C      1  0.5603640000000  0.5666240000000  0.4541750000000 1.0
C      1  0.5406660000000  0.5032920000000  0.5727310000000 1.0
C      1  0.5717090000000  0.5043570000000  0.4160390000000 1.0
C      1  0.4552420000000  0.4365190000000  0.4719850000000 1.0
C      1  0.5038330000000  0.6103970000000  0.5328540000000 1.0
C      1  0.5210260000000  0.5901370000000  0.4382040000000 1.0
C      1  0.4856860000000  0.4280260000000  0.5350010000000 1.0
C      1  0.4386690000000  0.5762750000000  0.5431200000000 1.0
C      1  0.4294500000000  0.5435860000000  0.4435870000000 1.0
C      1  0.4115800000000  0.4481530000000  0.4428870000000 1.0
C      1  0.4441990000000  0.4644780000000  0.5605340000000 1.0
C      1  0.4237670000000  0.4549220000000  0.4172650000000 1.0
C      1  0.5424070000000  0.4687560000000  0.4537750000000 1.0
C      1  0.4665830000000  0.4515360000000  0.5902720000000 1.0
C      1  0.4514180000000  0.5022510000000  0.4233990000000 1.0
C      1  0.3880810000000  0.5157120000000  0.4665340000000 1.0
C      1  0.5721940000000  0.4904620000000  0.5408220000000 1.0
C      1  0.5410800000000  0.4481680000000  0.5891010000000 1.0
C      1  0.4758080000000  0.4933120000000  0.4352310000000 1.0
C      1  0.3928870000000  0.4951600000000  0.4472890000000 1.0
C      1  0.5191870000000  0.4231610000000  0.5123740000000 1.0
C      1  0.5659910000000  0.4486700000000  0.4967080000000 1.0
C      1  0.4818740000000  0.5674260000000  0.4974470000000 1.0
C      1  0.5003230000000  0.5219810000000  0.6060610000000 1.0
C      1  0.5982750000000  0.4408890000000  0.5063490000000 1.0
C      1  0.5004550000000  0.4877440000000  0.3886380000000 1.0
C      1  0.4335990000000  0.5108240000000  0.5618540000000 1.0
C      1  0.4445110000000  0.5185990000000  0.4599480000000 1.0
C      1  0.5845570000000  0.5323030000000  0.4714650000000 1.0
C      1  0.5629280000000  0.5471090000000  0.4355640000000 1.0
C      1  0.4615410000000  0.4846050000000  0.5969090000000 1.0
C      1  0.5317130000000  0.5875470000000  0.5726020000000 1.0
C      1  0.5311060000000  0.4856490000000  0.6067730000000 1.0
C      1  0.4640650000000  0.4840570000000  0.5059810000000 1.0
C      1  0.5287140000000  0.4994850000000  0.3874100000000 1.0
C      1  0.5012390000000  0.4710950000000  0.5435170000000 1.0
C      1  0.5108450000000  0.4288130000000  0.5813760000000 1.0
C      1  0.5337600000000  0.5483910000000  0.5754130000000 1.0
C      1  0.4824840000000  0.5315850000000  0.4892040000000 1.0
C      1  0.4145340000000  0.4269200000000  0.5086370000000 1.0
C      1  0.4959220000000  0.5302160000000  0.4424870000000 1.0
C      1  0.6080070000000  0.4949540000000  0.5587090000000 1.0
C      1  0.4756360000000  0.6178920000000  0.5411880000000 1.0
C      1  0.4890380000000  0.4055430000000  0.4513500000000 1.0
C      1  0.4535470000000  0.4052270000000  0.4873530000000 1.0
C      1  0.6079950000000  0.5556260000000  0.4935330000000 1.0
C      1  0.4256270000000  0.5677690000000  0.4565160000000 1.0
C      1  0.5562460000000  0.5805810000000  0.5421530000000 1.0
C      1  0.4498460000000  0.4176610000000  0.4440100000000 1.0
C      1  0.4766700000000  0.4698140000000  0.5630860000000 1.0
C      1  0.5160380000000  0.5610290000000  0.4274680000000 1.0
C      1  0.4880680000000  0.4359380000000  0.6012640000000 1.0
C      1  0.4784740000000  0.3881370000000  0.4770930000000 1.0
C      1  0.5217370000000  0.5022990000000  0.5094530000000 1.0
C      1  0.5281520000000  0.5289320000000  0.6006960000000 1.0
C      1  0.4782720000000  0.5345520000000  0.3942640000000 1.0
C      1  0.6103630000000  0.4941720000000  0.5245180000000 1.0
C      1  0.4201420000000  0.5291870000000  0.5291200000000 1.0
C      1  0.4642490000000  0.5711370000000  0.5219290000000 1.0
C      1  0.4302140000000  0.5309130000000  0.5842890000000 1.0
C      1  0.4327610000000  0.4813210000000  0.4143350000000 1.0
C      1  0.3897650000000  0.4509610000000  0.5452170000000 1.0
C      1  0.4627650000000  0.6080820000000  0.5644740000000 1.0
C      1  0.5150330000000  0.3899620000000  0.5162140000000 1.0
C      1  0.5834350000000  0.4398790000000  0.4618330000000 1.0
C      1  0.4750940000000  0.5252290000000  0.4633530000000 1.0
C      1  0.4553910000000  0.5857080000000  0.5779580000000 1.0
C      1  0.5793550000000  0.5640390000000  0.4785800000000 1.0
C      1  0.5895890000000  0.4948470000000  0.3971120000000 1.0
C      1  0.5399910000000  0.4498390000000  0.4296370000000 1.0
C      1  0.3709910000000  0.5678080000000  0.5193490000000 1.0
C      1  0.4627110000000  0.3997050000000  0.5190920000000 1.0
C      1  0.5606250000000  0.5695150000000  0.5741240000000 1.0
C      1  0.5489910000000  0.4072710000000  0.5471650000000 1.0
C      1  0.5139000000000  0.3910040000000  0.4661550000000 1.0
C      1  0.5689850000000  0.4556040000000  0.4193740000000 1.0
C      1  0.3978370000000  0.5117560000000  0.5248280000000 1.0
C      1  0.4957940000000  0.5368250000000  0.5785850000000 1.0
C      1  0.5704510000000  0.4685560000000  0.4643700000000 1.0
C      1  0.5837750000000  0.5837100000000  0.5292350000000 1.0
C      1  0.5070190000000  0.4163610000000  0.4173420000000 1.0
C      1  0.5094610000000  0.5535870000000  0.5311290000000 1.0
C      1  0.5007420000000  0.4511440000000  0.5190820000000 1.0
C      1  0.5079780000000  0.4310260000000  0.3934150000000 1.0
C      1  0.4671400000000  0.5485510000000  0.5475220000000 1.0
C      1  0.5575540000000  0.5222700000000  0.5939290000000 1.0
C      1  0.5196220000000  0.5481430000000  0.4588100000000 1.0
C      1  0.5891930000000  0.4708880000000  0.4291320000000 1.0
C      1  0.4599470000000  0.6277150000000  0.5195900000000 1.0
C      1  0.4537960000000  0.4664040000000  0.4687100000000 1.0
C      1  0.3970940000000  0.4955240000000  0.4996980000000 1.0
C      1  0.4804090000000  0.5105670000000  0.3816350000000 1.0
C      1  0.4954890000000  0.5911430000000  0.4688570000000 1.0
C      1  0.4619700000000  0.5169890000000  0.5522250000000 1.0
C      1  0.4362760000000  0.4437270000000  0.5176720000000 1.0
C      1  0.5080800000000  0.4571680000000  0.4373470000000 1.0
C      1  0.5042930000000  0.3782230000000  0.4938650000000 1.0
C      1  0.5116250000000  0.5644830000000  0.4822470000000 1.0
C      1  0.6150400000000  0.4998860000000  0.4942860000000 1.0
C      1  0.4882400000000  0.5471930000000  0.4156240000000 1.0
C      1  0.5070800000000  0.5274620000000  0.5510580000000 1.0
C      1  0.6087040000000  0.4818460000000  0.4728360000000 1.0
C      1  0.5386610000000  0.5209920000000  0.4627110000000 1.0
C      1  0.5716380000000  0.4156010000000  0.4733100000000 1.0
C      1  0.4932200000000  0.4754080000000  0.4185940000000 1.0
C      1  0.5397500000000  0.5892630000000  0.4612740000000 1.0
C      1  0.6123050000000  0.5264710000000  0.4869560000000 1.0
C      1  0.5040190000000  0.4905590000000  0.4827460000000 1.0
C      1  0.3972100000000  0.4764180000000  0.5558760000000 1.0
C      1  0.3919450000000  0.4317900000000  0.5254430000000 1.0
C      1  0.4335470000000  0.5772420000000  0.5095130000000 1.0
C      1  0.5439760000000  0.5020760000000  0.4133190000000 1.0
C      1  0.4493960000000  0.5308880000000  0.5124940000000 1.0
C      1  0.4246700000000  0.4835290000000  0.5607490000000 1.0
C      1  0.3835900000000  0.4994350000000  0.5461300000000 1.0
C      1  0.4558820000000  0.4342750000000  0.5376540000000 1.0
C      1  0.5064810000000  0.5681990000000  0.5811140000000 1.0
C      1  0.5476680000000  0.4284860000000  0.5657610000000 1.0
C      1  0.4902240000000  0.6145830000000  0.4837720000000 1.0
C      1  0.4215130000000  0.4238400000000  0.4551190000000 1.0
C      1  0.4382340000000  0.5081030000000  0.6014260000000 1.0
C      1  0.4139060000000  0.5554730000000  0.5458110000000 1.0
C      1  0.5058150000000  0.5012540000000  0.5346740000000 1.0
C      1  0.4654090000000  0.6251090000000  0.4926540000000 1.0
C      1  0.5438230000000  0.5265640000000  0.5088200000000 1.0
C      1  0.5773280000000  0.4733590000000  0.5163640000000 1.0
C      1  0.4881410000000  0.4166010000000  0.5034630000000 1.0
C      1  0.4287230000000  0.5841570000000  0.4779680000000 1.0
C      1  0.6048820000000  0.4541220000000  0.4782750000000 1.0
C      1  0.4642190000000  0.5755380000000  0.4494660000000 1.0
C      1  0.5031920000000  0.4145070000000  0.5563250000000 1.0
C      1  0.5882120000000  0.5179230000000  0.5355580000000 1.0
C      1  0.4746190000000  0.5621380000000  0.5741140000000 1.0
C      1  0.4387030000000  0.4370260000000  0.4010670000000 1.0
C      1  0.5591930000000  0.4190330000000  0.5224920000000 1.0
C      1  0.5265800000000  0.5195980000000  0.4322250000000 1.0
C      1  0.5839260000000  0.5215870000000  0.4410380000000 1.0
C      1  0.5981040000000  0.4913240000000  0.4470310000000 1.0
C      1  0.6028680000000  0.4568340000000  0.5585580000000 1.0
C      1  0.4848040000000  0.4274750000000  0.4753380000000 1.0
C      1  0.5668630000000  0.4877340000000  0.4889430000000 1.0
C      1  0.4767930000000  0.4853460000000  0.4630220000000 1.0
C      1  0.4105500000000  0.5226300000000  0.4885190000000 1.0
C      1  0.6058210000000  0.4611370000000  0.5298070000000 1.0
C      1  0.5960920000000  0.5258960000000  0.5664450000000 1.0
C      1  0.5800060000000  0.4122480000000  0.5023670000000 1.0
C      1  0.5392460000000  0.4096240000000  0.4648590000000 1.0
C      1  0.5251030000000  0.4930820000000  0.4613910000000 1.0
C      1  0.4472010000000  0.4323190000000  0.5698200000000 1.0
C      1  0.5499940000000  0.5727880000000  0.4921550000000 1.0
C      1  0.4364020000000  0.5028610000000  0.4986100000000 1.0
C      1  0.4820910000000  0.5356300000000  0.5212140000000 1.0
C      1  0.5359190000000  0.5990940000000  0.5262990000000 1.0
C      1  0.4441490000000  0.5427500000000  0.4816260000000 1.0
C      1  0.5402510000000  0.5441040000000  0.4133010000000 1.0
C      1  0.5608990000000  0.5173810000000  0.4830410000000 1.0
C      1  0.5347880000000  0.5288330000000  0.3851970000000 1.0
C      1  0.5567700000000  0.4766980000000  0.5873720000000 1.0
C      1  0.5221870000000  0.3966660000000  0.5442290000000 1.0
C      1  0.4370420000000  0.4889180000000  0.4612230000000 1.0
C      1  0.5114930000000  0.6181270000000  0.5020170000000 1.0
C      1  0.5759830000000  0.5400050000000  0.5812430000000 1.0
C      1  0.4354130000000  0.4692120000000  0.5039240000000 1.0
C      1  0.4328490000000  0.5605930000000  0.5730870000000 1.0
C      1  0.5487120000000  0.5137080000000  0.5443410000000 1.0
C      1  0.5468690000000  0.5476830000000  0.5439660000000 1.0
C      1  0.5095850000000  0.6116130000000  0.4281670000000 1.0
C      1  0.4026430000000  0.5061660000000  0.4227780000000 1.0
C      1  0.4848410000000  0.5012830000000  0.6131700000000 1.0
C      1  0.5721190000000  0.5383350000000  0.5233560000000 1.0
C      1  0.4807760000000  0.5002890000000  0.5734200000000 1.0
C      1  0.4086180000000  0.4731370000000  0.4871750000000 1.0
C      1  0.4484490000000  0.4046200000000  0.5496030000000 1.0
C      1  0.4745440000000  0.4979910000000  0.5308990000000 1.0
C      1  0.5456370000000  0.4504530000000  0.5244550000000 1.0
C      1  0.5009740000000  0.4538370000000  0.4671850000000 1.0
C      1  0.5386310000000  0.6032560000000  0.4925750000000 1.0
C      1  0.4275540000000  0.5206300000000  0.4238770000000 1.0
C      1  0.4877990000000  0.4562820000000  0.3921410000000 1.0
C      1  0.4231080000000  0.4153780000000  0.4832930000000 1.0
C      1  0.5292340000000  0.4533770000000  0.5513660000000 1.0
C      1  0.4755700000000  0.4146740000000  0.4247720000000 1.0
C      1  0.5102950000000  0.4928160000000  0.5808220000000 1.0
END
