TITL C-2782234-8014-120 0.00047334212297674 125000 -675.796747087569 0 0 119 (C1) n - 1
REM
REM in /home/nfs/bkarasulu/CARBON/AIRSS/Generating-Clusters/REBO/Higher-Symm/SD-CG/HFTN-CG
REM
REM
REM
REM
REM
REM ./C.cell (12c818d87b63d06a65506943cc24bca4)
REM
REM compiler GCC version 9.2.1 20190827 (Red Hat 9.2.1-1)
REM options -cpp -mtune=generic -march=x86-64 -g -O0 -fpre-include=/usr/include/finclude/math-vector-fortran.h
REM seed -1249962700 -2112955536 -321076574 -1476420188 587396658 91867381 -122782351 -322649551 -240254246 1134489070 -314579283 492420869 2022145755 1951398541 -1439229785 450101596 -1376063332 1622750516 -1995237055 1480960653 -717448705 -1520008656 125731656 -1050851882 -1469860841 -102960939 67576281 -675544350 -733108886 1788817270 1592446214 909674728 -1786796137
REM
CELL 1.54180   50.00000   50.00000   50.00000   90.00000   90.00000   90.00000
LATT -1
SFAC C  
C      1  0.4681650000000  0.5198070000000  0.5906020000000 1.0
C      1  0.5599190000000  0.5210810000000  0.5515730000000 1.0
C      1  0.5742500000000  0.5187660000000  0.4525730000000 1.0
C      1  0.4844680000000  0.5134860000000  0.4190030000000 1.0
C      1  0.4181200000000  0.5108020000000  0.4990450000000 1.0
C      1  0.4735460000000  0.4875280000000  0.5842490000000 1.0
C      1  0.5581920000000  0.4878590000000  0.5479740000000 1.0
C      1  0.5689050000000  0.4860040000000  0.4543530000000 1.0
C      1  0.4778740000000  0.4816530000000  0.4111330000000 1.0
C      1  0.4170020000000  0.4774300000000  0.4960710000000 1.0
C      1  0.5875350000000  0.4677990000000  0.4845520000000 1.0
C      1  0.5122740000000  0.4675890000000  0.3970030000000 1.0
C      1  0.4105030000000  0.4659420000000  0.4584270000000 1.0
C      1  0.4370490000000  0.4687750000000  0.5650920000000 1.0
C      1  0.5419170000000  0.4694860000000  0.5794560000000 1.0
C      1  0.5911780000000  0.5319050000000  0.4861040000000 1.0
C      1  0.5138490000000  0.5303690000000  0.3979760000000 1.0
C      1  0.4126870000000  0.5275570000000  0.4600160000000 1.0
C      1  0.4381790000000  0.5322280000000  0.5673160000000 1.0
C      1  0.5409020000000  0.5329780000000  0.5844330000000 1.0
C      1  0.4791110000000  0.4274470000000  0.5422240000000 1.0
C      1  0.5321900000000  0.4285480000000  0.5291330000000 1.0
C      1  0.5400920000000  0.4269820000000  0.4757760000000 1.0
C      1  0.4920790000000  0.4292420000000  0.4497080000000 1.0
C      1  0.4554160000000  0.4351000000000  0.4948220000000 1.0
C      1  0.4789580000000  0.5710520000000  0.5404780000000 1.0
C      1  0.5333030000000  0.5661700000000  0.5302980000000 1.0
C      1  0.5422380000000  0.5693400000000  0.4767660000000 1.0
C      1  0.4954600000000  0.5654050000000  0.4535690000000 1.0
C      1  0.4538510000000  0.5714950000000  0.4911930000000 1.0
C      1  0.4429440000000  0.5532510000000  0.5336900000000 1.0
C      1  0.5114230000000  0.5556810000000  0.5697770000000 1.0
C      1  0.5626790000000  0.5517410000000  0.5058720000000 1.0
C      1  0.5302610000000  0.5476100000000  0.4456090000000 1.0
C      1  0.4635400000000  0.5441650000000  0.4644910000000 1.0
C      1  0.4450660000000  0.4459180000000  0.5328190000000 1.0
C      1  0.5102300000000  0.4491400000000  0.5647260000000 1.0
C      1  0.5594170000000  0.4471720000000  0.5040560000000 1.0
C      1  0.5274090000000  0.4468230000000  0.4434610000000 1.0
C      1  0.4558280000000  0.4444630000000  0.4561380000000 1.0
C      1  0.5420980000000  0.5396500000000  0.4148810000000 1.0
C      1  0.4407370000000  0.5338790000000  0.4419940000000 1.0
C      1  0.4167680000000  0.5330010000000  0.5409650000000 1.0
C      1  0.5081790000000  0.5317150000000  0.5938040000000 1.0
C      1  0.5929060000000  0.5415630000000  0.5187690000000 1.0
C      1  0.5395630000000  0.4621100000000  0.4162930000000 1.0
C      1  0.4357950000000  0.4619090000000  0.4359250000000 1.0
C      1  0.4157150000000  0.4624280000000  0.5391870000000 1.0
C      1  0.5096620000000  0.4715700000000  0.5896690000000 1.0
C      1  0.5884960000000  0.4595240000000  0.5175180000000 1.0
C      1  0.4640410000000  0.4621320000000  0.5098670000000 1.0
C      1  0.4875790000000  0.4602150000000  0.5420900000000 1.0
C      1  0.5284510000000  0.4572600000000  0.5137960000000 1.0
C      1  0.5304150000000  0.4588590000000  0.4739370000000 1.0
C      1  0.4841810000000  0.4598050000000  0.4610090000000 1.0
C      1  0.4611780000000  0.5436080000000  0.5083770000000 1.0
C      1  0.4913050000000  0.5398680000000  0.5473750000000 1.0
C      1  0.5329760000000  0.5377470000000  0.5151540000000 1.0
C      1  0.5348650000000  0.5360600000000  0.4754030000000 1.0
C      1  0.4945690000000  0.5351930000000  0.4667920000000 1.0
C      1  0.5192570000000  0.5170530000000  0.5650280000000 1.0
C      1  0.5749550000000  0.5141690000000  0.5094120000000 1.0
C      1  0.5239490000000  0.5137280000000  0.4254120000000 1.0
C      1  0.4416820000000  0.5108820000000  0.4669110000000 1.0
C      1  0.4453200000000  0.5139630000000  0.5402880000000 1.0
C      1  0.5204870000000  0.4874890000000  0.5612600000000 1.0
C      1  0.5690240000000  0.4856130000000  0.5066110000000 1.0
C      1  0.5163340000000  0.4845180000000  0.4262130000000 1.0
C      1  0.4406020000000  0.4805620000000  0.4639940000000 1.0
C      1  0.4405850000000  0.4852880000000  0.5361720000000 1.0
C      1  0.5140750000000  0.5853090000000  0.4725070000000 1.0
C      1  0.4811610000000  0.5845260000000  0.4773220000000 1.0
C      1  0.4765880000000  0.5852560000000  0.5108130000000 1.0
C      1  0.5058180000000  0.5844250000000  0.5260290000000 1.0
C      1  0.5292250000000  0.5848550000000  0.5026810000000 1.0
C      1  0.5108060000000  0.4124300000000  0.4717460000000 1.0
C      1  0.4788060000000  0.4174800000000  0.4788130000000 1.0
C      1  0.4742590000000  0.4143340000000  0.5119710000000 1.0
C      1  0.5039580000000  0.4114510000000  0.5264110000000 1.0
C      1  0.5267180000000  0.4107970000000  0.5014300000000 1.0
C      1  0.5297640000000  0.4822870000000  0.5301550000000 1.0
C      1  0.5494420000000  0.4799600000000  0.4799470000000 1.0
C      1  0.4890370000000  0.4821680000000  0.4432400000000 1.0
C      1  0.4495780000000  0.4849960000000  0.4962570000000 1.0
C      1  0.4711840000000  0.4838210000000  0.5507130000000 1.0
C      1  0.5322010000000  0.5150310000000  0.5347610000000 1.0
C      1  0.5561280000000  0.5133580000000  0.4808570000000 1.0
C      1  0.5005280000000  0.5134690000000  0.4486460000000 1.0
C      1  0.4513570000000  0.5184060000000  0.4974040000000 1.0
C      1  0.4739750000000  0.5173000000000  0.5575620000000 1.0
C      1  0.5428930000000  0.5570430000000  0.5603600000000 1.0
C      1  0.5707740000000  0.5531590000000  0.4725910000000 1.0
C      1  0.5034750000000  0.5480480000000  0.4252600000000 1.0
C      1  0.4326610000000  0.5481290000000  0.4784690000000 1.0
C      1  0.4591570000000  0.5574390000000  0.5633180000000 1.0
C      1  0.5408220000000  0.4440950000000  0.5565640000000 1.0
C      1  0.5679110000000  0.4456240000000  0.4710320000000 1.0
C      1  0.5005040000000  0.4480950000000  0.4225300000000 1.0
C      1  0.4292840000000  0.4444840000000  0.4770440000000 1.0
C      1  0.4586460000000  0.4435520000000  0.5639240000000 1.0
C      1  0.4204260000000  0.4480350000000  0.5091230000000 1.0
C      1  0.4810100000000  0.4559430000000  0.5812470000000 1.0
C      1  0.5612770000000  0.4585130000000  0.5365240000000 1.0
C      1  0.5598080000000  0.4580580000000  0.4421620000000 1.0
C      1  0.4671120000000  0.4540310000000  0.4253080000000 1.0
C      1  0.4213910000000  0.5421730000000  0.5090760000000 1.0
C      1  0.4810050000000  0.5497540000000  0.5846500000000 1.0
C      1  0.5680210000000  0.5487370000000  0.5396430000000 1.0
C      1  0.5638200000000  0.5449180000000  0.4403260000000 1.0
C      1  0.4716940000000  0.5399900000000  0.4316950000000 1.0
C      1  0.4428270000000  0.5000370000000  0.5776580000000 1.0
C      1  0.5930910000000  0.4998960000000  0.4742610000000 1.0
C      1  0.4042910000000  0.4968590000000  0.4711410000000 1.0
C      1  0.5534960000000  0.5016600000000  0.5788190000000 1.0
C      1  0.5006360000000  0.4993600000000  0.3926600000000 1.0
C      1  0.4895560000000  0.5409990000000  0.5164500000000 1.0
C      1  0.5031100000000  0.4632640000000  0.4834560000000 1.0
C      1  0.4959720000000  0.4634900000000  0.5126280000000 1.0
C      1  0.5090170000000  0.5349640000000  0.4942620000000 1.0
END
