TITL C-2782239-8622-88 -0.00223677960395014 125000 -383.683707578758 0 0 67 (C1) n - 1
REM
REM in /home/nfs/bkarasulu/CARBON/AIRSS/Generating-Clusters/REBO/Higher-Symm/SD-CG/HFTN-CG
REM
REM
REM
REM
REM
REM ./C.cell (12c818d87b63d06a65506943cc24bca4)
REM
REM compiler GCC version 9.2.1 20190827 (Red Hat 9.2.1-1)
REM options -cpp -mtune=generic -march=x86-64 -g -O0 -fpre-include=/usr/include/finclude/math-vector-fortran.h
REM seed 1447249514 -1137334871 1143660389 1989543210 1912080353 776612770 84651248 76254183 -334303294 1291718343 -1256914459 -1608846171 -1725463482 -26971489 291341413 1947261961 -1551873937 1711674982 2081846438 493539104 -1193249077 1266119656 -404198535 911395713 -1096740778 1216653802 -2010807685 716602480 -1196487993 1699162258 1247505968 32863382 -1223648172
REM
CELL 1.54180   50.00000   50.00000   50.00000   90.00000   90.00000   90.00000
LATT -1
SFAC C  
C      1  0.4883280000000  0.4567160000000  0.4254260000000 1.0
C      1  0.5101630000000  0.4545680000000  0.5611700000000 1.0
C      1  0.4788510000000  0.5614810000000  0.4667750000000 1.0
C      1  0.5304720000000  0.5722330000000  0.5259460000000 1.0
C      1  0.5509680000000  0.4793810000000  0.5477010000000 1.0
C      1  0.4494950000000  0.4773600000000  0.4485590000000 1.0
C      1  0.5488710000000  0.5546320000000  0.4776180000000 1.0
C      1  0.4562950000000  0.5525470000000  0.5171010000000 1.0
C      1  0.4514490000000  0.5013680000000  0.5382010000000 1.0
C      1  0.5493750000000  0.5033090000000  0.4643550000000 1.0
C      1  0.5415490000000  0.4954800000000  0.4136940000000 1.0
C      1  0.4433960000000  0.4948070000000  0.5886860000000 1.0
C      1  0.4410430000000  0.5227710000000  0.5157830000000 1.0
C      1  0.5657360000000  0.5268460000000  0.4813870000000 1.0
C      1  0.4657620000000  0.5677930000000  0.4960860000000 1.0
C      1  0.5462290000000  0.5749580000000  0.4972050000000 1.0
C      1  0.5055720000000  0.4521530000000  0.4687710000000 1.0
C      1  0.4865720000000  0.4345870000000  0.5197940000000 1.0
C      1  0.4780470000000  0.4833750000000  0.4393180000000 1.0
C      1  0.5229620000000  0.4829560000000  0.5603330000000 1.0
C      1  0.5708870000000  0.4979750000000  0.4974650000000 1.0
C      1  0.4380520000000  0.4929380000000  0.5017310000000 1.0
C      1  0.4982500000000  0.4825480000000  0.4667240000000 1.0
C      1  0.5048860000000  0.5000000000000  0.5415540000000 1.0
C      1  0.4620740000000  0.5132850000000  0.5810490000000 1.0
C      1  0.5274110000000  0.5167450000000  0.4232340000000 1.0
C      1  0.5601790000000  0.4571940000000  0.4734520000000 1.0
C      1  0.4340160000000  0.4582700000000  0.5247530000000 1.0
C      1  0.4632890000000  0.4791890000000  0.5072830000000 1.0
C      1  0.5461890000000  0.4844260000000  0.4991640000000 1.0
C      1  0.5204470000000  0.5329700000000  0.4437030000000 1.0
C      1  0.4738260000000  0.5260720000000  0.5602520000000 1.0
C      1  0.5146460000000  0.5253770000000  0.4970930000000 1.0
C      1  0.4809650000000  0.5245560000000  0.5027020000000 1.0
C      1  0.5465280000000  0.5305010000000  0.5092170000000 1.0
C      1  0.4527590000000  0.5300640000000  0.4845090000000 1.0
C      1  0.4441460000000  0.5246960000000  0.4594930000000 1.0
C      1  0.5537700000000  0.5264870000000  0.5353830000000 1.0
C      1  0.5601270000000  0.4783190000000  0.4545820000000 1.0
C      1  0.4337000000000  0.4790290000000  0.5444710000000 1.0
C      1  0.4402510000000  0.4499430000000  0.4926690000000 1.0
C      1  0.5581100000000  0.4469230000000  0.5047800000000 1.0
C      1  0.5221660000000  0.5501930000000  0.5413040000000 1.0
C      1  0.4822870000000  0.5359070000000  0.4551350000000 1.0
C      1  0.5001750000000  0.4405400000000  0.4410400000000 1.0
C      1  0.4975480000000  0.4368360000000  0.5455750000000 1.0
C      1  0.4800120000000  0.4905230000000  0.5313200000000 1.0
C      1  0.5215530000000  0.4976820000000  0.4819610000000 1.0
C      1  0.4807750000000  0.5066770000000  0.4238600000000 1.0
C      1  0.5246650000000  0.4944760000000  0.5862410000000 1.0
C      1  0.4750520000000  0.5333190000000  0.5337360000000 1.0
C      1  0.5225770000000  0.5434840000000  0.4696960000000 1.0
C      1  0.4926840000000  0.5832600000000  0.4872260000000 1.0
C      1  0.5165890000000  0.5878060000000  0.5008090000000 1.0
C      1  0.5140040000000  0.5247330000000  0.5316790000000 1.0
C      1  0.4865580000000  0.5136920000000  0.4712200000000 1.0
C      1  0.4284540000000  0.4780430000000  0.5724810000000 1.0
C      1  0.5575880000000  0.4767730000000  0.4262020000000 1.0
C      1  0.4450220000000  0.4551120000000  0.4657230000000 1.0
C      1  0.5562810000000  0.4573600000000  0.5305470000000 1.0
C      1  0.5327040000000  0.4422000000000  0.4843450000000 1.0
C      1  0.4596060000000  0.4403860000000  0.5161390000000 1.0
C      1  0.4322610000000  0.4989780000000  0.4554420000000 1.0
C      1  0.5675030000000  0.5023260000000  0.5430950000000 1.0
C      1  0.4197050000000  0.4913990000000  0.4802630000000 1.0
C      1  0.5861860000000  0.4975060000000  0.5215040000000 1.0
C      1  0.5032180000000  0.4374550000000  0.4983740000000 1.0
END
