TITL C-2782234-8014-366 0.00391894705771411 125000 -857.025904761036 0 0 148 (C1) n - 1
REM
REM in /home/nfs/bkarasulu/CARBON/AIRSS/Generating-Clusters/REBO/Higher-Symm/SD-CG/HFTN-CG
REM
REM
REM
REM
REM
REM ./C.cell (12c818d87b63d06a65506943cc24bca4)
REM
REM compiler GCC version 9.2.1 20190827 (Red Hat 9.2.1-1)
REM options -cpp -mtune=generic -march=x86-64 -g -O0 -fpre-include=/usr/include/finclude/math-vector-fortran.h
REM seed 1113223070 -594560990 1213742001 -445695670 1821813998 -1069640591 -1531592230 -1312044466 1540401330 1276052486 -881157467 -718492654 -174785573 -1209785000 -1601416801 -1196090894 -619151941 -1334791240 -1613680743 1425692403 1702479733 521962512 516253651 70304178 -1747338135 1884632766 -986390436 2059969501 44670301 1729687282 -402114669 1318832638 -1378897172
REM
CELL 1.54180   50.00000   50.00000   50.00000   90.00000   90.00000   90.00000
LATT -1
SFAC C  
C      1  0.4416040000000  0.4440410000000  0.5518600000000 1.0
C      1  0.4351580000000  0.4402680000000  0.4619690000000 1.0
C      1  0.5192770000000  0.4386450000000  0.4271920000000 1.0
C      1  0.5802720000000  0.4354890000000  0.4926740000000 1.0
C      1  0.5203040000000  0.4336210000000  0.5700710000000 1.0
C      1  0.4465720000000  0.5608160000000  0.5638510000000 1.0
C      1  0.4327760000000  0.5552200000000  0.4608810000000 1.0
C      1  0.5161200000000  0.5613800000000  0.4210830000000 1.0
C      1  0.5780910000000  0.5619600000000  0.4958310000000 1.0
C      1  0.5244920000000  0.5550790000000  0.5981000000000 1.0
C      1  0.4756150000000  0.4837750000000  0.5516600000000 1.0
C      1  0.4157290000000  0.4821720000000  0.4889590000000 1.0
C      1  0.4926420000000  0.4839180000000  0.4270560000000 1.0
C      1  0.5595360000000  0.4842020000000  0.4704750000000 1.0
C      1  0.5515750000000  0.4842920000000  0.5718830000000 1.0
C      1  0.4721020000000  0.5167300000000  0.5526870000000 1.0
C      1  0.4172690000000  0.5104680000000  0.4885380000000 1.0
C      1  0.4913760000000  0.5167170000000  0.4301870000000 1.0
C      1  0.5625090000000  0.5176580000000  0.4684040000000 1.0
C      1  0.5556680000000  0.5172460000000  0.5643010000000 1.0
C      1  0.5400410000000  0.4003710000000  0.4660230000000 1.0
C      1  0.5466540000000  0.4073870000000  0.5291020000000 1.0
C      1  0.4761050000000  0.4001610000000  0.5590400000000 1.0
C      1  0.4461790000000  0.4039510000000  0.5095440000000 1.0
C      1  0.4773260000000  0.4009380000000  0.4538150000000 1.0
C      1  0.5462290000000  0.6011500000000  0.4489190000000 1.0
C      1  0.5435640000000  0.5921270000000  0.5274590000000 1.0
C      1  0.4932520000000  0.5947050000000  0.5408420000000 1.0
C      1  0.4569710000000  0.5972380000000  0.5192930000000 1.0
C      1  0.4700040000000  0.5971730000000  0.4509590000000 1.0
C      1  0.5006240000000  0.4508630000000  0.5330630000000 1.0
C      1  0.4506040000000  0.4480290000000  0.5121690000000 1.0
C      1  0.4845140000000  0.4538630000000  0.4776610000000 1.0
C      1  0.5243410000000  0.4513150000000  0.4755950000000 1.0
C      1  0.5355250000000  0.4528300000000  0.5139490000000 1.0
C      1  0.4834260000000  0.5414600000000  0.5234110000000 1.0
C      1  0.4525710000000  0.5432080000000  0.5077170000000 1.0
C      1  0.4886730000000  0.5524540000000  0.4764420000000 1.0
C      1  0.5363510000000  0.5558690000000  0.4561640000000 1.0
C      1  0.5299150000000  0.5475080000000  0.5056000000000 1.0
C      1  0.4486750000000  0.4603730000000  0.4046220000000 1.0
C      1  0.5723450000000  0.4747040000000  0.4174440000000 1.0
C      1  0.5949580000000  0.4613370000000  0.5401780000000 1.0
C      1  0.4747980000000  0.4608270000000  0.5959640000000 1.0
C      1  0.3895310000000  0.4707320000000  0.5419180000000 1.0
C      1  0.4487090000000  0.5324260000000  0.4052040000000 1.0
C      1  0.5680160000000  0.5460170000000  0.4068870000000 1.0
C      1  0.5928780000000  0.5359650000000  0.5456850000000 1.0
C      1  0.4710020000000  0.5297720000000  0.6021900000000 1.0
C      1  0.3940400000000  0.5420090000000  0.5568200000000 1.0
C      1  0.5043500000000  0.5607300000000  0.4531790000000 1.0
C      1  0.5467630000000  0.5621250000000  0.4832330000000 1.0
C      1  0.5341860000000  0.5601480000000  0.5333860000000 1.0
C      1  0.4584530000000  0.5599770000000  0.5335650000000 1.0
C      1  0.4588820000000  0.5536800000000  0.4803530000000 1.0
C      1  0.5025180000000  0.4376270000000  0.4565040000000 1.0
C      1  0.5480510000000  0.4377440000000  0.4896380000000 1.0
C      1  0.5294790000000  0.4334440000000  0.5386270000000 1.0
C      1  0.4727750000000  0.4418590000000  0.5372410000000 1.0
C      1  0.4589240000000  0.4400450000000  0.4854210000000 1.0
C      1  0.5052070000000  0.4078810000000  0.5570710000000 1.0
C      1  0.4506350000000  0.4159380000000  0.5359390000000 1.0
C      1  0.4530540000000  0.4125230000000  0.4679330000000 1.0
C      1  0.5184310000000  0.4105840000000  0.4466040000000 1.0
C      1  0.5597490000000  0.4091430000000  0.4996930000000 1.0
C      1  0.5182550000000  0.5841290000000  0.5490210000000 1.0
C      1  0.4641560000000  0.5868790000000  0.5505950000000 1.0
C      1  0.4500310000000  0.5833830000000  0.4692330000000 1.0
C      1  0.5194310000000  0.5886750000000  0.4409360000000 1.0
C      1  0.5575980000000  0.5891680000000  0.4978750000000 1.0
C      1  0.5955310000000  0.4556480000000  0.5134780000000 1.0
C      1  0.5038930000000  0.4544430000000  0.5914430000000 1.0
C      1  0.4125570000000  0.4597550000000  0.5499210000000 1.0
C      1  0.4378220000000  0.4582250000000  0.4349250000000 1.0
C      1  0.5446870000000  0.4612820000000  0.4276420000000 1.0
C      1  0.5929500000000  0.5417950000000  0.5188960000000 1.0
C      1  0.4973740000000  0.5394680000000  0.6039130000000 1.0
C      1  0.4198310000000  0.5419660000000  0.5652850000000 1.0
C      1  0.4353450000000  0.5371380000000  0.4340150000000 1.0
C      1  0.5408550000000  0.5470910000000  0.4045230000000 1.0
C      1  0.4321830000000  0.5194210000000  0.5132410000000 1.0
C      1  0.4627460000000  0.5201250000000  0.4405810000000 1.0
C      1  0.5450560000000  0.5274450000000  0.4463440000000 1.0
C      1  0.5617800000000  0.5158040000000  0.5306500000000 1.0
C      1  0.5006810000000  0.5295630000000  0.5469330000000 1.0
C      1  0.4273330000000  0.4719420000000  0.5148040000000 1.0
C      1  0.4646810000000  0.4768640000000  0.4373180000000 1.0
C      1  0.5359570000000  0.4720430000000  0.4558690000000 1.0
C      1  0.5497020000000  0.4779390000000  0.5217420000000 1.0
C      1  0.5060890000000  0.4767510000000  0.5489570000000 1.0
C      1  0.4654040000000  0.5061160000000  0.6168880000000 1.0
C      1  0.3784610000000  0.5216220000000  0.5472950000000 1.0
C      1  0.4544080000000  0.5099900000000  0.3913360000000 1.0
C      1  0.5850870000000  0.5246440000000  0.4088220000000 1.0
C      1  0.5946080000000  0.5111910000000  0.5575670000000 1.0
C      1  0.4684950000000  0.4789910000000  0.6154700000000 1.0
C      1  0.3773180000000  0.4950680000000  0.5416590000000 1.0
C      1  0.4542960000000  0.4829520000000  0.3907800000000 1.0
C      1  0.5854720000000  0.4976120000000  0.4120570000000 1.0
C      1  0.5952040000000  0.4840180000000  0.5555620000000 1.0
C      1  0.5149610000000  0.3982810000000  0.5266040000000 1.0
C      1  0.4823010000000  0.3999750000000  0.5255890000000 1.0
C      1  0.4731060000000  0.4004530000000  0.4933710000000 1.0
C      1  0.5013120000000  0.3988450000000  0.4743480000000 1.0
C      1  0.5278090000000  0.3971330000000  0.4956780000000 1.0
C      1  0.5228980000000  0.6061070000000  0.5064290000000 1.0
C      1  0.4957730000000  0.6037140000000  0.5141020000000 1.0
C      1  0.4741470000000  0.5963660000000  0.4904020000000 1.0
C      1  0.4975380000000  0.5982600000000  0.4651140000000 1.0
C      1  0.5301310000000  0.6015210000000  0.4771680000000 1.0
C      1  0.5304840000000  0.5230830000000  0.5419160000000 1.0
C      1  0.4610630000000  0.5083280000000  0.5241430000000 1.0
C      1  0.4652220000000  0.5122510000000  0.4710180000000 1.0
C      1  0.5150310000000  0.5222580000000  0.4540340000000 1.0
C      1  0.5515430000000  0.5262470000000  0.5001280000000 1.0
C      1  0.5351550000000  0.4894640000000  0.5446620000000 1.0
C      1  0.4596600000000  0.4772870000000  0.5241130000000 1.0
C      1  0.4763250000000  0.4803370000000  0.4669280000000 1.0
C      1  0.5119170000000  0.4898730000000  0.4514890000000 1.0
C      1  0.5475300000000  0.4952780000000  0.4971860000000 1.0
C      1  0.5454640000000  0.5347570000000  0.5885330000000 1.0
C      1  0.4569200000000  0.5317700000000  0.5753130000000 1.0
C      1  0.4144570000000  0.5280120000000  0.4665080000000 1.0
C      1  0.5042600000000  0.5335780000000  0.4083060000000 1.0
C      1  0.5861060000000  0.5331930000000  0.4814040000000 1.0
C      1  0.5375830000000  0.4585590000000  0.5854520000000 1.0
C      1  0.4600780000000  0.4650750000000  0.5707000000000 1.0
C      1  0.4146560000000  0.4654780000000  0.4662980000000 1.0
C      1  0.5097930000000  0.4656270000000  0.4097680000000 1.0
C      1  0.5832750000000  0.4657940000000  0.4775380000000 1.0
C      1  0.4323930000000  0.4797500000000  0.5669560000000 1.0
C      1  0.4122650000000  0.4804560000000  0.4381930000000 1.0
C      1  0.5359500000000  0.4851690000000  0.4046780000000 1.0
C      1  0.6036110000000  0.4823280000000  0.4961340000000 1.0
C      1  0.5177630000000  0.4842650000000  0.5930400000000 1.0
C      1  0.4315060000000  0.5122720000000  0.5673340000000 1.0
C      1  0.4112890000000  0.5134570000000  0.4381210000000 1.0
C      1  0.5283530000000  0.5169350000000  0.3949060000000 1.0
C      1  0.6005010000000  0.5143260000000  0.5023190000000 1.0
C      1  0.5190840000000  0.5159410000000  0.5963390000000 1.0
C      1  0.5066940000000  0.5044370000000  0.5680850000000 1.0
C      1  0.4258480000000  0.4964750000000  0.5378440000000 1.0
C      1  0.5806060000000  0.4922570000000  0.5192670000000 1.0
C      1  0.4403900000000  0.4977550000000  0.4297430000000 1.0
C      1  0.5492480000000  0.5118610000000  0.4210460000000 1.0
C      1  0.5012260000000  0.5465830000000  0.4992630000000 1.0
C      1  0.5047930000000  0.4579110000000  0.5018630000000 1.0
C      1  0.4967340000000  0.5058940000000  0.4769400000000 1.0
END
