TITL C-2782236-320-889 -0.00473937497748265 125000 -312.28208425211 0 0 57 (C1) n - 1
REM
REM in /home/nfs/bkarasulu/CARBON/AIRSS/Generating-Clusters/REBO/Higher-Symm/SD-CG/HFTN-CG
REM
REM
REM
REM
REM
REM ./C.cell (12c818d87b63d06a65506943cc24bca4)
REM
REM compiler GCC version 9.2.1 20190827 (Red Hat 9.2.1-1)
REM options -cpp -mtune=generic -march=x86-64 -g -O0 -fpre-include=/usr/include/finclude/math-vector-fortran.h
REM seed 720887280 1358639694 1469931849 1540183838 -1388656140 -1745355503 1390227252 -1727673304 2125450864 -776268516 -1669482457 -997291557 -1960221699 -790063407 -1075446685 2033935132 -1704133836 2109773258 -112501281 2099266601 1409260948 627136148 -1872544426 -967685065 1351679170 767248552 -981612968 709261825 -2077500295 1442521385 1912464465 -663932344 1017289273
REM
CELL 1.54180   50.00000   50.00000   50.00000   90.00000   90.00000   90.00000
LATT -1
SFAC C  
C      1  0.4877610000000  0.5418260000000  0.4443680000000 1.0
C      1  0.4393210000000  0.4839600000000  0.5471600000000 1.0
C      1  0.5472770000000  0.4274490000000  0.4833690000000 1.0
C      1  0.5165160000000  0.4558660000000  0.4421930000000 1.0
C      1  0.5109220000000  0.5518150000000  0.5617580000000 1.0
C      1  0.4864700000000  0.4524360000000  0.5601310000000 1.0
C      1  0.5573090000000  0.5152970000000  0.5514280000000 1.0
C      1  0.5553910000000  0.4831630000000  0.4610160000000 1.0
C      1  0.4398020000000  0.5105060000000  0.4528320000000 1.0
C      1  0.4544520000000  0.5579240000000  0.4885690000000 1.0
C      1  0.4615040000000  0.4437360000000  0.5175060000000 1.0
C      1  0.5444980000000  0.5564870000000  0.5161890000000 1.0
C      1  0.4812750000000  0.5492970000000  0.5668760000000 1.0
C      1  0.4382210000000  0.4822040000000  0.4627900000000 1.0
C      1  0.5493470000000  0.4409340000000  0.5071370000000 1.0
C      1  0.5162220000000  0.4509870000000  0.5558030000000 1.0
C      1  0.5158980000000  0.5400760000000  0.4457370000000 1.0
C      1  0.4884800000000  0.4595190000000  0.4447150000000 1.0
C      1  0.5653740000000  0.5112530000000  0.4578400000000 1.0
C      1  0.5576810000000  0.4869560000000  0.5483400000000 1.0
C      1  0.4387380000000  0.5120770000000  0.5510480000000 1.0
C      1  0.4559540000000  0.5541740000000  0.5164440000000 1.0
C      1  0.4538660000000  0.4453620000000  0.4888520000000 1.0
C      1  0.5477340000000  0.5585960000000  0.4880400000000 1.0
C      1  0.5311300000000  0.5118370000000  0.4478930000000 1.0
C      1  0.4424730000000  0.5286640000000  0.5249900000000 1.0
C      1  0.5225010000000  0.4488440000000  0.5215350000000 1.0
C      1  0.4706770000000  0.4853950000000  0.4553390000000 1.0
C      1  0.4670900000000  0.5255410000000  0.5557770000000 1.0
C      1  0.5294140000000  0.4768080000000  0.5487370000000 1.0
C      1  0.5537280000000  0.4732760000000  0.5174350000000 1.0
C      1  0.5527890000000  0.5297280000000  0.4762700000000 1.0
C      1  0.4329360000000  0.4668310000000  0.4851100000000 1.0
C      1  0.4838220000000  0.5533420000000  0.5325750000000 1.0
C      1  0.4757820000000  0.4495890000000  0.4718690000000 1.0
C      1  0.5222680000000  0.5541870000000  0.4715590000000 1.0
C      1  0.5274150000000  0.5282210000000  0.5526340000000 1.0
C      1  0.4478040000000  0.5313130000000  0.4727010000000 1.0
C      1  0.5265530000000  0.4363400000000  0.4640450000000 1.0
C      1  0.4676010000000  0.4720910000000  0.5480460000000 1.0
C      1  0.4727810000000  0.5153940000000  0.4459930000000 1.0
C      1  0.5330660000000  0.4790450000000  0.4398580000000 1.0
C      1  0.5449880000000  0.4748360000000  0.4864250000000 1.0
C      1  0.5553120000000  0.5301390000000  0.5248170000000 1.0
C      1  0.4441060000000  0.4729600000000  0.5159750000000 1.0
C      1  0.4775530000000  0.5574120000000  0.4679400000000 1.0
C      1  0.4911790000000  0.4498900000000  0.5249930000000 1.0
C      1  0.5153410000000  0.5573620000000  0.5282250000000 1.0
C      1  0.5202250000000  0.4830400000000  0.5167460000000 1.0
C      1  0.4767640000000  0.5209980000000  0.5233440000000 1.0
C      1  0.5202860000000  0.5197850000000  0.4796230000000 1.0
C      1  0.4804840000000  0.5243990000000  0.4794990000000 1.0
C      1  0.5199970000000  0.4614480000000  0.4815660000000 1.0
C      1  0.4777420000000  0.4802130000000  0.5164640000000 1.0
C      1  0.4936390000000  0.4782400000000  0.4796020000000 1.0
C      1  0.5210620000000  0.5243490000000  0.5192640000000 1.0
C      1  0.4981300000000  0.5047960000000  0.5017460000000 1.0
END
