TITL C-2782230-7391-989 0.00317620758443927 125000 -383.701354352394 0 0 67 (C2) n - 1
REM
REM in /home/nfs/bkarasulu/CARBON/AIRSS/Generating-Clusters/REBO/Higher-Symm/SD-CG/HFTN-CG
REM
REM
REM
REM
REM
REM ./C.cell (12c818d87b63d06a65506943cc24bca4)
REM
REM compiler GCC version 9.2.1 20190827 (Red Hat 9.2.1-1)
REM options -cpp -mtune=generic -march=x86-64 -g -O0 -fpre-include=/usr/include/finclude/math-vector-fortran.h
REM seed -487828577 1656739511 310175152 823024916 889833572 -1682050150 325126762 -2018668123 1891166874 -1583594231 -440231141 -1436513075 -1221533389 964744812 -2042831149 -1072286227 1734341484 2113955902 -117916325 -1016831068 -1111169834 -1265502804 -292324436 -1655180478 -1043800231 -556204674 1290341173 164958239 -1185273371 1956869799 1148426590 1775766642 -902808761
REM
CELL 1.54180   50.00000   50.00000   50.00000   90.00000   90.00000   90.00000
LATT -1
SFAC C  
C      1  0.4493920000000  0.5074330000000  0.4433890000000 1.0
C      1  0.5501240000000  0.5073980000000  0.5562530000000 1.0
C      1  0.5778270000000  0.4883820000000  0.4977120000000 1.0
C      1  0.4216870000000  0.4883870000000  0.5019190000000 1.0
C      1  0.4507930000000  0.4979320000000  0.5092380000000 1.0
C      1  0.5487220000000  0.4979330000000  0.4903990000000 1.0
C      1  0.4826990000000  0.5639240000000  0.4950070000000 1.0
C      1  0.5168210000000  0.5639200000000  0.5046660000000 1.0
C      1  0.4895810000000  0.5169690000000  0.5776160000000 1.0
C      1  0.5099360000000  0.5170100000000  0.4220310000000 1.0
C      1  0.5407770000000  0.5467400000000  0.5125300000000 1.0
C      1  0.4587420000000  0.5467510000000  0.4871330000000 1.0
C      1  0.4230860000000  0.4691360000000  0.4796670000000 1.0
C      1  0.5764270000000  0.4691190000000  0.5199540000000 1.0
C      1  0.5767050000000  0.5159010000000  0.5366780000000 1.0
C      1  0.4228120000000  0.5159280000000  0.4629690000000 1.0
C      1  0.4809240000000  0.4859820000000  0.5062270000000 1.0
C      1  0.5185900000000  0.4859840000000  0.4934030000000 1.0
C      1  0.4533070000000  0.5221490000000  0.5311300000000 1.0
C      1  0.5462100000000  0.5221630000000  0.4685200000000 1.0
C      1  0.5228490000000  0.4464700000000  0.4633240000000 1.0
C      1  0.4766620000000  0.4464520000000  0.5362840000000 1.0
C      1  0.5357190000000  0.5271470000000  0.5325850000000 1.0
C      1  0.4637990000000  0.5271680000000  0.4670680000000 1.0
C      1  0.5331810000000  0.4975770000000  0.5207960000000 1.0
C      1  0.4663330000000  0.4975910000000  0.4788400000000 1.0
C      1  0.5122130000000  0.4719610000000  0.4458580000000 1.0
C      1  0.4872990000000  0.4719330000000  0.5537640000000 1.0
C      1  0.5041660000000  0.5510790000000  0.4732780000000 1.0
C      1  0.4953530000000  0.5510650000000  0.5263880000000 1.0
C      1  0.4846940000000  0.5123290000000  0.5248240000000 1.0
C      1  0.5148220000000  0.5123420000000  0.4748210000000 1.0
C      1  0.5609810000000  0.4860660000000  0.4388000000000 1.0
C      1  0.4385330000000  0.4860380000000  0.5608300000000 1.0
C      1  0.5786530000000  0.5181260000000  0.5075080000000 1.0
C      1  0.4208640000000  0.5181370000000  0.4921400000000 1.0
C      1  0.4379290000000  0.4449650000000  0.4843980000000 1.0
C      1  0.5615820000000  0.4449520000000  0.5152100000000 1.0
C      1  0.5128690000000  0.4275040000000  0.5042060000000 1.0
C      1  0.4866400000000  0.4275070000000  0.4953930000000 1.0
C      1  0.5538670000000  0.5138240000000  0.4404050000000 1.0
C      1  0.4456490000000  0.5137960000000  0.5592400000000 1.0
C      1  0.5599460000000  0.5360600000000  0.4941270000000 1.0
C      1  0.4395720000000  0.5360620000000  0.5055300000000 1.0
C      1  0.4772660000000  0.5139380000000  0.4318480000000 1.0
C      1  0.5222500000000  0.5138990000000  0.5677970000000 1.0
C      1  0.5727030000000  0.4848400000000  0.5443740000000 1.0
C      1  0.4268110000000  0.4848700000000  0.4552550000000 1.0
C      1  0.4767400000000  0.4697290000000  0.4679360000000 1.0
C      1  0.5227720000000  0.4697090000000  0.5316850000000 1.0
C      1  0.5258490000000  0.4669790000000  0.5618440000000 1.0
C      1  0.4736630000000  0.4670150000000  0.4377760000000 1.0
C      1  0.4559190000000  0.4646920000000  0.5545350000000 1.0
C      1  0.5435930000000  0.4647190000000  0.4450840000000 1.0
C      1  0.5031380000000  0.4618040000000  0.4833950000000 1.0
C      1  0.4963740000000  0.4617960000000  0.5162220000000 1.0
C      1  0.4969970000000  0.4998500000000  0.5506700000000 1.0
C      1  0.5025180000000  0.4998780000000  0.4489680000000 1.0
C      1  0.5361220000000  0.5232730000000  0.4200190000000 1.0
C      1  0.4633950000000  0.5232330000000  0.5796320000000 1.0
C      1  0.4829760000000  0.5454990000000  0.4290820000000 1.0
C      1  0.5165420000000  0.5454600000000  0.5705800000000 1.0
C      1  0.4664320000000  0.4439410000000  0.4837520000000 1.0
C      1  0.5330790000000  0.4439300000000  0.5158560000000 1.0
C      1  0.4983800000000  0.5562530000000  0.4456230000000 1.0
C      1  0.5011390000000  0.5562230000000  0.5540460000000 1.0
C      1  0.4997590000000  0.5284690000000  0.4998270000000 1.0
END
