TITL C-2782233-7966-1158 0.109950517801658 125000 -197.565170176658 0 0 36 (C1) n - 1
REM
REM in /home/nfs/bkarasulu/CARBON/AIRSS/Generating-Clusters/REBO/Higher-Symm/SD-CG/HFTN-CG
REM
REM
REM
REM
REM
REM ./C.cell (12c818d87b63d06a65506943cc24bca4)
REM
REM compiler GCC version 9.2.1 20190827 (Red Hat 9.2.1-1)
REM options -cpp -mtune=generic -march=x86-64 -g -O0 -fpre-include=/usr/include/finclude/math-vector-fortran.h
REM seed 251145753 760266187 -182116570 -1185025208 -108801712 -1711299022 908847117 1877340830 1322262665 -467092676 -995731488 920019412 420734929 146180551 -701389792 2098116487 -1209569118 -325627087 -748237345 1317846660 265750383 1321476487 -990169751 946342949 287892473 581800952 -523075744 1703389653 302992426 -860295955 1559441073 -146728082 967001578
REM
CELL 1.54180   50.00000   50.00000   50.00000   90.00000   90.00000   90.00000
LATT -1
SFAC C  
C      1  0.5637210000000  0.5203390000000  0.5011870000000 1.0
C      1  0.5207430000000  0.4771770000000  0.4672360000000 1.0
C      1  0.4411700000000  0.5144420000000  0.4685190000000 1.0
C      1  0.5059050000000  0.5271970000000  0.5772380000000 1.0
C      1  0.5075880000000  0.5097220000000  0.5583900000000 1.0
C      1  0.4937180000000  0.4785760000000  0.4597050000000 1.0
C      1  0.5385610000000  0.4921990000000  0.4526410000000 1.0
C      1  0.4987180000000  0.5039730000000  0.5277680000000 1.0
C      1  0.4753520000000  0.5671390000000  0.5208430000000 1.0
C      1  0.5006230000000  0.4596060000000  0.5519760000000 1.0
C      1  0.4582260000000  0.5484420000000  0.5321050000000 1.0
C      1  0.5556340000000  0.5139850000000  0.4707140000000 1.0
C      1  0.4990740000000  0.5270590000000  0.4549650000000 1.0
C      1  0.4249770000000  0.5017570000000  0.4431180000000 1.0
C      1  0.4592950000000  0.5264170000000  0.4881480000000 1.0
C      1  0.5201560000000  0.4799940000000  0.5514830000000 1.0
C      1  0.4723560000000  0.4547030000000  0.5005630000000 1.0
C      1  0.4805250000000  0.5459040000000  0.4731590000000 1.0
C      1  0.5279720000000  0.5286330000000  0.4649170000000 1.0
C      1  0.4674550000000  0.4990790000000  0.5267850000000 1.0
C      1  0.5126880000000  0.5411090000000  0.4896880000000 1.0
C      1  0.4746490000000  0.4628560000000  0.4734690000000 1.0
C      1  0.5402960000000  0.4219210000000  0.5096020000000 1.0
C      1  0.4572060000000  0.5050680000000  0.4427540000000 1.0
C      1  0.4853160000000  0.5028400000000  0.4465940000000 1.0
C      1  0.4936560000000  0.4382490000000  0.5096160000000 1.0
C      1  0.4906930000000  0.5650750000000  0.4982630000000 1.0
C      1  0.4539490000000  0.5232470000000  0.5192060000000 1.0
C      1  0.4900150000000  0.5214960000000  0.5025890000000 1.0
C      1  0.5432180000000  0.4741910000000  0.5667120000000 1.0
C      1  0.5507500000000  0.5099250000000  0.5198890000000 1.0
C      1  0.5272300000000  0.4898880000000  0.5212450000000 1.0
C      1  0.5573730000000  0.4837210000000  0.4866190000000 1.0
C      1  0.5294260000000  0.4693380000000  0.4976290000000 1.0
C      1  0.4603620000000  0.4730240000000  0.5186800000000 1.0
C      1  0.5214030000000  0.4417100000000  0.5059890000000 1.0
END
