TITL C-2782240-8521-829 -0.000246778351922815 125000 -387.189890204421 0 0 68 (C3) n - 1
REM
REM in /home/nfs/bkarasulu/CARBON/AIRSS/Generating-Clusters/REBO/Higher-Symm/SD-CG/HFTN-CG
REM
REM
REM
REM
REM
REM ./C.cell (12c818d87b63d06a65506943cc24bca4)
REM
REM compiler GCC version 9.2.1 20190827 (Red Hat 9.2.1-1)
REM options -cpp -mtune=generic -march=x86-64 -g -O0 -fpre-include=/usr/include/finclude/math-vector-fortran.h
REM seed 1895706694 1522795727 -987548456 1866100520 -1960348720 852868541 1969568662 -2023453242 638573622 1104265360 -425285757 1797838415 -1906709638 939198162 -771697210 -786254323 -390626143 -1519982419 1875158140 1544972719 -1498248792 138141337 -1072092138 -1635254754 1779852753 250772619 -717005245 -1659065765 -1864151162 -482225813 468708982 -1570857094 766913176
REM
CELL 1.54180   50.00000   50.00000   50.00000   90.00000   90.00000   90.00000
LATT -1
SFAC C  
C      1  0.5495700000000  0.5445920000000  0.5069800000000 1.0
C      1  0.4691110000000  0.5445820000000  0.5398620000000 1.0
C      1  0.4808640000000  0.5446050000000  0.4537420000000 1.0
C      1  0.4265840000000  0.4808480000000  0.5316330000000 1.0
C      1  0.5092410000000  0.4808780000000  0.4210000000000 1.0
C      1  0.5637240000000  0.4808460000000  0.5479000000000 1.0
C      1  0.4446370000000  0.5094620000000  0.4333360000000 1.0
C      1  0.5853480000000  0.5094500000000  0.4857940000000 1.0
C      1  0.4695630000000  0.5094230000000  0.5814250000000 1.0
C      1  0.5715680000000  0.4565440000000  0.5039750000000 1.0
C      1  0.4606980000000  0.4565270000000  0.5603790000000 1.0
C      1  0.4672850000000  0.4565600000000  0.4361600000000 1.0
C      1  0.5683990000000  0.5331330000000  0.5539230000000 1.0
C      1  0.4190410000000  0.5331360000000  0.5326920000000 1.0
C      1  0.5121070000000  0.5331690000000  0.4139590000000 1.0
C      1  0.5062860000000  0.5049870000000  0.4552050000000 1.0
C      1  0.5355840000000  0.5049680000000  0.5282480000000 1.0
C      1  0.4576780000000  0.5049690000000  0.5170990000000 1.0
C      1  0.5277870000000  0.5044520000000  0.4978360000000 1.0
C      1  0.4879140000000  0.5044440000000  0.5255520000000 1.0
C      1  0.4838470000000  0.5044570000000  0.4771630000000 1.0
C      1  0.4802150000000  0.4384090000000  0.4994520000000 1.0
C      1  0.5102870000000  0.4384140000000  0.4835190000000 1.0
C      1  0.5090490000000  0.4384050000000  0.5175280000000 1.0
C      1  0.5174610000000  0.5468440000000  0.5414080000000 1.0
C      1  0.4553510000000  0.5468550000000  0.4948410000000 1.0
C      1  0.5267340000000  0.5468640000000  0.4643360000000 1.0
C      1  0.4922160000000  0.4690450000000  0.4401640000000 1.0
C      1  0.5556380000000  0.4690240000000  0.5235690000000 1.0
C      1  0.4516960000000  0.4690190000000  0.5367910000000 1.0
C      1  0.4445810000000  0.5235110000000  0.5383410000000 1.0
C      1  0.4944420000000  0.5235400000000  0.4332490000000 1.0
C      1  0.5605240000000  0.5235160000000  0.5289760000000 1.0
C      1  0.4116010000000  0.4921970000000  0.5113770000000 1.0
C      1  0.5342770000000  0.4922240000000  0.4181570000000 1.0
C      1  0.5536700000000  0.4921840000000  0.5710080000000 1.0
C      1  0.5240610000000  0.5551700000000  0.5150590000000 1.0
C      1  0.4748720000000  0.5551700000000  0.5137350000000 1.0
C      1  0.5006130000000  0.5551810000000  0.4717980000000 1.0
C      1  0.4540750000000  0.4503810000000  0.4831800000000 1.0
C      1  0.5374510000000  0.4503860000000  0.4690220000000 1.0
C      1  0.5080250000000  0.4503650000000  0.5483070000000 1.0
C      1  0.5831730000000  0.5119800000000  0.5103790000000 1.0
C      1  0.4493590000000  0.5119620000000  0.5672500000000 1.0
C      1  0.4670150000000  0.5120010000000  0.4229280000000 1.0
C      1  0.4566230000000  0.5164770000000  0.4860810000000 1.0
C      1  0.5336780000000  0.5164830000000  0.4698050000000 1.0
C      1  0.5092460000000  0.5164620000000  0.5446740000000 1.0
C      1  0.4536410000000  0.5416570000000  0.4552870000000 1.0
C      1  0.5618430000000  0.5416510000000  0.4826300000000 1.0
C      1  0.4840630000000  0.5416290000000  0.5626640000000 1.0
C      1  0.4466570000000  0.4794350000000  0.4971160000000 1.0
C      1  0.5290970000000  0.4794480000000  0.4556410000000 1.0
C      1  0.5237960000000  0.4794240000000  0.5477740000000 1.0
C      1  0.5521000000000  0.4959040000000  0.4409670000000 1.0
C      1  0.5250050000000  0.4958680000000  0.5750390000000 1.0
C      1  0.4224430000000  0.4958900000000  0.4845380000000 1.0
C      1  0.5020320000000  0.4677620000000  0.4707910000000 1.0
C      1  0.5242060000000  0.4677500000000  0.5167560000000 1.0
C      1  0.4733120000000  0.4677500000000  0.5129760000000 1.0
C      1  0.4862000000000  0.4472930000000  0.5640480000000 1.0
C      1  0.4513550000000  0.4473210000000  0.4564080000000 1.0
C      1  0.5619960000000  0.4473170000000  0.4800510000000 1.0
C      1  0.5655790000000  0.5152360000000  0.4614200000000 1.0
C      1  0.5005570000000  0.5152050000000  0.5764940000000 1.0
C      1  0.4334110000000  0.5152340000000  0.4626460000000 1.0
C      1  0.4998500000000  0.4851110000000  0.5001790000000 1.0
C      1  0.4998480000000  0.5605900000000  0.5001990000000 1.0
END
