TITL C-2782225-7408-69 -0.00709277394371414 125000 -1037.11156734185 0 0 179 (C1) n - 1
REM
REM in /home/nfs/bkarasulu/CARBON/AIRSS/Generating-Clusters/REBO/Higher-Symm/SD-CG/HFTN-CG
REM
REM
REM
REM
REM
REM ./C.cell (12c818d87b63d06a65506943cc24bca4)
REM
REM compiler GCC version 9.2.1 20190827 (Red Hat 9.2.1-1)
REM options -cpp -mtune=generic -march=x86-64 -g -O0 -fpre-include=/usr/include/finclude/math-vector-fortran.h
REM seed -297340825 748262717 -2107590475 1675165620 -1883606449 -1085902682 -160065301 265078450 146076626 -1225853281 -373214351 1782609395 -468852974 -863830631 -1501340219 -437915267 1279173484 -1413483829 1955692187 2055365356 879017070 1024470958 -788113937 23479900 1114561437 -761801089 972504949 -639463065 1445678488 -449486993 -1481942747 1753051033 -805623342
REM
CELL 1.54180   50.00000   50.00000   50.00000   90.00000   90.00000   90.00000
LATT -1
SFAC C  
C      1  0.4659440000000  0.5375870000000  0.4257120000000 1.0
C      1  0.5426930000000  0.4675960000000  0.5837110000000 1.0
C      1  0.5215420000000  0.5310320000000  0.5044810000000 1.0
C      1  0.4867620000000  0.6109750000000  0.5056530000000 1.0
C      1  0.5203960000000  0.4961870000000  0.4706320000000 1.0
C      1  0.4420620000000  0.4281790000000  0.5507360000000 1.0
C      1  0.5204250000000  0.5665410000000  0.4644620000000 1.0
C      1  0.4261270000000  0.5698820000000  0.4312650000000 1.0
C      1  0.5520420000000  0.5343920000000  0.5913970000000 1.0
C      1  0.4383760000000  0.4849810000000  0.5532510000000 1.0
C      1  0.5747250000000  0.5497820000000  0.4839850000000 1.0
C      1  0.5843800000000  0.5787300000000  0.4976250000000 1.0
C      1  0.4201050000000  0.5194480000000  0.5601980000000 1.0
C      1  0.5887040000000  0.5275320000000  0.5498990000000 1.0
C      1  0.3947500000000  0.5202740000000  0.5040070000000 1.0
C      1  0.4636190000000  0.4054400000000  0.4580090000000 1.0
C      1  0.4873550000000  0.5545580000000  0.4823510000000 1.0
C      1  0.5177320000000  0.5019680000000  0.4398820000000 1.0
C      1  0.5028850000000  0.5965610000000  0.4841340000000 1.0
C      1  0.4732670000000  0.4509790000000  0.4013860000000 1.0
C      1  0.5100440000000  0.5319450000000  0.5336380000000 1.0
C      1  0.6042360000000  0.4679910000000  0.4843630000000 1.0
C      1  0.4514330000000  0.4394780000000  0.4140910000000 1.0
C      1  0.5149980000000  0.5694380000000  0.4966500000000 1.0
C      1  0.4907200000000  0.3953290000000  0.4638440000000 1.0
C      1  0.5066810000000  0.5427570000000  0.6120700000000 1.0
C      1  0.5569920000000  0.5689490000000  0.4498990000000 1.0
C      1  0.4286280000000  0.4633530000000  0.4202810000000 1.0
C      1  0.4285410000000  0.5514600000000  0.5511010000000 1.0
C      1  0.5891610000000  0.4857970000000  0.5591050000000 1.0
C      1  0.4480170000000  0.5584800000000  0.4778200000000 1.0
C      1  0.5567420000000  0.4856560000000  0.5633040000000 1.0
C      1  0.5432110000000  0.5876400000000  0.4750180000000 1.0
C      1  0.4235470000000  0.4754240000000  0.6016140000000 1.0
C      1  0.4261520000000  0.5229690000000  0.5145740000000 1.0
C      1  0.4911070000000  0.4953690000000  0.4302710000000 1.0
C      1  0.4856680000000  0.5526520000000  0.4489900000000 1.0
C      1  0.5888500000000  0.5188880000000  0.4803510000000 1.0
C      1  0.5425860000000  0.5428440000000  0.5358340000000 1.0
C      1  0.4395460000000  0.4774880000000  0.5005890000000 1.0
C      1  0.4556800000000  0.5812320000000  0.4183010000000 1.0
C      1  0.4470190000000  0.4582310000000  0.5248930000000 1.0
C      1  0.5914060000000  0.4818180000000  0.5195540000000 1.0
C      1  0.4769970000000  0.5696620000000  0.5079230000000 1.0
C      1  0.4864050000000  0.5825100000000  0.5649690000000 1.0
C      1  0.4905270000000  0.4158530000000  0.5527680000000 1.0
C      1  0.4950520000000  0.4741420000000  0.4068830000000 1.0
C      1  0.5233090000000  0.4884980000000  0.6003680000000 1.0
C      1  0.5789190000000  0.5430670000000  0.4507050000000 1.0
C      1  0.5651190000000  0.5920170000000  0.5153400000000 1.0
C      1  0.4371260000000  0.5199040000000  0.4468740000000 1.0
C      1  0.5416620000000  0.4626340000000  0.4139920000000 1.0
C      1  0.3961620000000  0.4719330000000  0.4719890000000 1.0
C      1  0.5130510000000  0.3833850000000  0.5208740000000 1.0
C      1  0.5609620000000  0.4330850000000  0.5288940000000 1.0
C      1  0.5167640000000  0.4113400000000  0.4489430000000 1.0
C      1  0.4847920000000  0.4643220000000  0.4740210000000 1.0
C      1  0.6124140000000  0.4906560000000  0.4650350000000 1.0
C      1  0.4480120000000  0.4106830000000  0.4834390000000 1.0
C      1  0.5869570000000  0.5583210000000  0.5406540000000 1.0
C      1  0.4278750000000  0.4955850000000  0.4769490000000 1.0
C      1  0.5811090000000  0.4918000000000  0.4901430000000 1.0
C      1  0.4708940000000  0.5024750000000  0.3923840000000 1.0
C      1  0.4696180000000  0.4309480000000  0.5907290000000 1.0
C      1  0.4465780000000  0.4395700000000  0.5766190000000 1.0
C      1  0.5035360000000  0.5592380000000  0.5499890000000 1.0
C      1  0.5019980000000  0.5480890000000  0.4128110000000 1.0
C      1  0.5736000000000  0.5097320000000  0.5793300000000 1.0
C      1  0.5758740000000  0.4956600000000  0.4303200000000 1.0
C      1  0.5231370000000  0.5683760000000  0.5242730000000 1.0
C      1  0.5301000000000  0.4405560000000  0.5722190000000 1.0
C      1  0.4170600000000  0.5529500000000  0.5022270000000 1.0
C      1  0.5330560000000  0.4466440000000  0.4683050000000 1.0
C      1  0.5161670000000  0.5401860000000  0.4432610000000 1.0
C      1  0.5351130000000  0.5612710000000  0.5785810000000 1.0
C      1  0.4601550000000  0.4964860000000  0.4405300000000 1.0
C      1  0.4777890000000  0.4363290000000  0.4898500000000 1.0
C      1  0.5008140000000  0.4528570000000  0.5401640000000 1.0
C      1  0.5945380000000  0.5137350000000  0.4474660000000 1.0
C      1  0.4638530000000  0.5353710000000  0.4921820000000 1.0
C      1  0.5568040000000  0.4018710000000  0.4854810000000 1.0
C      1  0.6264720000000  0.5163230000000  0.5195410000000 1.0
C      1  0.4978550000000  0.4360250000000  0.5772610000000 1.0
C      1  0.4585340000000  0.6039220000000  0.4991850000000 1.0
C      1  0.4575420000000  0.4154260000000  0.4305770000000 1.0
C      1  0.3954040000000  0.5460290000000  0.4811200000000 1.0
C      1  0.5694780000000  0.4666740000000  0.4221450000000 1.0
C      1  0.5463800000000  0.5368940000000  0.4585260000000 1.0
C      1  0.4032210000000  0.5346950000000  0.5345910000000 1.0
C      1  0.4976450000000  0.3914150000000  0.4917550000000 1.0
C      1  0.5660700000000  0.5786340000000  0.5412070000000 1.0
C      1  0.4578710000000  0.5075980000000  0.4819360000000 1.0
C      1  0.4003140000000  0.4682380000000  0.5225900000000 1.0
C      1  0.5123760000000  0.4680190000000  0.4602480000000 1.0
C      1  0.5385610000000  0.4170280000000  0.5491120000000 1.0
C      1  0.4793280000000  0.4890440000000  0.4908950000000 1.0
C      1  0.4483920000000  0.4747080000000  0.4617820000000 1.0
C      1  0.6067060000000  0.5342100000000  0.5022590000000 1.0
C      1  0.4034510000000  0.5582050000000  0.4543740000000 1.0
C      1  0.4333160000000  0.4392790000000  0.4513150000000 1.0
C      1  0.4241730000000  0.4304480000000  0.4890680000000 1.0
C      1  0.5385060000000  0.5781330000000  0.5542180000000 1.0
C      1  0.5265320000000  0.5093530000000  0.5738380000000 1.0
C      1  0.4025350000000  0.4420900000000  0.5007840000000 1.0
C      1  0.4343300000000  0.5479310000000  0.4548670000000 1.0
C      1  0.4904190000000  0.4729230000000  0.6324500000000 1.0
C      1  0.6083080000000  0.5024110000000  0.5378580000000 1.0
C      1  0.5548210000000  0.5107770000000  0.5134390000000 1.0
C      1  0.5058510000000  0.5783970000000  0.4376410000000 1.0
C      1  0.5791760000000  0.5219730000000  0.5189320000000 1.0
C      1  0.4230520000000  0.4965510000000  0.4258300000000 1.0
C      1  0.5924500000000  0.4490140000000  0.5102630000000 1.0
C      1  0.5127890000000  0.5366660000000  0.5730880000000 1.0
C      1  0.5058430000000  0.4303290000000  0.4749550000000 1.0
C      1  0.4606440000000  0.5872710000000  0.4731950000000 1.0
C      1  0.5400510000000  0.4557370000000  0.5433150000000 1.0
C      1  0.5507540000000  0.4319250000000  0.4476900000000 1.0
C      1  0.4535150000000  0.5729040000000  0.5624700000000 1.0
C      1  0.5768680000000  0.4518550000000  0.4737830000000 1.0
C      1  0.4081420000000  0.4924930000000  0.5427130000000 1.0
C      1  0.5227380000000  0.4395240000000  0.4303740000000 1.0
C      1  0.5190970000000  0.4827610000000  0.5159170000000 1.0
C      1  0.5027620000000  0.4674540000000  0.5834710000000 1.0
C      1  0.5070430000000  0.5052740000000  0.4958490000000 1.0
C      1  0.5347330000000  0.4637580000000  0.4961670000000 1.0
C      1  0.3936760000000  0.4871630000000  0.4958650000000 1.0
C      1  0.4492720000000  0.4505180000000  0.4859120000000 1.0
C      1  0.5222800000000  0.4429680000000  0.5181550000000 1.0
C      1  0.5165020000000  0.4774250000000  0.5554290000000 1.0
C      1  0.5262670000000  0.5216340000000  0.6075010000000 1.0
C      1  0.5360950000000  0.3934230000000  0.5018110000000 1.0
C      1  0.5702030000000  0.4274800000000  0.4966360000000 1.0
C      1  0.4660770000000  0.4129180000000  0.5095130000000 1.0
C      1  0.5807230000000  0.4579780000000  0.5411530000000 1.0
C      1  0.5121790000000  0.5978330000000  0.5484060000000 1.0
C      1  0.4569100000000  0.5698750000000  0.5297840000000 1.0
C      1  0.4509880000000  0.4867440000000  0.4095170000000 1.0
C      1  0.4408880000000  0.5443790000000  0.4157100000000 1.0
C      1  0.4781420000000  0.5724600000000  0.4106390000000 1.0
C      1  0.5428140000000  0.5162790000000  0.4820350000000 1.0
C      1  0.4940170000000  0.4558740000000  0.4354270000000 1.0
C      1  0.5765610000000  0.4468990000000  0.4417120000000 1.0
C      1  0.4821800000000  0.5240830000000  0.4040110000000 1.0
C      1  0.4425450000000  0.4979020000000  0.5232090000000 1.0
C      1  0.5394760000000  0.4951670000000  0.5372480000000 1.0
C      1  0.5139300000000  0.4191070000000  0.5037860000000 1.0
C      1  0.5028310000000  0.5651530000000  0.5893850000000 1.0
C      1  0.6002730000000  0.5608880000000  0.5149430000000 1.0
C      1  0.4379920000000  0.5771210000000  0.5044490000000 1.0
C      1  0.5344740000000  0.5111770000000  0.4021030000000 1.0
C      1  0.4700630000000  0.5242210000000  0.5669180000000 1.0
C      1  0.4866150000000  0.4862110000000  0.5238020000000 1.0
C      1  0.5505010000000  0.5490250000000  0.5032050000000 1.0
C      1  0.4867410000000  0.5906530000000  0.4611630000000 1.0
C      1  0.5255800000000  0.4836320000000  0.4033210000000 1.0
C      1  0.5329560000000  0.5395140000000  0.4072940000000 1.0
C      1  0.4657150000000  0.4163730000000  0.5379420000000 1.0
C      1  0.5499680000000  0.4926000000000  0.4452900000000 1.0
C      1  0.4672540000000  0.5509540000000  0.5798050000000 1.0
C      1  0.4237680000000  0.4132310000000  0.4517900000000 1.0
C      1  0.4123670000000  0.4618390000000  0.4504130000000 1.0
C      1  0.5485900000000  0.4026890000000  0.4578900000000 1.0
C      1  0.5559030000000  0.4785420000000  0.4753530000000 1.0
C      1  0.4582300000000  0.5395350000000  0.5415380000000 1.0
C      1  0.4728410000000  0.4600110000000  0.5330850000000 1.0
C      1  0.4658020000000  0.4493560000000  0.4498360000000 1.0
C      1  0.5142740000000  0.6071960000000  0.5207350000000 1.0
C      1  0.5138730000000  0.4021510000000  0.5434060000000 1.0
C      1  0.4226030000000  0.4454320000000  0.5348890000000 1.0
C      1  0.4080270000000  0.5053520000000  0.4541690000000 1.0
C      1  0.4364310000000  0.4660350000000  0.5789670000000 1.0
C      1  0.4473840000000  0.5059840000000  0.5758710000000 1.0
C      1  0.5355820000000  0.5685740000000  0.4242390000000 1.0
C      1  0.4882840000000  0.5133200000000  0.5407540000000 1.0
C      1  0.5402570000000  0.5998280000000  0.5021340000000 1.0
C      1  0.4653720000000  0.5197430000000  0.5191640000000 1.0
C      1  0.5515540000000  0.5270100000000  0.5581840000000 1.0
C      1  0.4830370000000  0.4778530000000  0.6061960000000 1.0
C      1  0.4603300000000  0.4908100000000  0.5993000000000 1.0
END
