TITL C-2782235-7892-595 -0.0133172947993051 125000 -979.118202345279 0 0 167 (C1) n - 1
REM
REM in /home/nfs/bkarasulu/CARBON/AIRSS/Generating-Clusters/REBO/Higher-Symm/SD-CG/HFTN-CG
REM
REM
REM
REM
REM
REM ./C.cell (12c818d87b63d06a65506943cc24bca4)
REM
REM compiler GCC version 9.2.1 20190827 (Red Hat 9.2.1-1)
REM options -cpp -mtune=generic -march=x86-64 -g -O0 -fpre-include=/usr/include/finclude/math-vector-fortran.h
REM seed -166096871 495868828 -1817331746 2039520002 -730228610 1499720353 866364868 134191297 -341804035 1265038815 531875234 -292508880 -1288342665 58513614 -763285390 288100044 693722726 -1171593447 1023645440 -171417884 -2067619484 -214171524 -1790787768 712358418 2855613 -757343032 -222112749 1702655951 1400122832 1116981482 2070915581 -658670031 -779307045
REM
CELL 1.54180   50.00000   50.00000   50.00000   90.00000   90.00000   90.00000
LATT -1
SFAC C  
C      1  0.4735810000000  0.4868520000000  0.4993470000000 1.0
C      1  0.4915570000000  0.4864580000000  0.5258160000000 1.0
C      1  0.5217800000000  0.4867530000000  0.5179150000000 1.0
C      1  0.5234340000000  0.4865570000000  0.4866800000000 1.0
C      1  0.4935010000000  0.4862370000000  0.4754860000000 1.0
C      1  0.4575710000000  0.5823340000000  0.5700340000000 1.0
C      1  0.5453140000000  0.5582860000000  0.5613760000000 1.0
C      1  0.5689560000000  0.5657390000000  0.4621280000000 1.0
C      1  0.4880490000000  0.5602710000000  0.4252390000000 1.0
C      1  0.4204730000000  0.5709730000000  0.4856880000000 1.0
C      1  0.5308590000000  0.5172780000000  0.4530360000000 1.0
C      1  0.4613910000000  0.5136760000000  0.4569740000000 1.0
C      1  0.4486710000000  0.5159250000000  0.5279130000000 1.0
C      1  0.5142950000000  0.5196260000000  0.5603190000000 1.0
C      1  0.5583250000000  0.5177250000000  0.5117350000000 1.0
C      1  0.5479570000000  0.4942930000000  0.5979850000000 1.0
C      1  0.6017860000000  0.4973070000000  0.4822740000000 1.0
C      1  0.5126940000000  0.4978260000000  0.3890540000000 1.0
C      1  0.4004790000000  0.4974550000000  0.4580920000000 1.0
C      1  0.4297200000000  0.5015410000000  0.5824160000000 1.0
C      1  0.4534760000000  0.4177380000000  0.4721080000000 1.0
C      1  0.4639150000000  0.4171050000000  0.5468180000000 1.0
C      1  0.5120540000000  0.4172050000000  0.5459550000000 1.0
C      1  0.6174220000000  0.3965030000000  0.4765890000000 1.0
C      1  0.4985700000000  0.4007310000000  0.3854680000000 1.0
C      1  0.5619280000000  0.4552960000000  0.5161940000000 1.0
C      1  0.5362100000000  0.4616610000000  0.4453380000000 1.0
C      1  0.4562840000000  0.4620620000000  0.4517950000000 1.0
C      1  0.4367910000000  0.4651280000000  0.5279010000000 1.0
C      1  0.5072360000000  0.4666570000000  0.5689750000000 1.0
C      1  0.5732910000000  0.5340240000000  0.4259550000000 1.0
C      1  0.4538740000000  0.5329020000000  0.4042000000000 1.0
C      1  0.4010920000000  0.5358900000000  0.5165190000000 1.0
C      1  0.4904420000000  0.5516950000000  0.5940140000000 1.0
C      1  0.5878410000000  0.5248970000000  0.5527220000000 1.0
C      1  0.5948340000000  0.5231330000000  0.4689170000000 1.0
C      1  0.5018530000000  0.5277070000000  0.3907950000000 1.0
C      1  0.4021980000000  0.5281920000000  0.4677280000000 1.0
C      1  0.4454790000000  0.5320570000000  0.5816680000000 1.0
C      1  0.5602810000000  0.5106120000000  0.5779120000000 1.0
C      1  0.5189740000000  0.5462040000000  0.5196820000000 1.0
C      1  0.5330880000000  0.5474760000000  0.4825980000000 1.0
C      1  0.4873210000000  0.5431850000000  0.4637770000000 1.0
C      1  0.4525490000000  0.5428750000000  0.4988940000000 1.0
C      1  0.4760150000000  0.5429140000000  0.5422140000000 1.0
C      1  0.5432560000000  0.5648880000000  0.5067520000000 1.0
C      1  0.5126250000000  0.5590130000000  0.4642550000000 1.0
C      1  0.4627000000000  0.5562660000000  0.4741800000000 1.0
C      1  0.4563870000000  0.5570950000000  0.5251170000000 1.0
C      1  0.5031790000000  0.5582090000000  0.5431520000000 1.0
C      1  0.4188360000000  0.5339030000000  0.5643430000000 1.0
C      1  0.5224800000000  0.5371560000000  0.6087430000000 1.0
C      1  0.6112890000000  0.5250520000000  0.5087720000000 1.0
C      1  0.5294760000000  0.5305380000000  0.4034030000000 1.0
C      1  0.4146520000000  0.5294890000000  0.4397680000000 1.0
C      1  0.4421930000000  0.5014390000000  0.4043610000000 1.0
C      1  0.3883760000000  0.5065270000000  0.5282180000000 1.0
C      1  0.4918820000000  0.5223180000000  0.6117650000000 1.0
C      1  0.5921640000000  0.4948190000000  0.5499990000000 1.0
C      1  0.5742260000000  0.5069480000000  0.4144840000000 1.0
C      1  0.4081710000000  0.4995660000000  0.5015950000000 1.0
C      1  0.4691840000000  0.5076750000000  0.5823080000000 1.0
C      1  0.5536170000000  0.5046050000000  0.5487220000000 1.0
C      1  0.5690540000000  0.5056860000000  0.4538660000000 1.0
C      1  0.4726330000000  0.5018570000000  0.4207720000000 1.0
C      1  0.5211990000000  0.5956710000000  0.5195450000000 1.0
C      1  0.5240040000000  0.5926600000000  0.4855100000000 1.0
C      1  0.4928740000000  0.5929010000000  0.4717980000000 1.0
C      1  0.4726410000000  0.5946590000000  0.4924900000000 1.0
C      1  0.4870020000000  0.5956870000000  0.5216830000000 1.0
C      1  0.5206080000000  0.5043560000000  0.6049120000000 1.0
C      1  0.5974610000000  0.4944720000000  0.5160350000000 1.0
C      1  0.5428630000000  0.4991260000000  0.4048250000000 1.0
C      1  0.4203040000000  0.4973480000000  0.4302430000000 1.0
C      1  0.4083580000000  0.5027830000000  0.5557380000000 1.0
C      1  0.4490580000000  0.5831890000000  0.5226930000000 1.0
C      1  0.5030800000000  0.5821490000000  0.5555550000000 1.0
C      1  0.5699710000000  0.5792740000000  0.5182180000000 1.0
C      1  0.5237810000000  0.5786060000000  0.4483050000000 1.0
C      1  0.4578650000000  0.5786190000000  0.4589930000000 1.0
C      1  0.4053750000000  0.5461690000000  0.4897710000000 1.0
C      1  0.4605180000000  0.5588170000000  0.5840890000000 1.0
C      1  0.5707420000000  0.5396790000000  0.5738370000000 1.0
C      1  0.5897360000000  0.5457390000000  0.4482330000000 1.0
C      1  0.4798870000000  0.5443740000000  0.3995870000000 1.0
C      1  0.4448850000000  0.4549740000000  0.5962100000000 1.0
C      1  0.5453960000000  0.4396650000000  0.5910290000000 1.0
C      1  0.6044150000000  0.4505610000000  0.4668630000000 1.0
C      1  0.5039950000000  0.4495380000000  0.3827550000000 1.0
C      1  0.4030380000000  0.4495950000000  0.4690390000000 1.0
C      1  0.5514800000000  0.5351690000000  0.5396180000000 1.0
C      1  0.5565870000000  0.5341340000000  0.4662200000000 1.0
C      1  0.4837160000000  0.5277310000000  0.4354760000000 1.0
C      1  0.4315410000000  0.5172150000000  0.4987260000000 1.0
C      1  0.4855340000000  0.5314240000000  0.5693040000000 1.0
C      1  0.5615090000000  0.4439450000000  0.4397520000000 1.0
C      1  0.4589680000000  0.4402400000000  0.4295470000000 1.0
C      1  0.4136430000000  0.4458130000000  0.5213820000000 1.0
C      1  0.4958680000000  0.4550700000000  0.5966910000000 1.0
C      1  0.5773400000000  0.4369960000000  0.5353270000000 1.0
C      1  0.4573580000000  0.3918370000000  0.5432260000000 1.0
C      1  0.4972060000000  0.3941530000000  0.5429780000000 1.0
C      1  0.6301010000000  0.3740820000000  0.4814210000000 1.0
C      1  0.4964020000000  0.3773080000000  0.3739150000000 1.0
C      1  0.4763920000000  0.4190800000000  0.4480500000000 1.0
C      1  0.4669740000000  0.4793120000000  0.3963320000000 1.0
C      1  0.3815370000000  0.4812040000000  0.5059720000000 1.0
C      1  0.4717570000000  0.4960900000000  0.6131760000000 1.0
C      1  0.5712070000000  0.4738570000000  0.5668260000000 1.0
C      1  0.5881750000000  0.4852790000000  0.4340280000000 1.0
C      1  0.4867540000000  0.4625350000000  0.4589440000000 1.0
C      1  0.4542740000000  0.4641120000000  0.5026770000000 1.0
C      1  0.4872450000000  0.4633630000000  0.5442340000000 1.0
C      1  0.5336900000000  0.4614050000000  0.5287880000000 1.0
C      1  0.5337300000000  0.4599020000000  0.4764010000000 1.0
C      1  0.4955250000000  0.4763420000000  0.3849600000000 1.0
C      1  0.3919370000000  0.4757790000000  0.4739780000000 1.0
C      1  0.4434870000000  0.4828860000000  0.5998240000000 1.0
C      1  0.5557570000000  0.4663770000000  0.5956140000000 1.0
C      1  0.6036440000000  0.4775700000000  0.4622000000000 1.0
C      1  0.5753660000000  0.4356740000000  0.4660590000000 1.0
C      1  0.4972380000000  0.4294310000000  0.4253340000000 1.0
C      1  0.4193480000000  0.4352370000000  0.4946660000000 1.0
C      1  0.4729320000000  0.4391110000000  0.5951700000000 1.0
C      1  0.5578580000000  0.4341190000000  0.5599770000000 1.0
C      1  0.4574770000000  0.4504710000000  0.4041130000000 1.0
C      1  0.3875090000000  0.4557530000000  0.5236060000000 1.0
C      1  0.4938330000000  0.4737580000000  0.6169000000000 1.0
C      1  0.5926610000000  0.4530870000000  0.5549330000000 1.0
C      1  0.5793710000000  0.4573700000000  0.4227900000000 1.0
C      1  0.4783470000000  0.5160180000000  0.5261020000000 1.0
C      1  0.5179430000000  0.5163510000000  0.5309050000000 1.0
C      1  0.5341130000000  0.5172400000000  0.4943490000000 1.0
C      1  0.5046350000000  0.5160870000000  0.4674540000000 1.0
C      1  0.4609680000000  0.5123680000000  0.4862170000000 1.0
C      1  0.5141060000000  0.4377690000000  0.5212600000000 1.0
C      1  0.5156920000000  0.4372950000000  0.4896270000000 1.0
C      1  0.4890370000000  0.4347620000000  0.4756280000000 1.0
C      1  0.4668020000000  0.4346010000000  0.4985440000000 1.0
C      1  0.4808300000000  0.4341530000000  0.5276730000000 1.0
C      1  0.4522590000000  0.4343030000000  0.5703970000000 1.0
C      1  0.5271860000000  0.4240570000000  0.5680430000000 1.0
C      1  0.6044090000000  0.4195120000000  0.4716310000000 1.0
C      1  0.5008760000000  0.4256330000000  0.3977520000000 1.0
C      1  0.4233310000000  0.4226190000000  0.4636830000000 1.0
C      1  0.4835110000000  0.5825440000000  0.4429720000000 1.0
C      1  0.4417180000000  0.5888070000000  0.4941290000000 1.0
C      1  0.4762860000000  0.5953610000000  0.5530020000000 1.0
C      1  0.5437750000000  0.5800230000000  0.5379050000000 1.0
C      1  0.5492430000000  0.5861970000000  0.4635350000000 1.0
C      1  0.5868160000000  0.5322590000000  0.5234000000000 1.0
C      1  0.5435600000000  0.5367270000000  0.4285500000000 1.0
C      1  0.4438430000000  0.5295590000000  0.4330540000000 1.0
C      1  0.4240270000000  0.5364750000000  0.5348940000000 1.0
C      1  0.5206260000000  0.5484240000000  0.5776340000000 1.0
C      1  0.5075620000000  0.4537170000000  0.4375160000000 1.0
C      1  0.4405210000000  0.4545290000000  0.4759770000000 1.0
C      1  0.4562490000000  0.4569210000000  0.5492920000000 1.0
C      1  0.5390970000000  0.4633780000000  0.5595880000000 1.0
C      1  0.5590600000000  0.4475730000000  0.4880700000000 1.0
C      1  0.5653020000000  0.4862810000000  0.5224450000000 1.0
C      1  0.5435090000000  0.4907880000000  0.4369050000000 1.0
C      1  0.4490610000000  0.4883280000000  0.4412070000000 1.0
C      1  0.4258000000000  0.4929640000000  0.5299370000000 1.0
C      1  0.5012690000000  0.4962970000000  0.5797070000000 1.0
C      1  0.5007120000000  0.5161750000000  0.5009590000000 1.0
C      1  0.5039660000000  0.5716550000000  0.5038020000000 1.0
END
