TITL C-2782225-7408-1330 -0.136718206420306 125000 -617.42259774811 0 0 106 (C1) n - 1
REM
REM in /home/nfs/bkarasulu/CARBON/AIRSS/Generating-Clusters/REBO/Higher-Symm/SD-CG/HFTN-CG
REM
REM
REM
REM
REM
REM ./C.cell (12c818d87b63d06a65506943cc24bca4)
REM
REM compiler GCC version 9.2.1 20190827 (Red Hat 9.2.1-1)
REM options -cpp -mtune=generic -march=x86-64 -g -O0 -fpre-include=/usr/include/finclude/math-vector-fortran.h
REM seed 423749490 175879014 -1934813497 124894290 932565257 -2146405095 -257947744 1339531695 1657226718 1834526725 -724641698 13279193 -1645778634 824501078 -1221101728 1751386831 -546382982 1824289916 -570218601 -500835575 321943501 1616154753 -1863353690 -1600306131 -1103831338 -582731740 -380099784 -1013907659 1873573860 1676271825 264254441 1479002150 281253630
REM
CELL 1.54180   50.00000   50.00000   50.00000   90.00000   90.00000   90.00000
LATT -1
SFAC C  
C      1  0.5021180000000  0.4771210000000  0.5482560000000 1.0
C      1  0.4253290000000  0.5144630000000  0.4379400000000 1.0
C      1  0.4610160000000  0.5259870000000  0.4900210000000 1.0
C      1  0.4453840000000  0.5428270000000  0.4724490000000 1.0
C      1  0.4783850000000  0.4030630000000  0.4948280000000 1.0
C      1  0.5339330000000  0.4762960000000  0.5578510000000 1.0
C      1  0.4457470000000  0.4257410000000  0.5401920000000 1.0
C      1  0.4582170000000  0.4308010000000  0.4590150000000 1.0
C      1  0.5029630000000  0.3965990000000  0.4983600000000 1.0
C      1  0.5043410000000  0.4664750000000  0.4334050000000 1.0
C      1  0.5624070000000  0.5108600000000  0.4800710000000 1.0
C      1  0.5326920000000  0.5593890000000  0.4692230000000 1.0
C      1  0.4192120000000  0.5277830000000  0.5755280000000 1.0
C      1  0.4651000000000  0.5516940000000  0.5675960000000 1.0
C      1  0.4773520000000  0.4510380000000  0.4385910000000 1.0
C      1  0.5085240000000  0.6003760000000  0.4950070000000 1.0
C      1  0.5117140000000  0.5139070000000  0.4906200000000 1.0
C      1  0.4131040000000  0.5021720000000  0.4613860000000 1.0
C      1  0.5684290000000  0.5564950000000  0.5458200000000 1.0
C      1  0.4413050000000  0.5275670000000  0.5303850000000 1.0
C      1  0.5935700000000  0.5442280000000  0.4668240000000 1.0
C      1  0.4455780000000  0.5175080000000  0.6131850000000 1.0
C      1  0.5719760000000  0.4995460000000  0.4493860000000 1.0
C      1  0.4343770000000  0.4182480000000  0.5144060000000 1.0
C      1  0.5827530000000  0.4867230000000  0.5207820000000 1.0
C      1  0.4913980000000  0.4898830000000  0.5037860000000 1.0
C      1  0.5029450000000  0.5236330000000  0.5210330000000 1.0
C      1  0.5281570000000  0.4384360000000  0.5261570000000 1.0
C      1  0.4095190000000  0.4335570000000  0.5118700000000 1.0
C      1  0.5722790000000  0.6323370000000  0.4873450000000 1.0
C      1  0.4385940000000  0.5363210000000  0.5586820000000 1.0
C      1  0.5057240000000  0.5293010000000  0.4402310000000 1.0
C      1  0.5472460000000  0.4567520000000  0.5351790000000 1.0
C      1  0.5381410000000  0.5271200000000  0.5756800000000 1.0
C      1  0.4504740000000  0.4989170000000  0.4925640000000 1.0
C      1  0.4845700000000  0.5059890000000  0.4272430000000 1.0
C      1  0.4363950000000  0.4953000000000  0.4195200000000 1.0
C      1  0.4847300000000  0.4531800000000  0.5749340000000 1.0
C      1  0.5000200000000  0.5010960000000  0.5951750000000 1.0
C      1  0.5131160000000  0.5254660000000  0.5877010000000 1.0
C      1  0.4849280000000  0.5845010000000  0.4949720000000 1.0
C      1  0.5304840000000  0.5298920000000  0.4210730000000 1.0
C      1  0.4742660000000  0.5068660000000  0.6037570000000 1.0
C      1  0.5476160000000  0.4811240000000  0.4751660000000 1.0
C      1  0.5266240000000  0.4697330000000  0.4010000000000 1.0
C      1  0.4943040000000  0.5464460000000  0.5843420000000 1.0
C      1  0.4920620000000  0.4264740000000  0.5604220000000 1.0
C      1  0.5078640000000  0.4758530000000  0.5803560000000 1.0
C      1  0.5936360000000  0.5307440000000  0.4951900000000 1.0
C      1  0.5384510000000  0.4357360000000  0.4557120000000 1.0
C      1  0.4441200000000  0.5355210000000  0.4443410000000 1.0
C      1  0.4856630000000  0.4993170000000  0.5352270000000 1.0
C      1  0.4845010000000  0.5663930000000  0.4724510000000 1.0
C      1  0.5352070000000  0.4971870000000  0.5194910000000 1.0
C      1  0.5692760000000  0.4616820000000  0.5174120000000 1.0
C      1  0.4677970000000  0.5337250000000  0.4285280000000 1.0
C      1  0.5641440000000  0.5573080000000  0.4565220000000 1.0
C      1  0.5647700000000  0.5477040000000  0.4953110000000 1.0
C      1  0.5061310000000  0.5039050000000  0.4605400000000 1.0
C      1  0.4689510000000  0.5592700000000  0.5362720000000 1.0
C      1  0.5762980000000  0.5367120000000  0.5237860000000 1.0
C      1  0.5717580000000  0.4526750000000  0.4896720000000 1.0
C      1  0.4435190000000  0.4683870000000  0.5172910000000 1.0
C      1  0.3878340000000  0.5070660000000  0.4698490000000 1.0
C      1  0.4910500000000  0.4270500000000  0.4564700000000 1.0
C      1  0.4147440000000  0.4585470000000  0.5262430000000 1.0
C      1  0.4196840000000  0.5405710000000  0.5122000000000 1.0
C      1  0.4772760000000  0.4635150000000  0.5203810000000 1.0
C      1  0.4444710000000  0.4618720000000  0.4584430000000 1.0
C      1  0.5918270000000  0.4993570000000  0.4939710000000 1.0
C      1  0.4224910000000  0.5515420000000  0.4871790000000 1.0
C      1  0.5439040000000  0.5497630000000  0.5561920000000 1.0
C      1  0.5454840000000  0.4832120000000  0.4246180000000 1.0
C      1  0.4324600000000  0.4859250000000  0.4754580000000 1.0
C      1  0.4730530000000  0.5335160000000  0.5187810000000 1.0
C      1  0.4560110000000  0.4755880000000  0.4317540000000 1.0
C      1  0.5280290000000  0.4825030000000  0.4523380000000 1.0
C      1  0.5608940000000  0.4331180000000  0.4725400000000 1.0
C      1  0.5816830000000  0.4771770000000  0.4720540000000 1.0
C      1  0.5010030000000  0.4461810000000  0.5359930000000 1.0
C      1  0.4641380000000  0.4528390000000  0.5497070000000 1.0
C      1  0.5308640000000  0.4158360000000  0.5107290000000 1.0
C      1  0.5345110000000  0.4509140000000  0.4289810000000 1.0
C      1  0.5137840000000  0.4355530000000  0.4705000000000 1.0
C      1  0.5464830000000  0.5028960000000  0.5573460000000 1.0
C      1  0.5649820000000  0.5090430000000  0.5317490000000 1.0
C      1  0.5044750000000  0.5542620000000  0.4579330000000 1.0
C      1  0.5385970000000  0.5308880000000  0.4858910000000 1.0
C      1  0.4717870000000  0.5811310000000  0.5202010000000 1.0
C      1  0.5291780000000  0.5259790000000  0.5369850000000 1.0
C      1  0.5653780000000  0.5764380000000  0.4841640000000 1.0
C      1  0.4780310000000  0.4873760000000  0.4550310000000 1.0
C      1  0.4657750000000  0.5397730000000  0.5994830000000 1.0
C      1  0.5345420000000  0.5895260000000  0.4845160000000 1.0
C      1  0.5090710000000  0.4577640000000  0.4884060000000 1.0
C      1  0.4992240000000  0.4863730000000  0.4063420000000 1.0
C      1  0.5618870000000  0.6089920000000  0.4859260000000 1.0
C      1  0.4203340000000  0.5171450000000  0.6008860000000 1.0
C      1  0.4310930000000  0.4526550000000  0.5518500000000 1.0
C      1  0.5770730000000  0.5310050000000  0.4408870000000 1.0
C      1  0.4534330000000  0.4551400000000  0.4899180000000 1.0
C      1  0.5296730000000  0.4763200000000  0.4997630000000 1.0
C      1  0.5538290000000  0.5137200000000  0.4243080000000 1.0
C      1  0.4552230000000  0.4983210000000  0.5252170000000 1.0
C      1  0.4795300000000  0.4707960000000  0.4811320000000 1.0
C      1  0.4540050000000  0.4214630000000  0.4906260000000 1.0
END
