TITL C-2782228-2999-609 -0.000295074723448218 125000 -237.901060097595 0 0 42 (Ci) n - 1
REM
REM in /home/nfs/bkarasulu/CARBON/AIRSS/Generating-Clusters/REBO/Higher-Symm/SD-CG/HFTN-CG
REM
REM
REM
REM
REM
REM ./C.cell (12c818d87b63d06a65506943cc24bca4)
REM
REM compiler GCC version 9.2.1 20190827 (Red Hat 9.2.1-1)
REM options -cpp -mtune=generic -march=x86-64 -g -O0 -fpre-include=/usr/include/finclude/math-vector-fortran.h
REM seed 39593449 -76264759 1754875900 -1990132992 -2050143426 -983459298 2037181884 1801401990 1674513047 1621590085 1910931644 -850255397 124151306 -623320097 -1513588346 -1103512529 678281568 1466660110 128282733 -80793910 1698080946 91369996 -246350798 -552117756 1367729082 1420176908 2045747345 600542865 -53504170 735194650 -766105543 -41568502 -399630750
REM
CELL 1.54180   50.00000   50.00000   50.00000   90.00000   90.00000   90.00000
LATT -1
SFAC C  
C      1  0.4695920000000  0.5488680000000  0.5197340000000 1.0
C      1  0.5304080000000  0.4511320000000  0.4802660000000 1.0
C      1  0.5056100000000  0.4378520000000  0.4808320000000 1.0
C      1  0.4943900000000  0.5621480000000  0.5191680000000 1.0
C      1  0.4655820000000  0.4584630000000  0.5009150000000 1.0
C      1  0.5344180000000  0.5415370000000  0.4990850000000 1.0
C      1  0.5240030000000  0.4981270000000  0.4344760000000 1.0
C      1  0.4759970000000  0.5018730000000  0.5655240000000 1.0
C      1  0.5304170000000  0.5072090000000  0.5564410000000 1.0
C      1  0.4695830000000  0.4927910000000  0.4435590000000 1.0
C      1  0.5252800000000  0.4856300000000  0.5219720000000 1.0
C      1  0.4747200000000  0.5143700000000  0.4780280000000 1.0
C      1  0.4878910000000  0.4792280000000  0.4644560000000 1.0
C      1  0.5121090000000  0.5207720000000  0.5355440000000 1.0
C      1  0.4759810000000  0.5396580000000  0.4612370000000 1.0
C      1  0.5240190000000  0.4603420000000  0.5387630000000 1.0
C      1  0.4518640000000  0.5022670000000  0.5498580000000 1.0
C      1  0.5481360000000  0.4977330000000  0.4501420000000 1.0
C      1  0.5485280000000  0.5057150000000  0.5289200000000 1.0
C      1  0.4514720000000  0.4942850000000  0.4710800000000 1.0
C      1  0.5005200000000  0.4511280000000  0.5413580000000 1.0
C      1  0.4994800000000  0.5488720000000  0.4586420000000 1.0
C      1  0.4800040000000  0.4682670000000  0.5275900000000 1.0
C      1  0.5199960000000  0.5317330000000  0.4724100000000 1.0
C      1  0.4404560000000  0.5214640000000  0.5166900000000 1.0
C      1  0.5595440000000  0.4785360000000  0.4833100000000 1.0
C      1  0.4967930000000  0.4989220000000  0.4308540000000 1.0
C      1  0.5032070000000  0.5010780000000  0.5691460000000 1.0
C      1  0.5651930000000  0.4723520000000  0.4528870000000 1.0
C      1  0.4348070000000  0.5276480000000  0.5471130000000 1.0
C      1  0.4830090000000  0.4547430000000  0.4788490000000 1.0
C      1  0.5169910000000  0.5452570000000  0.5211510000000 1.0
C      1  0.5557740000000  0.5202330000000  0.5046700000000 1.0
C      1  0.4442260000000  0.4797670000000  0.4953300000000 1.0
C      1  0.4919680000000  0.4999290000000  0.5233290000000 1.0
C      1  0.5080320000000  0.5000710000000  0.4766710000000 1.0
C      1  0.5504350000000  0.4471150000000  0.4604480000000 1.0
C      1  0.4495650000000  0.5528850000000  0.5395520000000 1.0
C      1  0.5479460000000  0.5151710000000  0.4727470000000 1.0
C      1  0.4520540000000  0.4848290000000  0.5272530000000 1.0
C      1  0.5281770000000  0.4816680000000  0.4920010000000 1.0
C      1  0.4718230000000  0.5183320000000  0.5079990000000 1.0
END
