TITL C-2782239-8622-589 0.002304513676712 125000 -1022.92101872599 0 0 174 (C1) n - 1
REM
REM in /home/nfs/bkarasulu/CARBON/AIRSS/Generating-Clusters/REBO/Higher-Symm/SD-CG/HFTN-CG
REM
REM
REM
REM
REM
REM ./C.cell (12c818d87b63d06a65506943cc24bca4)
REM
REM compiler GCC version 9.2.1 20190827 (Red Hat 9.2.1-1)
REM options -cpp -mtune=generic -march=x86-64 -g -O0 -fpre-include=/usr/include/finclude/math-vector-fortran.h
REM seed -945994049 1817293600 136485328 -679768045 956274087 869744821 -461190334 2057572473 -1788424169 -1272943802 74489135 1421900583 -1316266318 1382401852 547582007 -1331647838 -2090890924 855374716 2005918253 1238738747 -762180308 -1131672406 -1217677066 400439832 -806441234 74329689 -403411172 582742999 153332549 -839363615 232701660 -1542577977 674069976
REM
CELL 1.54180   50.00000   50.00000   50.00000   90.00000   90.00000   90.00000
LATT -1
SFAC C  
C      1  0.4899240000000  0.5921190000000  0.5562840000000 1.0
C      1  0.5493220000000  0.4920410000000  0.6004030000000 1.0
C      1  0.5961280000000  0.5552110000000  0.4869750000000 1.0
C      1  0.5025780000000  0.3970590000000  0.4544440000000 1.0
C      1  0.5210300000000  0.4156290000000  0.5545040000000 1.0
C      1  0.4956130000000  0.6090870000000  0.4522950000000 1.0
C      1  0.5351200000000  0.4822880000000  0.4005440000000 1.0
C      1  0.4447890000000  0.5021680000000  0.6008320000000 1.0
C      1  0.4471100000000  0.4809120000000  0.4293730000000 1.0
C      1  0.6078300000000  0.4374810000000  0.4664610000000 1.0
C      1  0.4064450000000  0.4516320000000  0.5016880000000 1.0
C      1  0.4057280000000  0.5492580000000  0.4977900000000 1.0
C      1  0.4361250000000  0.4796250000000  0.4602410000000 1.0
C      1  0.4606110000000  0.4235910000000  0.4897140000000 1.0
C      1  0.4872780000000  0.4527350000000  0.4525360000000 1.0
C      1  0.4464330000000  0.5175410000000  0.5331670000000 1.0
C      1  0.5689330000000  0.5177590000000  0.4484800000000 1.0
C      1  0.5475040000000  0.4834540000000  0.5339740000000 1.0
C      1  0.4524620000000  0.5673340000000  0.5151530000000 1.0
C      1  0.5395150000000  0.5862500000000  0.4812240000000 1.0
C      1  0.5531540000000  0.4391250000000  0.5132910000000 1.0
C      1  0.4925950000000  0.5384930000000  0.5819750000000 1.0
C      1  0.5110350000000  0.5494930000000  0.4376890000000 1.0
C      1  0.5224450000000  0.4432940000000  0.5725280000000 1.0
C      1  0.5279930000000  0.4910300000000  0.4793530000000 1.0
C      1  0.4957970000000  0.5533720000000  0.4649070000000 1.0
C      1  0.4668590000000  0.4955320000000  0.5433470000000 1.0
C      1  0.5294310000000  0.5209720000000  0.4965750000000 1.0
C      1  0.4745320000000  0.5323530000000  0.4801470000000 1.0
C      1  0.4673150000000  0.4776650000000  0.5143730000000 1.0
C      1  0.4999750000000  0.4694250000000  0.5194740000000 1.0
C      1  0.5111960000000  0.4616350000000  0.4756640000000 1.0
C      1  0.5101650000000  0.5421770000000  0.5046830000000 1.0
C      1  0.4819650000000  0.5019020000000  0.4691410000000 1.0
C      1  0.5180070000000  0.4840430000000  0.5404370000000 1.0
C      1  0.5371630000000  0.5056270000000  0.4498700000000 1.0
C      1  0.5608030000000  0.4123240000000  0.5205120000000 1.0
C      1  0.5167530000000  0.5656090000000  0.4150750000000 1.0
C      1  0.4201460000000  0.5217420000000  0.5430500000000 1.0
C      1  0.5464290000000  0.6058140000000  0.4616590000000 1.0
C      1  0.4443950000000  0.5864010000000  0.5408630000000 1.0
C      1  0.4564670000000  0.3989210000000  0.4686210000000 1.0
C      1  0.5395230000000  0.4459020000000  0.6199210000000 1.0
C      1  0.4750370000000  0.4389190000000  0.4304250000000 1.0
C      1  0.4653330000000  0.5468810000000  0.5999330000000 1.0
C      1  0.4077080000000  0.4749620000000  0.4584390000000 1.0
C      1  0.5759730000000  0.4677250000000  0.5438960000000 1.0
C      1  0.5978390000000  0.5258010000000  0.4446050000000 1.0
C      1  0.4748950000000  0.4197020000000  0.5768330000000 1.0
C      1  0.5590250000000  0.4807730000000  0.4151740000000 1.0
C      1  0.4185320000000  0.5514840000000  0.4663790000000 1.0
C      1  0.4646710000000  0.5708170000000  0.4408540000000 1.0
C      1  0.5283230000000  0.5681790000000  0.5717350000000 1.0
C      1  0.5355630000000  0.4287540000000  0.4373760000000 1.0
C      1  0.5476120000000  0.5187850000000  0.5789440000000 1.0
C      1  0.4402510000000  0.5317610000000  0.4253830000000 1.0
C      1  0.4443710000000  0.4656670000000  0.5961340000000 1.0
C      1  0.4256250000000  0.4376710000000  0.5371040000000 1.0
C      1  0.5781140000000  0.4439210000000  0.4550510000000 1.0
C      1  0.5836270000000  0.5665870000000  0.5165050000000 1.0
C      1  0.4841160000000  0.5205040000000  0.4406100000000 1.0
C      1  0.4415620000000  0.4672520000000  0.5314100000000 1.0
C      1  0.5301260000000  0.4338230000000  0.4811400000000 1.0
C      1  0.4776380000000  0.4724490000000  0.5664320000000 1.0
C      1  0.5225550000000  0.4802260000000  0.4384550000000 1.0
C      1  0.5125180000000  0.5096290000000  0.5622340000000 1.0
C      1  0.4451230000000  0.5150870000000  0.4763180000000 1.0
C      1  0.5554470000000  0.5192790000000  0.5189140000000 1.0
C      1  0.5693420000000  0.4899200000000  0.4671210000000 1.0
C      1  0.5233310000000  0.5718220000000  0.5143760000000 1.0
C      1  0.4713820000000  0.5721710000000  0.4802110000000 1.0
C      1  0.4827510000000  0.4400470000000  0.5186740000000 1.0
C      1  0.6269240000000  0.4808280000000  0.4497110000000 1.0
C      1  0.4243940000000  0.6231890000000  0.5092950000000 1.0
C      1  0.4872380000000  0.4407340000000  0.6122020000000 1.0
C      1  0.6106970000000  0.4635400000000  0.5789670000000 1.0
C      1  0.3722960000000  0.4881060000000  0.4218000000000 1.0
C      1  0.3814420000000  0.5095020000000  0.5702130000000 1.0
C      1  0.4047190000000  0.4022640000000  0.4642640000000 1.0
C      1  0.5926980000000  0.3776430000000  0.5051840000000 1.0
C      1  0.5941970000000  0.6201780000000  0.4535670000000 1.0
C      1  0.4988020000000  0.6026090000000  0.3871020000000 1.0
C      1  0.4934440000000  0.5819550000000  0.6266880000000 1.0
C      1  0.5064440000000  0.4380300000000  0.3928030000000 1.0
C      1  0.6160780000000  0.5043760000000  0.4419320000000 1.0
C      1  0.4310850000000  0.5940640000000  0.5118320000000 1.0
C      1  0.5171860000000  0.4329670000000  0.6031760000000 1.0
C      1  0.5881140000000  0.4742490000000  0.5674210000000 1.0
C      1  0.3963180000000  0.4878400000000  0.4346530000000 1.0
C      1  0.4082780000000  0.5067350000000  0.5637390000000 1.0
C      1  0.4285450000000  0.4098580000000  0.4796380000000 1.0
C      1  0.5791640000000  0.4015240000000  0.5019360000000 1.0
C      1  0.5749210000000  0.6052300000000  0.4663420000000 1.0
C      1  0.4989700000000  0.5869820000000  0.4100750000000 1.0
C      1  0.4891900000000  0.5687970000000  0.6001420000000 1.0
C      1  0.4945120000000  0.4241800000000  0.4147010000000 1.0
C      1  0.4733800000000  0.4936180000000  0.4243610000000 1.0
C      1  0.4153860000000  0.4732900000000  0.5165200000000 1.0
C      1  0.5092590000000  0.4089350000000  0.4809220000000 1.0
C      1  0.4729120000000  0.4934280000000  0.5925330000000 1.0
C      1  0.5161200000000  0.5031780000000  0.4045290000000 1.0
C      1  0.5198650000000  0.4921390000000  0.5903510000000 1.0
C      1  0.4250470000000  0.5232970000000  0.4999700000000 1.0
C      1  0.5822810000000  0.5297100000000  0.5007480000000 1.0
C      1  0.5818480000000  0.4797570000000  0.4945590000000 1.0
C      1  0.4991190000000  0.5890450000000  0.5282060000000 1.0
C      1  0.4895330000000  0.6001410000000  0.4804480000000 1.0
C      1  0.5067180000000  0.4195930000000  0.5283410000000 1.0
C      1  0.4970710000000  0.5931740000000  0.6493200000000 1.0
C      1  0.6321940000000  0.4533470000000  0.5899570000000 1.0
C      1  0.6125430000000  0.6344050000000  0.4414090000000 1.0
C      1  0.5241140000000  0.4584990000000  0.3894320000000 1.0
C      1  0.4651030000000  0.4509830000000  0.6091900000000 1.0
C      1  0.4986440000000  0.6173490000000  0.3654330000000 1.0
C      1  0.6262810000000  0.4558880000000  0.4605760000000 1.0
C      1  0.3560930000000  0.5121150000000  0.5763290000000 1.0
C      1  0.3491900000000  0.4883610000000  0.4094370000000 1.0
C      1  0.6055300000000  0.3550000000000  0.5082640000000 1.0
C      1  0.3840000000000  0.3956620000000  0.4508950000000 1.0
C      1  0.4187010000000  0.6479720000000  0.5071360000000 1.0
C      1  0.4812340000000  0.5119970000000  0.5668660000000 1.0
C      1  0.5513830000000  0.4887090000000  0.5028300000000 1.0
C      1  0.5108050000000  0.5754350000000  0.4826060000000 1.0
C      1  0.4936090000000  0.4822570000000  0.4463900000000 1.0
C      1  0.5103240000000  0.4703400000000  0.5678770000000 1.0
C      1  0.5164150000000  0.5190610000000  0.4311210000000 1.0
C      1  0.5589360000000  0.5202740000000  0.4796440000000 1.0
C      1  0.4552610000000  0.5368620000000  0.5079050000000 1.0
C      1  0.4589250000000  0.4852950000000  0.4848420000000 1.0
C      1  0.5216870000000  0.4445940000000  0.5119350000000 1.0
C      1  0.4908590000000  0.4363370000000  0.4868180000000 1.0
C      1  0.4846160000000  0.5638760000000  0.5104320000000 1.0
C      1  0.5485100000000  0.4035120000000  0.5449820000000 1.0
C      1  0.5364660000000  0.5590220000000  0.3975010000000 1.0
C      1  0.4039190000000  0.5407590000000  0.5289630000000 1.0
C      1  0.5233420000000  0.6163900000000  0.4483730000000 1.0
C      1  0.4620360000000  0.5947180000000  0.5590160000000 1.0
C      1  0.4758810000000  0.3876980000000  0.4539780000000 1.0
C      1  0.5520500000000  0.4674170000000  0.6183650000000 1.0
C      1  0.4510110000000  0.4511100000000  0.4209620000000 1.0
C      1  0.4448200000000  0.5305920000000  0.6067470000000 1.0
C      1  0.3951950000000  0.4578010000000  0.4768330000000 1.0
C      1  0.5734110000000  0.4582200000000  0.5160860000000 1.0
C      1  0.6057280000000  0.5477540000000  0.4590180000000 1.0
C      1  0.4824940000000  0.5921890000000  0.4331330000000 1.0
C      1  0.4250010000000  0.4882090000000  0.5791860000000 1.0
C      1  0.5821090000000  0.4178440000000  0.4771900000000 1.0
C      1  0.5009620000000  0.4120610000000  0.5813760000000 1.0
C      1  0.5136050000000  0.4113380000000  0.4323740000000 1.0
C      1  0.5049060000000  0.5816140000000  0.5767900000000 1.0
C      1  0.4233170000000  0.5026060000000  0.4299620000000 1.0
C      1  0.5739170000000  0.4978840000000  0.5783750000000 1.0
C      1  0.5903460000000  0.4799010000000  0.4171590000000 1.0
C      1  0.5803070000000  0.5853290000000  0.4880800000000 1.0
C      1  0.4211790000000  0.5770030000000  0.4888760000000 1.0
C      1  0.4238780000000  0.4256600000000  0.5052360000000 1.0
C      1  0.4390770000000  0.4628040000000  0.5625390000000 1.0
C      1  0.5526150000000  0.4262820000000  0.4625790000000 1.0
C      1  0.4659670000000  0.5436980000000  0.4310600000000 1.0
C      1  0.4264820000000  0.5256610000000  0.4539420000000 1.0
C      1  0.5605020000000  0.5104340000000  0.5496740000000 1.0
C      1  0.5727090000000  0.4701780000000  0.4446440000000 1.0
C      1  0.5541470000000  0.5800320000000  0.5098330000000 1.0
C      1  0.4442970000000  0.5733190000000  0.4655350000000 1.0
C      1  0.4536820000000  0.4305700000000  0.5210440000000 1.0
C      1  0.4643030000000  0.4430920000000  0.5699980000000 1.0
C      1  0.5316460000000  0.4560470000000  0.4305270000000 1.0
C      1  0.5247230000000  0.5379190000000  0.5748450000000 1.0
C      1  0.4972940000000  0.4935680000000  0.6088620000000 1.0
C      1  0.4897070000000  0.4970650000000  0.3980220000000 1.0
C      1  0.5994840000000  0.5049820000000  0.5031380000000 1.0
C      1  0.4912400000000  0.6128860000000  0.5086890000000 1.0
C      1  0.4107730000000  0.4991720000000  0.5114030000000 1.0
C      1  0.5075430000000  0.3968470000000  0.5097930000000 1.0
END
