TITL C-2782230-7391-145 -0.0055551801860723 125000 -225.096102568722 0 0 40 (C1) n - 1
REM
REM in /home/nfs/bkarasulu/CARBON/AIRSS/Generating-Clusters/REBO/Higher-Symm/SD-CG/HFTN-CG
REM
REM
REM
REM
REM
REM ./C.cell (12c818d87b63d06a65506943cc24bca4)
REM
REM compiler GCC version 9.2.1 20190827 (Red Hat 9.2.1-1)
REM options -cpp -mtune=generic -march=x86-64 -g -O0 -fpre-include=/usr/include/finclude/math-vector-fortran.h
REM seed 1677702676 -1854145563 -1590374471 336579341 983994629 -1180664733 2099375465 -1094437491 1451089816 -562157794 1024045360 2059082878 -800275768 2045069404 -628127443 490905028 -1054610591 -775273269 -1772367849 1607171261 1069665676 -328574992 2016654575 275905419 632750046 147186850 334783251 123547287 299541509 -1425066936 1430950357 -1770734151 -1454915951
REM
CELL 1.54180   50.00000   50.00000   50.00000   90.00000   90.00000   90.00000
LATT -1
SFAC C  
C      1  0.4830720000000  0.4947540000000  0.5336950000000 1.0
C      1  0.5344440000000  0.4825140000000  0.4960950000000 1.0
C      1  0.4905120000000  0.5310610000000  0.4819980000000 1.0
C      1  0.4835350000000  0.5037480000000  0.4648100000000 1.0
C      1  0.5161160000000  0.5021020000000  0.5304170000000 1.0
C      1  0.5162570000000  0.4955690000000  0.4700810000000 1.0
C      1  0.5342990000000  0.5154020000000  0.5047680000000 1.0
C      1  0.4664110000000  0.5157450000000  0.4988340000000 1.0
C      1  0.4670540000000  0.4841430000000  0.5054370000000 1.0
C      1  0.4945750000000  0.4674140000000  0.5172560000000 1.0
C      1  0.5051940000000  0.4678930000000  0.4866970000000 1.0
C      1  0.5040200000000  0.5284470000000  0.5117820000000 1.0
C      1  0.5091490000000  0.5333540000000  0.4562970000000 1.0
C      1  0.4514040000000  0.5066540000000  0.5346420000000 1.0
C      1  0.5337400000000  0.4509580000000  0.5088180000000 1.0
C      1  0.5081230000000  0.4669750000000  0.5477360000000 1.0
C      1  0.4935390000000  0.4663750000000  0.4549620000000 1.0
C      1  0.4933480000000  0.5319490000000  0.5439290000000 1.0
C      1  0.4537860000000  0.4927870000000  0.4687260000000 1.0
C      1  0.5483470000000  0.4912940000000  0.5332330000000 1.0
C      1  0.5481090000000  0.5075070000000  0.4681240000000 1.0
C      1  0.5345700000000  0.5474770000000  0.4943900000000 1.0
C      1  0.4648180000000  0.5472600000000  0.5079230000000 1.0
C      1  0.4661400000000  0.4520200000000  0.4939850000000 1.0
C      1  0.4330240000000  0.4972210000000  0.4872940000000 1.0
C      1  0.4859230000000  0.4326400000000  0.4995920000000 1.0
C      1  0.4981300000000  0.4882070000000  0.4354240000000 1.0
C      1  0.4321250000000  0.5012400000000  0.5145630000000 1.0
C      1  0.5682830000000  0.5017020000000  0.4870450000000 1.0
C      1  0.5683500000000  0.4967170000000  0.5140910000000 1.0
C      1  0.4860600000000  0.5653460000000  0.5020670000000 1.0
C      1  0.5133800000000  0.5654010000000  0.4997800000000 1.0
C      1  0.5130980000000  0.4324700000000  0.5034210000000 1.0
C      1  0.5001380000000  0.5143480000000  0.5649240000000 1.0
C      1  0.5047410000000  0.5168700000000  0.4336270000000 1.0
C      1  0.5038170000000  0.4872050000000  0.5669840000000 1.0
C      1  0.5356230000000  0.5344420000000  0.4673900000000 1.0
C      1  0.5346570000000  0.4649740000000  0.5350270000000 1.0
C      1  0.4653210000000  0.5332020000000  0.5347510000000 1.0
C      1  0.4666620000000  0.4660380000000  0.4678550000000 1.0
END
