TITL C-2782226-7400-700 0.000842314610017328 125000 -745.942421985511 0 0 124 (C1) n - 1
REM
REM in /home/nfs/bkarasulu/CARBON/AIRSS/Generating-Clusters/REBO/Higher-Symm/SD-CG/HFTN-CG
REM
REM
REM
REM
REM
REM ./C.cell (12c818d87b63d06a65506943cc24bca4)
REM
REM compiler GCC version 9.2.1 20190827 (Red Hat 9.2.1-1)
REM options -cpp -mtune=generic -march=x86-64 -g -O0 -fpre-include=/usr/include/finclude/math-vector-fortran.h
REM seed 1224263369 2033481590 80306906 878558425 1495001295 1868920087 1065820544 -1317527160 -1927702395 -377662474 -571959280 -370237693 742029741 -422304328 -971676233 -149954087 377915452 -937021581 -784927757 -1780469715 1587416585 1007635060 -1069103440 -1177272332 -129618618 420275666 -1182503857 -1715863636 -123666774 1055851566 -880908928 -357744197 1372044862
REM
CELL 1.54180   50.00000   50.00000   50.00000   90.00000   90.00000   90.00000
LATT -1
SFAC C  
C      1  0.4575250000000  0.4959600000000  0.5727840000000 1.0
C      1  0.5228060000000  0.5427940000000  0.5716900000000 1.0
C      1  0.5285530000000  0.4619540000000  0.5749350000000 1.0
C      1  0.4556690000000  0.5027340000000  0.4346010000000 1.0
C      1  0.5232350000000  0.4487750000000  0.4286690000000 1.0
C      1  0.5239800000000  0.5361260000000  0.4321010000000 1.0
C      1  0.4825400000000  0.5423590000000  0.4489660000000 1.0
C      1  0.5384400000000  0.4914930000000  0.4456270000000 1.0
C      1  0.5000030000000  0.4598760000000  0.4459230000000 1.0
C      1  0.4882780000000  0.4644850000000  0.5558270000000 1.0
C      1  0.5395280000000  0.5006580000000  0.5511430000000 1.0
C      1  0.4832210000000  0.5241220000000  0.5511540000000 1.0
C      1  0.5166750000000  0.4894250000000  0.5687930000000 1.0
C      1  0.4840990000000  0.4890210000000  0.5706560000000 1.0
C      1  0.5074390000000  0.5204300000000  0.5639180000000 1.0
C      1  0.5137860000000  0.5094930000000  0.4428120000000 1.0
C      1  0.4807050000000  0.5127750000000  0.4485090000000 1.0
C      1  0.5028070000000  0.4831610000000  0.4615610000000 1.0
C      1  0.5924610000000  0.4894250000000  0.5408580000000 1.0
C      1  0.4465250000000  0.4297210000000  0.5334600000000 1.0
C      1  0.4722460000000  0.5858280000000  0.5325640000000 1.0
C      1  0.5875950000000  0.5165180000000  0.4650290000000 1.0
C      1  0.4406920000000  0.5691560000000  0.4628510000000 1.0
C      1  0.4671540000000  0.4046670000000  0.4620750000000 1.0
C      1  0.5042500000000  0.5667100000000  0.5180890000000 1.0
C      1  0.5695560000000  0.4704740000000  0.5142030000000 1.0
C      1  0.4396140000000  0.4581460000000  0.5062110000000 1.0
C      1  0.4784090000000  0.4337940000000  0.4869640000000 1.0
C      1  0.5647310000000  0.5334310000000  0.4931550000000 1.0
C      1  0.4358220000000  0.5421930000000  0.4963680000000 1.0
C      1  0.4678240000000  0.5484850000000  0.5641330000000 1.0
C      1  0.5601030000000  0.5098670000000  0.5735090000000 1.0
C      1  0.4792970000000  0.4396410000000  0.5719280000000 1.0
C      1  0.4720290000000  0.4512500000000  0.4380220000000 1.0
C      1  0.5626650000000  0.4965590000000  0.4243480000000 1.0
C      1  0.4694440000000  0.5586640000000  0.4230960000000 1.0
C      1  0.5973800000000  0.4991580000000  0.5156090000000 1.0
C      1  0.4475550000000  0.4149050000000  0.5103670000000 1.0
C      1  0.4587730000000  0.5884080000000  0.5089750000000 1.0
C      1  0.5958910000000  0.5083260000000  0.4898760000000 1.0
C      1  0.4465350000000  0.5843480000000  0.4849010000000 1.0
C      1  0.4526530000000  0.4033050000000  0.4858350000000 1.0
C      1  0.4472860000000  0.4867810000000  0.4793970000000 1.0
C      1  0.5088950000000  0.5376270000000  0.4910310000000 1.0
C      1  0.5270110000000  0.4832120000000  0.4953370000000 1.0
C      1  0.4575390000000  0.5092890000000  0.5029320000000 1.0
C      1  0.5106940000000  0.4780410000000  0.5123640000000 1.0
C      1  0.5254710000000  0.5287700000000  0.5061310000000 1.0
C      1  0.5670040000000  0.4599610000000  0.4704280000000 1.0
C      1  0.4139240000000  0.4614110000000  0.4543410000000 1.0
C      1  0.4970470000000  0.5810900000000  0.4710390000000 1.0
C      1  0.5677230000000  0.5399070000000  0.5325060000000 1.0
C      1  0.4355790000000  0.5377270000000  0.5376550000000 1.0
C      1  0.5035980000000  0.4313380000000  0.5255720000000 1.0
C      1  0.5462720000000  0.5199610000000  0.5259530000000 1.0
C      1  0.4917700000000  0.4592970000000  0.5270260000000 1.0
C      1  0.4621990000000  0.5278130000000  0.5254500000000 1.0
C      1  0.5481400000000  0.4838980000000  0.4719510000000 1.0
C      1  0.4865950000000  0.5530620000000  0.4762440000000 1.0
C      1  0.4396340000000  0.4619670000000  0.4664250000000 1.0
C      1  0.5835040000000  0.4587610000000  0.4930750000000 1.0
C      1  0.3951270000000  0.4431340000000  0.4653770000000 1.0
C      1  0.4860400000000  0.6039560000000  0.4825690000000 1.0
C      1  0.5931370000000  0.5385830000000  0.5208280000000 1.0
C      1  0.4213320000000  0.5603730000000  0.5288430000000 1.0
C      1  0.4918540000000  0.4171170000000  0.5048660000000 1.0
C      1  0.3965090000000  0.5430400000000  0.4894150000000 1.0
C      1  0.5916040000000  0.5679900000000  0.4818070000000 1.0
C      1  0.5197880000000  0.3801670000000  0.4890770000000 1.0
C      1  0.3959560000000  0.4622650000000  0.5108720000000 1.0
C      1  0.5988560000000  0.4246700000000  0.5220870000000 1.0
C      1  0.5152570000000  0.6175560000000  0.5191300000000 1.0
C      1  0.4852460000000  0.5498690000000  0.5208500000000 1.0
C      1  0.5546930000000  0.4880440000000  0.5255500000000 1.0
C      1  0.4639640000000  0.4598000000000  0.5136930000000 1.0
C      1  0.4565770000000  0.4414570000000  0.4735440000000 1.0
C      1  0.5559670000000  0.5098130000000  0.4885180000000 1.0
C      1  0.4599790000000  0.5471130000000  0.4901590000000 1.0
C      1  0.5589200000000  0.5635150000000  0.5446650000000 1.0
C      1  0.5266540000000  0.4266210000000  0.5402920000000 1.0
C      1  0.4207310000000  0.5175820000000  0.5508120000000 1.0
C      1  0.5585350000000  0.4358320000000  0.4590140000000 1.0
C      1  0.5223340000000  0.5807060000000  0.4585120000000 1.0
C      1  0.4045060000000  0.4861630000000  0.4440700000000 1.0
C      1  0.5695810000000  0.5213380000000  0.4429790000000 1.0
C      1  0.4845430000000  0.4227740000000  0.4473430000000 1.0
C      1  0.4445240000000  0.5513470000000  0.4405370000000 1.0
C      1  0.5735090000000  0.4828890000000  0.5618790000000 1.0
C      1  0.4841440000000  0.5714790000000  0.5544670000000 1.0
C      1  0.4520990000000  0.4475440000000  0.5557060000000 1.0
C      1  0.5136600000000  0.5680280000000  0.5586070000000 1.0
C      1  0.5551110000000  0.4583420000000  0.5620070000000 1.0
C      1  0.4406820000000  0.4753300000000  0.5596270000000 1.0
C      1  0.5147100000000  0.4228960000000  0.4448960000000 1.0
C      1  0.5497430000000  0.5434310000000  0.4429620000000 1.0
C      1  0.4351810000000  0.5232360000000  0.4385350000000 1.0
C      1  0.4935580000000  0.6203590000000  0.5029500000000 1.0
C      1  0.6046090000000  0.4417040000000  0.5010690000000 1.0
C      1  0.3877650000000  0.4448390000000  0.4917610000000 1.0
C      1  0.4964550000000  0.3898350000000  0.4996710000000 1.0
C      1  0.6039510000000  0.5509420000000  0.4990730000000 1.0
C      1  0.4029000000000  0.5613250000000  0.5086080000000 1.0
C      1  0.5654520000000  0.5780430000000  0.4787790000000 1.0
C      1  0.5409940000000  0.3982710000000  0.4838790000000 1.0
C      1  0.4077250000000  0.5195060000000  0.4791740000000 1.0
C      1  0.5712810000000  0.4193990000000  0.5268340000000 1.0
C      1  0.5357400000000  0.5984400000000  0.5219730000000 1.0
C      1  0.4116660000000  0.4839210000000  0.5185550000000 1.0
C      1  0.5380490000000  0.4160220000000  0.4613820000000 1.0
C      1  0.4112830000000  0.5128950000000  0.4512750000000 1.0
C      1  0.5480100000000  0.5681240000000  0.4583390000000 1.0
C      1  0.5354910000000  0.5795760000000  0.5435110000000 1.0
C      1  0.4202080000000  0.4896220000000  0.5450490000000 1.0
C      1  0.5539620000000  0.4344050000000  0.5445370000000 1.0
C      1  0.5019400000000  0.5537060000000  0.4248460000000 1.0
C      1  0.5431190000000  0.4686980000000  0.4232470000000 1.0
C      1  0.4554360000000  0.4739700000000  0.4317130000000 1.0
C      1  0.5087370000000  0.4419960000000  0.5816530000000 1.0
C      1  0.5488480000000  0.5349780000000  0.5827220000000 1.0
C      1  0.4515740000000  0.5242790000000  0.5753710000000 1.0
C      1  0.4246660000000  0.5016920000000  0.4973700000000 1.0
C      1  0.5580240000000  0.4052530000000  0.5056420000000 1.0
C      1  0.5532370000000  0.5926620000000  0.5001100000000 1.0
C      1  0.4778930000000  0.4983630000000  0.4778540000000 1.0
END
