TITL C-2782233-7966-405 0.000165853956728381 125000 -95.0573291045894 0 0 18 (C1) n - 1
REM
REM in /home/nfs/bkarasulu/CARBON/AIRSS/Generating-Clusters/REBO/Higher-Symm/SD-CG/HFTN-CG
REM
REM
REM
REM
REM
REM ./C.cell (12c818d87b63d06a65506943cc24bca4)
REM
REM compiler GCC version 9.2.1 20190827 (Red Hat 9.2.1-1)
REM options -cpp -mtune=generic -march=x86-64 -g -O0 -fpre-include=/usr/include/finclude/math-vector-fortran.h
REM seed -1792012229 -46960865 -482806481 1790831445 -1832718422 1075619171 -2059852355 766605230 2071237809 651015442 1868557071 227183897 213030432 2058584587 -1012597194 670275522 2058878954 1035605502 996929360 -1770664535 -1666287442 -1054325414 1036543730 1210305234 1043234496 -1889655245 1233730528 -994623494 -156560585 -66708411 -101108925 -2114676225 -274775788
REM
CELL 1.54180   50.00000   50.00000   50.00000   90.00000   90.00000   90.00000
LATT -1
SFAC C  
C      1  0.4877720000000  0.4629340000000  0.4961320000000 1.0
C      1  0.4585210000000  0.4914130000000  0.5765810000000 1.0
C      1  0.4566080000000  0.5020220000000  0.4801770000000 1.0
C      1  0.4752310000000  0.4975780000000  0.5256750000000 1.0
C      1  0.5369320000000  0.5014930000000  0.4505700000000 1.0
C      1  0.5461680000000  0.5002000000000  0.5072770000000 1.0
C      1  0.5957500000000  0.4943050000000  0.5238140000000 1.0
C      1  0.5146260000000  0.4992090000000  0.4667130000000 1.0
C      1  0.4720320000000  0.4734640000000  0.4746590000000 1.0
C      1  0.5069250000000  0.5335790000000  0.5018720000000 1.0
C      1  0.4660150000000  0.5163910000000  0.4531160000000 1.0
C      1  0.4630560000000  0.5154000000000  0.5055780000000 1.0
C      1  0.4976210000000  0.4839390000000  0.5129790000000 1.0
C      1  0.4666410000000  0.4944090000000  0.5518440000000 1.0
C      1  0.4797850000000  0.5386680000000  0.5027960000000 1.0
C      1  0.5710460000000  0.4972420000000  0.5155740000000 1.0
C      1  0.5172700000000  0.5036360000000  0.4976380000000 1.0
C      1  0.4880000000000  0.4941180000000  0.4570070000000 1.0
END
