TITL C-2782231-7322-1377 0.00168112838737004 125000 -216.578391956725 0 0 39 (C1) n - 1
REM
REM in /home/nfs/bkarasulu/CARBON/AIRSS/Generating-Clusters/REBO/Higher-Symm/SD-CG/HFTN-CG
REM
REM
REM
REM
REM
REM ./C.cell (12c818d87b63d06a65506943cc24bca4)
REM
REM compiler GCC version 9.2.1 20190827 (Red Hat 9.2.1-1)
REM options -cpp -mtune=generic -march=x86-64 -g -O0 -fpre-include=/usr/include/finclude/math-vector-fortran.h
REM seed 331762014 252811386 310190709 -1513670049 2070268683 -965484682 1005281081 1287576186 365335589 -528077607 1936830228 -414406664 372322296 -623303828 -2140215432 -1904319463 697277075 -379396295 -1577220582 299804017 -1035894395 206783163 -1400507808 -1869985339 1480586377 1295721816 407607613 -91451201 -1695618201 -1972370491 659649220 2143753715 -389246258
REM
CELL 1.54180   50.00000   50.00000   50.00000   90.00000   90.00000   90.00000
LATT -1
SFAC C  
C      1  0.5578070000000  0.5021460000000  0.4702180000000 1.0
C      1  0.5461730000000  0.5238970000000  0.5145560000000 1.0
C      1  0.5534280000000  0.4740050000000  0.5133310000000 1.0
C      1  0.5472830000000  0.4974180000000  0.5278920000000 1.0
C      1  0.5478580000000  0.5255700000000  0.4860530000000 1.0
C      1  0.5576390000000  0.4771700000000  0.4828660000000 1.0
C      1  0.4481680000000  0.4483990000000  0.4726830000000 1.0
C      1  0.4424680000000  0.5554340000000  0.4675130000000 1.0
C      1  0.4503170000000  0.5022480000000  0.5637340000000 1.0
C      1  0.4456160000000  0.4473290000000  0.5279660000000 1.0
C      1  0.4508200000000  0.5578930000000  0.5328410000000 1.0
C      1  0.4547810000000  0.5039500000000  0.4400230000000 1.0
C      1  0.4803860000000  0.4578560000000  0.4694570000000 1.0
C      1  0.4748900000000  0.5563820000000  0.4769620000000 1.0
C      1  0.4760860000000  0.4851700000000  0.5499380000000 1.0
C      1  0.4779780000000  0.4557960000000  0.5332830000000 1.0
C      1  0.4760260000000  0.5541350000000  0.5103130000000 1.0
C      1  0.4805490000000  0.4882550000000  0.4557350000000 1.0
C      1  0.4544240000000  0.5040680000000  0.5314460000000 1.0
C      1  0.4577060000000  0.4768270000000  0.4865420000000 1.0
C      1  0.4541090000000  0.5308470000000  0.4861100000000 1.0
C      1  0.4562290000000  0.5052020000000  0.4725230000000 1.0
C      1  0.4565450000000  0.4761890000000  0.5162410000000 1.0
C      1  0.4538220000000  0.5292260000000  0.5177620000000 1.0
C      1  0.5269120000000  0.5409540000000  0.5291990000000 1.0
C      1  0.5338010000000  0.4473790000000  0.5150330000000 1.0
C      1  0.5332800000000  0.5136700000000  0.4508310000000 1.0
C      1  0.5254730000000  0.5390430000000  0.4711940000000 1.0
C      1  0.5325020000000  0.4586020000000  0.4834600000000 1.0
C      1  0.5270340000000  0.4980250000000  0.5493570000000 1.0
C      1  0.5069880000000  0.4784580000000  0.5483480000000 1.0
C      1  0.5110810000000  0.4656430000000  0.4676350000000 1.0
C      1  0.5057700000000  0.5531310000000  0.4838150000000 1.0
C      1  0.5119580000000  0.4924850000000  0.4523530000000 1.0
C      1  0.5098130000000  0.4530420000000  0.5316050000000 1.0
C      1  0.5077970000000  0.5542970000000  0.5140020000000 1.0
C      1  0.5409110000000  0.5213300000000  0.4249610000000 1.0
C      1  0.5199960000000  0.5260400000000  0.5532680000000 1.0
C      1  0.5458170000000  0.4224880000000  0.5189530000000 1.0
END
