TITL C-2782228-2999-62 0.000461442011085828 125000 -914.749110406443 0 0 156 (C1) n - 1
REM
REM in /home/nfs/bkarasulu/CARBON/AIRSS/Generating-Clusters/REBO/Higher-Symm/SD-CG/HFTN-CG
REM
REM
REM
REM
REM
REM ./C.cell (12c818d87b63d06a65506943cc24bca4)
REM
REM compiler GCC version 9.2.1 20190827 (Red Hat 9.2.1-1)
REM options -cpp -mtune=generic -march=x86-64 -g -O0 -fpre-include=/usr/include/finclude/math-vector-fortran.h
REM seed 763723156 -1616301409 -1568899423 -505629294 -1463109874 -508511902 -1324439438 -130666165 1846832749 48730974 66579257 -13148967 1560964055 568687680 -9300744 -1239717469 -2016311451 1627771552 -330281402 -1042046582 -353938310 -922766442 2110089593 725276665 697780154 -665075866 -818417138 -851834099 -1938576797 -852972972 -1702850565 612059596 1884844924
REM
CELL 1.54180   50.00000   50.00000   50.00000   90.00000   90.00000   90.00000
LATT -1
SFAC C  
C      1  0.5713030000000  0.5719590000000  0.5632640000000 1.0
C      1  0.5546410000000  0.5317270000000  0.4120410000000 1.0
C      1  0.5606630000000  0.4160360000000  0.5234010000000 1.0
C      1  0.4290570000000  0.5695670000000  0.4346390000000 1.0
C      1  0.4452580000000  0.5321530000000  0.5893680000000 1.0
C      1  0.4360300000000  0.4161680000000  0.4769230000000 1.0
C      1  0.5266010000000  0.5158310000000  0.5590950000000 1.0
C      1  0.5268910000000  0.5320680000000  0.4572520000000 1.0
C      1  0.5256210000000  0.4466200000000  0.4906450000000 1.0
C      1  0.4748020000000  0.5158990000000  0.4410230000000 1.0
C      1  0.4725770000000  0.5335900000000  0.5458290000000 1.0
C      1  0.4751210000000  0.4474360000000  0.5099730000000 1.0
C      1  0.4136300000000  0.5364840000000  0.5185860000000 1.0
C      1  0.4108270000000  0.4832950000000  0.4661990000000 1.0
C      1  0.4089730000000  0.4648080000000  0.5353850000000 1.0
C      1  0.5870070000000  0.5373840000000  0.4821400000000 1.0
C      1  0.5870100000000  0.4854600000000  0.5320980000000 1.0
C      1  0.5911550000000  0.4657840000000  0.4628630000000 1.0
C      1  0.4498220000000  0.4932140000000  0.5487780000000 1.0
C      1  0.4493120000000  0.5421410000000  0.4831650000000 1.0
C      1  0.4572110000000  0.4519810000000  0.4748580000000 1.0
C      1  0.5514290000000  0.4922970000000  0.4484700000000 1.0
C      1  0.5514910000000  0.5440040000000  0.5151530000000 1.0
C      1  0.5434200000000  0.4536280000000  0.5254400000000 1.0
C      1  0.4666340000000  0.3823610000000  0.5269610000000 1.0
C      1  0.4634160000000  0.5975440000000  0.5649890000000 1.0
C      1  0.4627190000000  0.5103360000000  0.4034470000000 1.0
C      1  0.5330000000000  0.3816320000000  0.4737320000000 1.0
C      1  0.5409110000000  0.5952540000000  0.4406220000000 1.0
C      1  0.5429560000000  0.5104130000000  0.5950910000000 1.0
C      1  0.5308860000000  0.4389200000000  0.5731930000000 1.0
C      1  0.5551310000000  0.6093320000000  0.5365110000000 1.0
C      1  0.5584160000000  0.4961540000000  0.3796290000000 1.0
C      1  0.4666330000000  0.4376580000000  0.4280830000000 1.0
C      1  0.4446260000000  0.6075310000000  0.4613660000000 1.0
C      1  0.4378060000000  0.4941360000000  0.6179910000000 1.0
C      1  0.4987920000000  0.5634900000000  0.5488040000000 1.0
C      1  0.5084940000000  0.5074240000000  0.4157030000000 1.0
C      1  0.4921540000000  0.4238340000000  0.5370490000000 1.0
C      1  0.5023640000000  0.5633140000000  0.4539980000000 1.0
C      1  0.4898360000000  0.5067660000000  0.5860920000000 1.0
C      1  0.5081970000000  0.4233910000000  0.4634820000000 1.0
C      1  0.5200220000000  0.4304680000000  0.5184630000000 1.0
C      1  0.5176920000000  0.5426120000000  0.5631580000000 1.0
C      1  0.5234670000000  0.5321240000000  0.4251800000000 1.0
C      1  0.4810220000000  0.4303370000000  0.4829590000000 1.0
C      1  0.4834370000000  0.5427640000000  0.4385990000000 1.0
C      1  0.4763870000000  0.5327030000000  0.5775010000000 1.0
C      1  0.5972850000000  0.4535350000000  0.5002500000000 1.0
C      1  0.5962550000000  0.5290840000000  0.5276850000000 1.0
C      1  0.6136570000000  0.5048370000000  0.4491130000000 1.0
C      1  0.4067140000000  0.4554190000000  0.4944940000000 1.0
C      1  0.4033900000000  0.5277770000000  0.4698360000000 1.0
C      1  0.3848700000000  0.5036200000000  0.5472000000000 1.0
C      1  0.5291720000000  0.4705710000000  0.4461290000000 1.0
C      1  0.5197030000000  0.4665270000000  0.5658240000000 1.0
C      1  0.5246300000000  0.5567680000000  0.5036110000000 1.0
C      1  0.4707440000000  0.4704170000000  0.5536490000000 1.0
C      1  0.4807750000000  0.4637510000000  0.4344430000000 1.0
C      1  0.4741220000000  0.5557830000000  0.4979900000000 1.0
C      1  0.4638690000000  0.4904290000000  0.6261870000000 1.0
C      1  0.4715610000000  0.6100170000000  0.4585940000000 1.0
C      1  0.4821000000000  0.4166610000000  0.4203120000000 1.0
C      1  0.5317800000000  0.4935470000000  0.3731040000000 1.0
C      1  0.5285430000000  0.6109130000000  0.5421250000000 1.0
C      1  0.5140810000000  0.4195930000000  0.5822060000000 1.0
C      1  0.4884960000000  0.4991890000000  0.4651410000000 1.0
C      1  0.4926760000000  0.4736760000000  0.5116880000000 1.0
C      1  0.4904860000000  0.5195700000000  0.5225080000000 1.0
C      1  0.5099590000000  0.5002780000000  0.5359570000000 1.0
C      1  0.5106790000000  0.4741280000000  0.4870330000000 1.0
C      1  0.5076530000000  0.5179510000000  0.4792850000000 1.0
C      1  0.4655930000000  0.4886820000000  0.5185970000000 1.0
C      1  0.4617470000000  0.5183830000000  0.5040820000000 1.0
C      1  0.4610690000000  0.4817900000000  0.4681560000000 1.0
C      1  0.5366480000000  0.4905480000000  0.4797420000000 1.0
C      1  0.5381500000000  0.5201710000000  0.4948000000000 1.0
C      1  0.5382820000000  0.4833800000000  0.5323580000000 1.0
C      1  0.4315440000000  0.5088390000000  0.5168150000000 1.0
C      1  0.4365390000000  0.4952420000000  0.4622170000000 1.0
C      1  0.4341580000000  0.4758590000000  0.5164570000000 1.0
C      1  0.5702430000000  0.5095850000000  0.4883310000000 1.0
C      1  0.5622210000000  0.4979620000000  0.5375480000000 1.0
C      1  0.5674360000000  0.4764590000000  0.4844440000000 1.0
C      1  0.6049060000000  0.5035100000000  0.5124220000000 1.0
C      1  0.6091830000000  0.5133280000000  0.4800780000000 1.0
C      1  0.6070790000000  0.4804300000000  0.4878060000000 1.0
C      1  0.3928400000000  0.5027670000000  0.4847240000000 1.0
C      1  0.3916350000000  0.5128620000000  0.5169900000000 1.0
C      1  0.3950720000000  0.4798690000000  0.5092500000000 1.0
C      1  0.5099300000000  0.5926400000000  0.5479260000000 1.0
C      1  0.5110320000000  0.4996830000000  0.3898530000000 1.0
C      1  0.4958870000000  0.4095190000000  0.5645340000000 1.0
C      1  0.4912530000000  0.5923130000000  0.4550440000000 1.0
C      1  0.4856940000000  0.4974580000000  0.6112270000000 1.0
C      1  0.5019290000000  0.4081290000000  0.4370240000000 1.0
C      1  0.4023130000000  0.4845130000000  0.5574390000000 1.0
C      1  0.4010210000000  0.5524820000000  0.4819330000000 1.0
C      1  0.4021800000000  0.4538890000000  0.4651410000000 1.0
C      1  0.5971990000000  0.4843390000000  0.4398320000000 1.0
C      1  0.5994180000000  0.5540370000000  0.5162920000000 1.0
C      1  0.5917450000000  0.4574580000000  0.5293020000000 1.0
C      1  0.5731270000000  0.4909710000000  0.4269180000000 1.0
C      1  0.5798250000000  0.4351240000000  0.5409240000000 1.0
C      1  0.5740900000000  0.5674790000000  0.5161960000000 1.0
C      1  0.4260070000000  0.4933920000000  0.5696950000000 1.0
C      1  0.4153420000000  0.4306060000000  0.4553220000000 1.0
C      1  0.4264390000000  0.5655460000000  0.4816660000000 1.0
C      1  0.4407050000000  0.5250320000000  0.5454050000000 1.0
C      1  0.4340190000000  0.5259360000000  0.4580790000000 1.0
C      1  0.4369100000000  0.4495440000000  0.4989140000000 1.0
C      1  0.5576350000000  0.5221960000000  0.4599840000000 1.0
C      1  0.5660840000000  0.5282000000000  0.5404750000000 1.0
C      1  0.5638280000000  0.4495160000000  0.5018170000000 1.0
C      1  0.4591360000000  0.4474450000000  0.5341170000000 1.0
C      1  0.4577190000000  0.5556280000000  0.5261320000000 1.0
C      1  0.4611420000000  0.4881270000000  0.4267180000000 1.0
C      1  0.5410760000000  0.4473050000000  0.4656490000000 1.0
C      1  0.5417660000000  0.5551930000000  0.4758360000000 1.0
C      1  0.5421320000000  0.4882640000000  0.5718690000000 1.0
C      1  0.5636250000000  0.5446990000000  0.5667620000000 1.0
C      1  0.5574540000000  0.5482590000000  0.4381300000000 1.0
C      1  0.5537300000000  0.4189260000000  0.4944600000000 1.0
C      1  0.4376130000000  0.5424290000000  0.4315510000000 1.0
C      1  0.4437950000000  0.5523000000000  0.5655260000000 1.0
C      1  0.4473590000000  0.4194120000000  0.5047030000000 1.0
C      1  0.5703860000000  0.5856850000000  0.5381460000000 1.0
C      1  0.5668730000000  0.5073570000000  0.4043810000000 1.0
C      1  0.5486300000000  0.4321380000000  0.5510810000000 1.0
C      1  0.4299740000000  0.5835580000000  0.4595600000000 1.0
C      1  0.4317760000000  0.5077090000000  0.5936910000000 1.0
C      1  0.4474610000000  0.4335620000000  0.4498600000000 1.0
C      1  0.4324340000000  0.4422130000000  0.5379330000000 1.0
C      1  0.4300980000000  0.5573990000000  0.5244650000000 1.0
C      1  0.4345250000000  0.4779440000000  0.4263270000000 1.0
C      1  0.5679620000000  0.4430110000000  0.4625830000000 1.0
C      1  0.5693030000000  0.5572770000000  0.4763940000000 1.0
C      1  0.5675360000000  0.4758780000000  0.5703580000000 1.0
C      1  0.5009690000000  0.5502490000000  0.4815150000000 1.0
C      1  0.5020050000000  0.4552280000000  0.4598430000000 1.0
C      1  0.4956120000000  0.4881510000000  0.5637680000000 1.0
C      1  0.4983560000000  0.5515100000000  0.5211690000000 1.0
C      1  0.4990560000000  0.4563050000000  0.5404410000000 1.0
C      1  0.5030210000000  0.4878120000000  0.4372940000000 1.0
C      1  0.4695410000000  0.5700140000000  0.5648790000000 1.0
C      1  0.4561760000000  0.5372700000000  0.4099720000000 1.0
C      1  0.4672450000000  0.4100700000000  0.5222580000000 1.0
C      1  0.5326310000000  0.5683560000000  0.4392710000000 1.0
C      1  0.5472410000000  0.5379160000000  0.5895570000000 1.0
C      1  0.5329520000000  0.4094210000000  0.4778450000000 1.0
C      1  0.4917100000000  0.5590530000000  0.5882930000000 1.0
C      1  0.4804700000000  0.5563310000000  0.4098870000000 1.0
C      1  0.4916070000000  0.4009100000000  0.4919420000000 1.0
C      1  0.5102770000000  0.5598810000000  0.4149580000000 1.0
C      1  0.5216210000000  0.5549910000000  0.5920520000000 1.0
C      1  0.5099950000000  0.4010750000000  0.5095060000000 1.0
END
