TITL C-2782236-320-793 -0.000121037487939114 125000 -595.798361752294 0 0 103 (C1) n - 1
REM
REM in /home/nfs/bkarasulu/CARBON/AIRSS/Generating-Clusters/REBO/Higher-Symm/SD-CG/HFTN-CG
REM
REM
REM
REM
REM
REM ./C.cell (12c818d87b63d06a65506943cc24bca4)
REM
REM compiler GCC version 9.2.1 20190827 (Red Hat 9.2.1-1)
REM options -cpp -mtune=generic -march=x86-64 -g -O0 -fpre-include=/usr/include/finclude/math-vector-fortran.h
REM seed 1589045672 1138458486 -757551078 795053630 1097764745 1067643476 1968700945 -1301915437 744710749 -1567711209 1378073340 -1312560839 356698873 1778004992 1505450253 2018329539 1205073183 -1439835069 166540449 -1728010901 -1304925618 1223039930 -851775995 -206964736 858599745 298904335 -1915305803 -1813332755 -1553148142 -470404716 79744987 459065318 -2145871072
REM
CELL 1.54180   50.00000   50.00000   50.00000   90.00000   90.00000   90.00000
LATT -1
SFAC C  
C      1  0.5423010000000  0.4767760000000  0.4795900000000 1.0
C      1  0.4452720000000  0.4807220000000  0.4882890000000 1.0
C      1  0.4713790000000  0.4309020000000  0.5235440000000 1.0
C      1  0.5296610000000  0.4327100000000  0.5236240000000 1.0
C      1  0.4817810000000  0.5646640000000  0.4695770000000 1.0
C      1  0.5214460000000  0.5645570000000  0.4708680000000 1.0
C      1  0.5750320000000  0.5303500000000  0.4719470000000 1.0
C      1  0.4361420000000  0.5691210000000  0.4113380000000 1.0
C      1  0.4699770000000  0.5628200000000  0.5187820000000 1.0
C      1  0.5292610000000  0.5635480000000  0.5196000000000 1.0
C      1  0.5390570000000  0.5537030000000  0.4948390000000 1.0
C      1  0.4625910000000  0.5548310000000  0.4926530000000 1.0
C      1  0.5290870000000  0.5470910000000  0.4462630000000 1.0
C      1  0.4765550000000  0.5482050000000  0.4439710000000 1.0
C      1  0.4408230000000  0.4372820000000  0.5662680000000 1.0
C      1  0.5677600000000  0.4427520000000  0.5604730000000 1.0
C      1  0.5545610000000  0.5225460000000  0.5605740000000 1.0
C      1  0.4512040000000  0.5157140000000  0.5631220000000 1.0
C      1  0.5257700000000  0.4579260000000  0.4931470000000 1.0
C      1  0.4696440000000  0.4593450000000  0.4936630000000 1.0
C      1  0.4405240000000  0.5037240000000  0.5398260000000 1.0
C      1  0.5650670000000  0.5055410000000  0.5409370000000 1.0
C      1  0.4451730000000  0.4541420000000  0.5888850000000 1.0
C      1  0.5661350000000  0.4589740000000  0.5839210000000 1.0
C      1  0.5209850000000  0.4511050000000  0.4436460000000 1.0
C      1  0.4725730000000  0.4523210000000  0.4480380000000 1.0
C      1  0.5285280000000  0.4186280000000  0.4952710000000 1.0
C      1  0.4697870000000  0.4201180000000  0.4944490000000 1.0
C      1  0.5437020000000  0.5715640000000  0.5428960000000 1.0
C      1  0.4492290000000  0.5589950000000  0.5379670000000 1.0
C      1  0.4226260000000  0.4492800000000  0.5212940000000 1.0
C      1  0.5758190000000  0.4583200000000  0.5148240000000 1.0
C      1  0.4655790000000  0.4692240000000  0.5989030000000 1.0
C      1  0.5459080000000  0.4727060000000  0.5961050000000 1.0
C      1  0.5293430000000  0.5081130000000  0.5112340000000 1.0
C      1  0.4676590000000  0.5088110000000  0.5109380000000 1.0
C      1  0.5360160000000  0.4732990000000  0.4522080000000 1.0
C      1  0.4605650000000  0.4744360000000  0.4584220000000 1.0
C      1  0.5695500000000  0.4539340000000  0.4620210000000 1.0
C      1  0.4240940000000  0.4591070000000  0.4625810000000 1.0
C      1  0.4576700000000  0.4827040000000  0.5262590000000 1.0
C      1  0.5438110000000  0.4898710000000  0.5280030000000 1.0
C      1  0.4655870000000  0.4285710000000  0.5551300000000 1.0
C      1  0.5420050000000  0.4331090000000  0.5530260000000 1.0
C      1  0.4545590000000  0.5595890000000  0.4262100000000 1.0
C      1  0.5615310000000  0.5433820000000  0.4558700000000 1.0
C      1  0.5867620000000  0.4461840000000  0.5388910000000 1.0
C      1  0.4182660000000  0.4380400000000  0.5483730000000 1.0
C      1  0.4893830000000  0.4826860000000  0.5998040000000 1.0
C      1  0.5212220000000  0.4841960000000  0.5987640000000 1.0
C      1  0.5490440000000  0.4373770000000  0.4781110000000 1.0
C      1  0.4475940000000  0.4399750000000  0.4780320000000 1.0
C      1  0.4511070000000  0.4552490000000  0.5284290000000 1.0
C      1  0.5481260000000  0.4613160000000  0.5253090000000 1.0
C      1  0.4255170000000  0.5471570000000  0.5260080000000 1.0
C      1  0.5570280000000  0.5952350000000  0.5440940000000 1.0
C      1  0.5466450000000  0.4982350000000  0.4371740000000 1.0
C      1  0.4545800000000  0.5000180000000  0.4403870000000 1.0
C      1  0.5318530000000  0.5171740000000  0.4603270000000 1.0
C      1  0.4692710000000  0.5210980000000  0.4593990000000 1.0
C      1  0.5860950000000  0.5058840000000  0.4919950000000 1.0
C      1  0.4253330000000  0.5062810000000  0.4945710000000 1.0
C      1  0.4264750000000  0.5191310000000  0.5197660000000 1.0
C      1  0.5862330000000  0.5119340000000  0.5225030000000 1.0
C      1  0.5220190000000  0.5280950000000  0.5677720000000 1.0
C      1  0.4822440000000  0.5263210000000  0.5698020000000 1.0
C      1  0.5203820000000  0.4404410000000  0.5697890000000 1.0
C      1  0.4885320000000  0.4367040000000  0.5689460000000 1.0
C      1  0.4564190000000  0.5469210000000  0.5628430000000 1.0
C      1  0.5447570000000  0.5524860000000  0.5635570000000 1.0
C      1  0.4242990000000  0.4876290000000  0.4500950000000 1.0
C      1  0.5745230000000  0.4816610000000  0.4476760000000 1.0
C      1  0.4595310000000  0.5262450000000  0.4892690000000 1.0
C      1  0.5398080000000  0.5248760000000  0.4907680000000 1.0
C      1  0.4792630000000  0.5133030000000  0.4215880000000 1.0
C      1  0.5231890000000  0.5106400000000  0.4196200000000 1.0
C      1  0.5934130000000  0.4969720000000  0.4606270000000 1.0
C      1  0.4124260000000  0.5068290000000  0.4684530000000 1.0
C      1  0.4185240000000  0.4606840000000  0.4955140000000 1.0
C      1  0.5741160000000  0.4756880000000  0.4884010000000 1.0
C      1  0.5005490000000  0.4906160000000  0.4457320000000 1.0
C      1  0.4992900000000  0.4163220000000  0.4854590000000 1.0
C      1  0.4974740000000  0.4483200000000  0.4884820000000 1.0
C      1  0.5035130000000  0.5379850000000  0.4255500000000 1.0
C      1  0.4942310000000  0.4599570000000  0.4058760000000 1.0
C      1  0.4983940000000  0.4888970000000  0.4959770000000 1.0
C      1  0.5005030000000  0.5318400000000  0.5442790000000 1.0
C      1  0.5015090000000  0.4648170000000  0.5554070000000 1.0
C      1  0.5008150000000  0.5438960000000  0.4892710000000 1.0
C      1  0.5021660000000  0.6151440000000  0.4599150000000 1.0
C      1  0.4992530000000  0.4744950000000  0.5233510000000 1.0
C      1  0.4997880000000  0.4893530000000  0.4119340000000 1.0
C      1  0.4988830000000  0.5137340000000  0.5196880000000 1.0
C      1  0.4997310000000  0.5535900000000  0.5220350000000 1.0
C      1  0.4993420000000  0.4742500000000  0.4679950000000 1.0
C      1  0.5044590000000  0.5551830000000  0.4017640000000 1.0
C      1  0.5024330000000  0.6412370000000  0.4545920000000 1.0
C      1  0.5036780000000  0.5105910000000  0.5877830000000 1.0
C      1  0.5019050000000  0.5896140000000  0.4651230000000 1.0
C      1  0.5003620000000  0.4424220000000  0.5289970000000 1.0
C      1  0.5000300000000  0.5139190000000  0.4727280000000 1.0
C      1  0.4953640000000  0.4467260000000  0.4316090000000 1.0
C      1  0.5026950000000  0.6669140000000  0.4493540000000 1.0
END
