TITL C-2782230-7391-681 -0.00177325833142886 125000 -595.647444398896 0 0 104 (C2) n - 1
REM
REM in /home/nfs/bkarasulu/CARBON/AIRSS/Generating-Clusters/REBO/Higher-Symm/SD-CG/HFTN-CG
REM
REM
REM
REM
REM
REM ./C.cell (12c818d87b63d06a65506943cc24bca4)
REM
REM compiler GCC version 9.2.1 20190827 (Red Hat 9.2.1-1)
REM options -cpp -mtune=generic -march=x86-64 -g -O0 -fpre-include=/usr/include/finclude/math-vector-fortran.h
REM seed 248518420 212458236 1492922713 -493203515 505441880 -1585758378 -218092152 700069752 -317372293 -1440534431 -1333393168 -686523315 -264638476 -1588769058 -734008405 -1618879762 1498209358 -1389521911 46863622 -529856220 1976176439 1602507764 -1584117051 1344426949 1576348708 1947907852 1209643897 1113074071 -1086170888 -25176677 843628012 -974660668 -213188382
REM
CELL 1.54180   50.00000   50.00000   50.00000   90.00000   90.00000   90.00000
LATT -1
SFAC C  
C      1  0.4625230000000  0.5290090000000  0.5224540000000 1.0
C      1  0.5102000000000  0.5287800000000  0.5429150000000 1.0
C      1  0.5438170000000  0.5289540000000  0.5037770000000 1.0
C      1  0.5174780000000  0.5285850000000  0.4591350000000 1.0
C      1  0.4671450000000  0.5289220000000  0.4709220000000 1.0
C      1  0.4624980000000  0.4713150000000  0.4773170000000 1.0
C      1  0.5100780000000  0.4712280000000  0.4569960000000 1.0
C      1  0.5442720000000  0.4714550000000  0.4960150000000 1.0
C      1  0.5174390000000  0.4712810000000  0.5400830000000 1.0
C      1  0.4668430000000  0.4716510000000  0.5288290000000 1.0
C      1  0.4650090000000  0.5549220000000  0.5526800000000 1.0
C      1  0.5395900000000  0.5548800000000  0.5498950000000 1.0
C      1  0.5594110000000  0.5550690000000  0.4779760000000 1.0
C      1  0.4976200000000  0.5547090000000  0.4364020000000 1.0
C      1  0.4393400000000  0.5550530000000  0.4826070000000 1.0
C      1  0.4650170000000  0.4451860000000  0.4472620000000 1.0
C      1  0.5395920000000  0.4453140000000  0.4500190000000 1.0
C      1  0.5599920000000  0.4453540000000  0.5218090000000 1.0
C      1  0.4977200000000  0.4451660000000  0.5628860000000 1.0
C      1  0.4390840000000  0.4455290000000  0.5169680000000 1.0
C      1  0.5127220000000  0.5243480000000  0.5766100000000 1.0
C      1  0.5766780000000  0.5245950000000  0.5120220000000 1.0
C      1  0.5352030000000  0.5243320000000  0.4303570000000 1.0
C      1  0.4453580000000  0.5244310000000  0.4450310000000 1.0
C      1  0.4311600000000  0.5245790000000  0.5351850000000 1.0
C      1  0.5124940000000  0.4756580000000  0.4232330000000 1.0
C      1  0.5770970000000  0.4758870000000  0.4880010000000 1.0
C      1  0.5354360000000  0.4756390000000  0.5687860000000 1.0
C      1  0.4449520000000  0.4759050000000  0.5545800000000 1.0
C      1  0.4311400000000  0.4758080000000  0.4645980000000 1.0
C      1  0.4355160000000  0.4451290000000  0.4643150000000 1.0
C      1  0.4462380000000  0.4452090000000  0.5502760000000 1.0
C      1  0.5316250000000  0.4449920000000  0.5663590000000 1.0
C      1  0.5736260000000  0.4451460000000  0.4905870000000 1.0
C      1  0.5141420000000  0.4450040000000  0.4273410000000 1.0
C      1  0.4355770000000  0.5552330000000  0.5354840000000 1.0
C      1  0.4464420000000  0.5551100000000  0.4492800000000 1.0
C      1  0.5315080000000  0.5550280000000  0.4329110000000 1.0
C      1  0.5731930000000  0.5552420000000  0.5091480000000 1.0
C      1  0.5141090000000  0.5550890000000  0.5725100000000 1.0
C      1  0.4293230000000  0.5229460000000  0.4815640000000 1.0
C      1  0.4609690000000  0.5228530000000  0.5616860000000 1.0
C      1  0.5471050000000  0.5227420000000  0.5563650000000 1.0
C      1  0.5682580000000  0.5229210000000  0.4730360000000 1.0
C      1  0.4954860000000  0.5226240000000  0.4265710000000 1.0
C      1  0.4290760000000  0.4776140000000  0.5179780000000 1.0
C      1  0.4609300000000  0.4772930000000  0.4380580000000 1.0
C      1  0.5469100000000  0.4773830000000  0.4433940000000 1.0
C      1  0.5684690000000  0.4774920000000  0.5269570000000 1.0
C      1  0.4957560000000  0.4773140000000  0.5728270000000 1.0
C      1  0.5339750000000  0.5146280000000  0.5276700000000 1.0
C      1  0.5368750000000  0.5146050000000  0.4764130000000 1.0
C      1  0.4892320000000  0.5145110000000  0.4575320000000 1.0
C      1  0.4567340000000  0.5147930000000  0.4972030000000 1.0
C      1  0.4843540000000  0.5147110000000  0.5404400000000 1.0
C      1  0.5339310000000  0.4855250000000  0.4722000000000 1.0
C      1  0.5371220000000  0.4856070000000  0.5233390000000 1.0
C      1  0.4892690000000  0.4856310000000  0.5419370000000 1.0
C      1  0.4565890000000  0.4857260000000  0.5024620000000 1.0
C      1  0.4842750000000  0.4854440000000  0.4592950000000 1.0
C      1  0.5195020000000  0.5864120000000  0.4728560000000 1.0
C      1  0.4798500000000  0.5876720000000  0.4749090000000 1.0
C      1  0.4687210000000  0.5891300000000  0.5129730000000 1.0
C      1  0.5009570000000  0.5869210000000  0.5321170000000 1.0
C      1  0.5324230000000  0.5891360000000  0.5079960000000 1.0
C      1  0.5179290000000  0.4111000000000  0.5279410000000 1.0
C      1  0.4805160000000  0.4138250000000  0.5265120000000 1.0
C      1  0.4702140000000  0.4125660000000  0.4881660000000 1.0
C      1  0.5029750000000  0.4111070000000  0.4658190000000 1.0
C      1  0.5311450000000  0.4133150000000  0.4905610000000 1.0
C      1  0.5468910000000  0.4989290000000  0.4266130000000 1.0
C      1  0.4451930000000  0.4989990000000  0.4328300000000 1.0
C      1  0.4193180000000  0.4992660000000  0.5314530000000 1.0
C      1  0.5055930000000  0.4988690000000  0.5864320000000 1.0
C      1  0.5841910000000  0.4992640000000  0.5219030000000 1.0
C      1  0.5471560000000  0.5009690000000  0.5728790000000 1.0
C      1  0.4450040000000  0.5013070000000  0.5668530000000 1.0
C      1  0.4194870000000  0.5012410000000  0.4682120000000 1.0
C      1  0.5052850000000  0.5009720000000  0.4131250000000 1.0
C      1  0.5842360000000  0.5013650000000  0.4781850000000 1.0
C      1  0.4893780000000  0.5667150000000  0.5687560000000 1.0
C      1  0.5622050000000  0.5669770000000  0.5315890000000 1.0
C      1  0.5491420000000  0.5667360000000  0.4506110000000 1.0
C      1  0.4686190000000  0.5668170000000  0.4377420000000 1.0
C      1  0.4316880000000  0.5669300000000  0.5107740000000 1.0
C      1  0.4894400000000  0.4333080000000  0.4312790000000 1.0
C      1  0.5624120000000  0.4335200000000  0.4682260000000 1.0
C      1  0.5495710000000  0.4332570000000  0.5489740000000 1.0
C      1  0.4685200000000  0.4335000000000  0.5615760000000 1.0
C      1  0.4313960000000  0.4334210000000  0.4889720000000 1.0
C      1  0.5103930000000  0.5593200000000  0.5329880000000 1.0
C      1  0.5344520000000  0.5598460000000  0.5007080000000 1.0
C      1  0.5114620000000  0.5589720000000  0.4672040000000 1.0
C      1  0.4728560000000  0.5598090000000  0.4788340000000 1.0
C      1  0.4719120000000  0.5599340000000  0.5196790000000 1.0
C      1  0.5103400000000  0.4403030000000  0.4667820000000 1.0
C      1  0.5348900000000  0.4409150000000  0.4992660000000 1.0
C      1  0.5116250000000  0.4403890000000  0.5321240000000 1.0
C      1  0.4726570000000  0.4412650000000  0.5206140000000 1.0
C      1  0.4717860000000  0.4404280000000  0.4803030000000 1.0
C      1  0.5002850000000  0.4500070000000  0.4996450000000 1.0
C      1  0.5000580000000  0.5502300000000  0.4999600000000 1.0
C      1  0.4997160000000  0.6012800000000  0.4991120000000 1.0
C      1  0.4993710000000  0.3989560000000  0.4995810000000 1.0
END
