TITL C-2782239-8622-1038 -0.00175273899912409 125000 -679.051263238361 0 0 117 (C1) n - 1
REM
REM in /home/nfs/bkarasulu/CARBON/AIRSS/Generating-Clusters/REBO/Higher-Symm/SD-CG/HFTN-CG
REM
REM
REM
REM
REM
REM ./C.cell (12c818d87b63d06a65506943cc24bca4)
REM
REM compiler GCC version 9.2.1 20190827 (Red Hat 9.2.1-1)
REM options -cpp -mtune=generic -march=x86-64 -g -O0 -fpre-include=/usr/include/finclude/math-vector-fortran.h
REM seed -927091442 -207374550 -865585846 1502773584 1607887532 531709312 -1166489647 932254949 421364487 2085619441 -2106500092 1178026096 -581048667 -1879052856 501481159 512431375 -962093888 241506894 -31880745 1014741211 221975981 368300219 162833972 1275450803 2101411904 886068597 -896435554 244367709 -2112775493 686121300 1266101998 -281433730 1498585151
REM
CELL 1.54180   50.00000   50.00000   50.00000   90.00000   90.00000   90.00000
LATT -1
SFAC C  
C      1  0.5678850000000  0.5550940000000  0.4874100000000 1.0
C      1  0.5675990000000  0.4822480000000  0.5535400000000 1.0
C      1  0.5693840000000  0.4621700000000  0.4585980000000 1.0
C      1  0.4364940000000  0.5582170000000  0.4866210000000 1.0
C      1  0.4406320000000  0.4803980000000  0.5541580000000 1.0
C      1  0.4371230000000  0.4590030000000  0.4575240000000 1.0
C      1  0.5270190000000  0.4818710000000  0.4706250000000 1.0
C      1  0.5257240000000  0.5321460000000  0.4979020000000 1.0
C      1  0.5271520000000  0.4820200000000  0.5325210000000 1.0
C      1  0.4737260000000  0.4850140000000  0.4773740000000 1.0
C      1  0.4716110000000  0.5350290000000  0.5025160000000 1.0
C      1  0.4748660000000  0.4862350000000  0.5289850000000 1.0
C      1  0.4408800000000  0.5071300000000  0.4352810000000 1.0
C      1  0.4378400000000  0.5560470000000  0.5403580000000 1.0
C      1  0.4395710000000  0.4355460000000  0.5251840000000 1.0
C      1  0.5624400000000  0.5092900000000  0.4337910000000 1.0
C      1  0.5614080000000  0.5517790000000  0.5401240000000 1.0
C      1  0.5628000000000  0.4373430000000  0.5245110000000 1.0
C      1  0.5576040000000  0.5288120000000  0.4591500000000 1.0
C      1  0.5570750000000  0.5194210000000  0.5434840000000 1.0
C      1  0.5574160000000  0.4497100000000  0.4945730000000 1.0
C      1  0.4444320000000  0.5267890000000  0.4609640000000 1.0
C      1  0.4432270000000  0.5238450000000  0.5469110000000 1.0
C      1  0.4431490000000  0.4506580000000  0.4967650000000 1.0
C      1  0.4514860000000  0.4527610000000  0.5503920000000 1.0
C      1  0.4513720000000  0.4760290000000  0.4373640000000 1.0
C      1  0.4500210000000  0.5673950000000  0.5115400000000 1.0
C      1  0.5513110000000  0.4553800000000  0.5497020000000 1.0
C      1  0.5514030000000  0.4787020000000  0.4385930000000 1.0
C      1  0.5503320000000  0.5647840000000  0.5118810000000 1.0
C      1  0.5135430000000  0.5014830000000  0.5728390000000 1.0
C      1  0.5144600000000  0.4380890000000  0.4628280000000 1.0
C      1  0.5151580000000  0.5654160000000  0.4621600000000 1.0
C      1  0.4851900000000  0.5054580000000  0.5726010000000 1.0
C      1  0.4870290000000  0.4356150000000  0.4632380000000 1.0
C      1  0.4872120000000  0.5656310000000  0.4609530000000 1.0
C      1  0.4088960000000  0.4390530000000  0.5126200000000 1.0
C      1  0.4111230000000  0.5195880000000  0.4407460000000 1.0
C      1  0.4085530000000  0.5426430000000  0.5436480000000 1.0
C      1  0.5923320000000  0.4421580000000  0.5114500000000 1.0
C      1  0.5926030000000  0.5184350000000  0.4441870000000 1.0
C      1  0.5914330000000  0.5387470000000  0.5446830000000 1.0
C      1  0.4110920000000  0.4711740000000  0.5090180000000 1.0
C      1  0.4106360000000  0.5077560000000  0.4705760000000 1.0
C      1  0.4100260000000  0.5216920000000  0.5202570000000 1.0
C      1  0.5939200000000  0.4719510000000  0.5059170000000 1.0
C      1  0.5932470000000  0.5089760000000  0.4733480000000 1.0
C      1  0.5920890000000  0.5184600000000  0.5215310000000 1.0
C      1  0.5268520000000  0.5746350000000  0.4092180000000 1.0
C      1  0.5276930000000  0.5378230000000  0.6078410000000 1.0
C      1  0.5297650000000  0.3851360000000  0.4770820000000 1.0
C      1  0.4593850000000  0.5657230000000  0.4322890000000 1.0
C      1  0.4593970000000  0.5270490000000  0.5942290000000 1.0
C      1  0.4608760000000  0.4073000000000  0.4737890000000 1.0
C      1  0.5166560000000  0.4097970000000  0.5226140000000 1.0
C      1  0.5155850000000  0.5224970000000  0.4104440000000 1.0
C      1  0.5151470000000  0.5649620000000  0.5639720000000 1.0
C      1  0.4863420000000  0.4102360000000  0.5207170000000 1.0
C      1  0.4853370000000  0.5228000000000  0.4125260000000 1.0
C      1  0.4848950000000  0.5629100000000  0.5635000000000 1.0
C      1  0.5419040000000  0.4428100000000  0.4528860000000 1.0
C      1  0.5419030000000  0.5724690000000  0.4737220000000 1.0
C      1  0.5396660000000  0.4857770000000  0.5728450000000 1.0
C      1  0.4546050000000  0.4316660000000  0.4573580000000 1.0
C      1  0.4536590000000  0.5713330000000  0.4613460000000 1.0
C      1  0.4560160000000  0.4947850000000  0.5721270000000 1.0
C      1  0.5174290000000  0.5737360000000  0.5124880000000 1.0
C      1  0.5182590000000  0.4502650000000  0.5560010000000 1.0
C      1  0.5181840000000  0.4748080000000  0.4322760000000 1.0
C      1  0.4832870000000  0.5748050000000  0.5124820000000 1.0
C      1  0.4843640000000  0.4473960000000  0.5577790000000 1.0
C      1  0.4843350000000  0.4728450000000  0.4291530000000 1.0
C      1  0.5104850000000  0.5478100000000  0.5897680000000 1.0
C      1  0.5122880000000  0.3954750000000  0.4946910000000 1.0
C      1  0.5101430000000  0.5536390000000  0.4107750000000 1.0
C      1  0.4790340000000  0.5433950000000  0.5864340000000 1.0
C      1  0.4804200000000  0.4001720000000  0.4923730000000 1.0
C      1  0.4785200000000  0.5524250000000  0.4170120000000 1.0
C      1  0.5267740000000  0.4510450000000  0.4889170000000 1.0
C      1  0.5280190000000  0.5364080000000  0.4639500000000 1.0
C      1  0.5270880000000  0.5124550000000  0.5460900000000 1.0
C      1  0.4725650000000  0.4529320000000  0.4857020000000 1.0
C      1  0.4735480000000  0.5379010000000  0.4689310000000 1.0
C      1  0.4738570000000  0.5238790000000  0.5515390000000 1.0
C      1  0.5509210000000  0.5144590000000  0.4878900000000 1.0
C      1  0.5512490000000  0.4990530000000  0.5176510000000 1.0
C      1  0.5523980000000  0.4812640000000  0.4901800000000 1.0
C      1  0.4496790000000  0.5142900000000  0.4901530000000 1.0
C      1  0.4524010000000  0.5060940000000  0.5229060000000 1.0
C      1  0.4490510000000  0.4822250000000  0.4988140000000 1.0
C      1  0.5138350000000  0.5298020000000  0.5265620000000 1.0
C      1  0.5130810000000  0.4618320000000  0.5129290000000 1.0
C      1  0.5135540000000  0.5095770000000  0.4672690000000 1.0
C      1  0.4867680000000  0.5326660000000  0.5290940000000 1.0
C      1  0.4859030000000  0.4659410000000  0.5103110000000 1.0
C      1  0.4877950000000  0.5109210000000  0.4707500000000 1.0
C      1  0.5862130000000  0.4410730000000  0.4792120000000 1.0
C      1  0.5857620000000  0.5468840000000  0.4597500000000 1.0
C      1  0.5843510000000  0.5108660000000  0.5611050000000 1.0
C      1  0.4149710000000  0.4448620000000  0.4795350000000 1.0
C      1  0.4166990000000  0.5460110000000  0.4614730000000 1.0
C      1  0.4140060000000  0.5125100000000  0.5576840000000 1.0
C      1  0.4143960000000  0.5323890000000  0.4927230000000 1.0
C      1  0.4168880000000  0.4903920000000  0.5318270000000 1.0
C      1  0.4162260000000  0.4788330000000  0.4764610000000 1.0
C      1  0.5876960000000  0.5281810000000  0.4946780000000 1.0
C      1  0.5886470000000  0.4900450000000  0.5277060000000 1.0
C      1  0.5903100000000  0.4806670000000  0.4782820000000 1.0
C      1  0.4689650000000  0.4261630000000  0.5375000000000 1.0
C      1  0.4686710000000  0.5002040000000  0.4196470000000 1.0
C      1  0.4677410000000  0.5700320000000  0.5411100000000 1.0
C      1  0.5339590000000  0.4277630000000  0.5375770000000 1.0
C      1  0.5333750000000  0.5015460000000  0.4197650000000 1.0
C      1  0.5327910000000  0.5685320000000  0.5413980000000 1.0
C      1  0.4996130000000  0.5512630000000  0.4961020000000 1.0
C      1  0.4973900000000  0.4739900000000  0.4589030000000 1.0
C      1  0.4977980000000  0.4753780000000  0.5472390000000 1.0
END
