TITL C-2782238-9940-257 0.00399654682415459 125000 -1096.04870702044 0 0 187 (C1) n - 1
REM
REM in /home/nfs/bkarasulu/CARBON/AIRSS/Generating-Clusters/REBO/Higher-Symm/SD-CG/HFTN-CG
REM
REM
REM
REM
REM
REM ./C.cell (12c818d87b63d06a65506943cc24bca4)
REM
REM compiler GCC version 9.2.1 20190827 (Red Hat 9.2.1-1)
REM options -cpp -mtune=generic -march=x86-64 -g -O0 -fpre-include=/usr/include/finclude/math-vector-fortran.h
REM seed 448421044 164167415 -725234185 -1020230194 -921239097 1062762832 199367841 -1078504686 -242033870 528601484 260902453 1520165353 444963965 1577609934 -755269147 -999324075 907509713 -1843533749 1905635987 2121558989 -1956811988 694929923 -223850147 689410876 -113802703 -2065783183 1426702412 19180552 -510563062 1190367283 715552207 -1480829447 489964535
REM
CELL 1.54180   50.00000   50.00000   50.00000   90.00000   90.00000   90.00000
LATT -1
SFAC C  
C      1  0.4029130000000  0.5490480000000  0.4841000000000 1.0
C      1  0.5989990000000  0.4605030000000  0.5253920000000 1.0
C      1  0.4229840000000  0.5592760000000  0.4635350000000 1.0
C      1  0.5871210000000  0.4457800000000  0.5466180000000 1.0
C      1  0.5116490000000  0.5867910000000  0.4349720000000 1.0
C      1  0.4961080000000  0.4277850000000  0.5597930000000 1.0
C      1  0.4688380000000  0.5704580000000  0.5240040000000 1.0
C      1  0.5349200000000  0.4262560000000  0.4674880000000 1.0
C      1  0.5072820000000  0.4010670000000  0.4423300000000 1.0
C      1  0.5037940000000  0.6101550000000  0.5545880000000 1.0
C      1  0.5513260000000  0.5634910000000  0.4147970000000 1.0
C      1  0.4501300000000  0.4390500000000  0.5802450000000 1.0
C      1  0.5160340000000  0.5529420000000  0.4873010000000 1.0
C      1  0.4884220000000  0.4526120000000  0.5096900000000 1.0
C      1  0.4641740000000  0.4230060000000  0.5625640000000 1.0
C      1  0.5430450000000  0.5868440000000  0.4278680000000 1.0
C      1  0.5514330000000  0.4491910000000  0.5103560000000 1.0
C      1  0.4522670000000  0.5508010000000  0.4738500000000 1.0
C      1  0.6059950000000  0.4916400000000  0.5303720000000 1.0
C      1  0.3965020000000  0.4947270000000  0.4724770000000 1.0
C      1  0.5334390000000  0.5004170000000  0.5062420000000 1.0
C      1  0.4748030000000  0.4897940000000  0.4890310000000 1.0
C      1  0.4966310000000  0.6171440000000  0.4780550000000 1.0
C      1  0.5071730000000  0.3895240000000  0.5230270000000 1.0
C      1  0.5527540000000  0.5457130000000  0.4807580000000 1.0
C      1  0.4562040000000  0.4493020000000  0.5325900000000 1.0
C      1  0.4665790000000  0.5916980000000  0.5799580000000 1.0
C      1  0.5437830000000  0.4245800000000  0.4199930000000 1.0
C      1  0.4989280000000  0.5304450000000  0.5330610000000 1.0
C      1  0.5027000000000  0.4601320000000  0.4512020000000 1.0
C      1  0.4795500000000  0.5602920000000  0.5016820000000 1.0
C      1  0.5160300000000  0.4357780000000  0.4863560000000 1.0
C      1  0.4367870000000  0.4901840000000  0.4281470000000 1.0
C      1  0.5496910000000  0.5157100000000  0.5994570000000 1.0
C      1  0.4778190000000  0.5843120000000  0.4394970000000 1.0
C      1  0.5299090000000  0.4241870000000  0.5567950000000 1.0
C      1  0.3606140000000  0.5107040000000  0.5407240000000 1.0
C      1  0.5961810000000  0.4771230000000  0.4537560000000 1.0
C      1  0.4069960000000  0.5185220000000  0.5217520000000 1.0
C      1  0.5849560000000  0.4771500000000  0.4838600000000 1.0
C      1  0.5307050000000  0.5035410000000  0.5374020000000 1.0
C      1  0.4618360000000  0.5010700000000  0.4620520000000 1.0
C      1  0.4204460000000  0.4836070000000  0.5492700000000 1.0
C      1  0.5631520000000  0.5137550000000  0.4473800000000 1.0
C      1  0.5172530000000  0.3909280000000  0.4723410000000 1.0
C      1  0.4875680000000  0.6126130000000  0.5313040000000 1.0
C      1  0.4049370000000  0.5104150000000  0.5535770000000 1.0
C      1  0.5560490000000  0.4878510000000  0.4264900000000 1.0
C      1  0.6008310000000  0.5300030000000  0.4744230000000 1.0
C      1  0.4063120000000  0.4695360000000  0.5212130000000 1.0
C      1  0.5823660000000  0.4722500000000  0.4314140000000 1.0
C      1  0.3785770000000  0.5118840000000  0.5622520000000 1.0
C      1  0.4703920000000  0.5146940000000  0.3910200000000 1.0
C      1  0.5248320000000  0.4858990000000  0.6089380000000 1.0
C      1  0.4320100000000  0.5391470000000  0.4414320000000 1.0
C      1  0.5698580000000  0.4619030000000  0.5631180000000 1.0
C      1  0.5131410000000  0.5063380000000  0.4560070000000 1.0
C      1  0.4820830000000  0.4788420000000  0.5301270000000 1.0
C      1  0.4803500000000  0.4244790000000  0.5011700000000 1.0
C      1  0.5203750000000  0.5818390000000  0.5020460000000 1.0
C      1  0.5795260000000  0.4790530000000  0.5857030000000 1.0
C      1  0.4129680000000  0.5220430000000  0.4271190000000 1.0
C      1  0.5006870000000  0.6084400000000  0.5070440000000 1.0
C      1  0.4998370000000  0.3970660000000  0.4935510000000 1.0
C      1  0.4269700000000  0.5666410000000  0.5209330000000 1.0
C      1  0.5843910000000  0.4290750000000  0.4851780000000 1.0
C      1  0.5225300000000  0.5421620000000  0.5160400000000 1.0
C      1  0.4932660000000  0.4286490000000  0.4542650000000 1.0
C      1  0.5657640000000  0.4974810000000  0.4956480000000 1.0
C      1  0.4264970000000  0.4954760000000  0.5115790000000 1.0
C      1  0.5128540000000  0.5461880000000  0.6026970000000 1.0
C      1  0.4930440000000  0.4596740000000  0.3841650000000 1.0
C      1  0.5178390000000  0.5174440000000  0.5983100000000 1.0
C      1  0.4752660000000  0.4831420000000  0.4012060000000 1.0
C      1  0.4739290000000  0.4735750000000  0.5606350000000 1.0
C      1  0.5091610000000  0.5345750000000  0.4411300000000 1.0
C      1  0.4783160000000  0.3991020000000  0.4600380000000 1.0
C      1  0.5314730000000  0.6081550000000  0.5496700000000 1.0
C      1  0.4653910000000  0.4732370000000  0.6161630000000 1.0
C      1  0.5267780000000  0.5266570000000  0.3882650000000 1.0
C      1  0.5640230000000  0.4043920000000  0.5240340000000 1.0
C      1  0.4417950000000  0.6002930000000  0.4804410000000 1.0
C      1  0.4415920000000  0.5150090000000  0.4098530000000 1.0
C      1  0.5585180000000  0.4880590000000  0.6027060000000 1.0
C      1  0.5140490000000  0.4809980000000  0.3945280000000 1.0
C      1  0.4754280000000  0.5172620000000  0.5948940000000 1.0
C      1  0.5915530000000  0.4532800000000  0.4992810000000 1.0
C      1  0.4114180000000  0.5458940000000  0.5098970000000 1.0
C      1  0.5462840000000  0.3994190000000  0.4788040000000 1.0
C      1  0.4588980000000  0.6017050000000  0.5317750000000 1.0
C      1  0.4533000000000  0.4874810000000  0.5716220000000 1.0
C      1  0.5230370000000  0.5098580000000  0.4241390000000 1.0
C      1  0.4684320000000  0.4438160000000  0.4015200000000 1.0
C      1  0.5406180000000  0.5611800000000  0.5939940000000 1.0
C      1  0.5391270000000  0.4510420000000  0.5368040000000 1.0
C      1  0.4776520000000  0.5525630000000  0.4529320000000 1.0
C      1  0.4484210000000  0.4815690000000  0.5310340000000 1.0
C      1  0.5621920000000  0.5201670000000  0.4749930000000 1.0
C      1  0.5794180000000  0.5402320000000  0.5653590000000 1.0
C      1  0.4200190000000  0.4549370000000  0.4556950000000 1.0
C      1  0.5026480000000  0.4488130000000  0.4212050000000 1.0
C      1  0.5021300000000  0.5433860000000  0.5642680000000 1.0
C      1  0.5334260000000  0.4934090000000  0.4727240000000 1.0
C      1  0.4677130000000  0.5305500000000  0.5256290000000 1.0
C      1  0.5497200000000  0.4788690000000  0.5463490000000 1.0
C      1  0.4593270000000  0.5267010000000  0.4460280000000 1.0
C      1  0.5536450000000  0.4324390000000  0.4455610000000 1.0
C      1  0.4497960000000  0.5865410000000  0.5580870000000 1.0
C      1  0.5849100000000  0.5476810000000  0.4570860000000 1.0
C      1  0.4132350000000  0.4452150000000  0.5439210000000 1.0
C      1  0.4881410000000  0.4870330000000  0.4516140000000 1.0
C      1  0.5007250000000  0.4998010000000  0.5470170000000 1.0
C      1  0.4253180000000  0.4855950000000  0.4570460000000 1.0
C      1  0.5889590000000  0.5178710000000  0.5421790000000 1.0
C      1  0.4414650000000  0.4767600000000  0.5971070000000 1.0
C      1  0.5514120000000  0.5172120000000  0.4098800000000 1.0
C      1  0.5493030000000  0.5814470000000  0.5507140000000 1.0
C      1  0.4458900000000  0.4065370000000  0.4586120000000 1.0
C      1  0.5302500000000  0.5293310000000  0.5573130000000 1.0
C      1  0.4712390000000  0.4420310000000  0.4346680000000 1.0
C      1  0.4454230000000  0.4374100000000  0.4488480000000 1.0
C      1  0.5521390000000  0.5506430000000  0.5543920000000 1.0
C      1  0.4390690000000  0.5914770000000  0.5078070000000 1.0
C      1  0.5688060000000  0.4063920000000  0.4959900000000 1.0
C      1  0.4884590000000  0.4529680000000  0.5778050000000 1.0
C      1  0.5049240000000  0.5580570000000  0.4198760000000 1.0
C      1  0.5336490000000  0.4653010000000  0.4564320000000 1.0
C      1  0.4550110000000  0.5382740000000  0.5508240000000 1.0
C      1  0.4454380000000  0.4388270000000  0.4820150000000 1.0
C      1  0.5479710000000  0.5520440000000  0.5236910000000 1.0
C      1  0.4576510000000  0.5277860000000  0.4938010000000 1.0
C      1  0.5425990000000  0.4651870000000  0.4893210000000 1.0
C      1  0.4897010000000  0.5043240000000  0.4237740000000 1.0
C      1  0.5033770000000  0.4951430000000  0.5769160000000 1.0
C      1  0.4016880000000  0.4250610000000  0.4880800000000 1.0
C      1  0.5940310000000  0.5655910000000  0.5210100000000 1.0
C      1  0.6008360000000  0.5486300000000  0.5410410000000 1.0
C      1  0.3981950000000  0.4424180000000  0.4667120000000 1.0
C      1  0.4944070000000  0.5938900000000  0.5757730000000 1.0
C      1  0.5190690000000  0.4127660000000  0.4161130000000 1.0
C      1  0.5290880000000  0.4703650000000  0.4229490000000 1.0
C      1  0.4740620000000  0.5335050000000  0.5731780000000 1.0
C      1  0.4862050000000  0.5789100000000  0.4815220000000 1.0
C      1  0.5183480000000  0.4263530000000  0.5133630000000 1.0
C      1  0.5347590000000  0.4041970000000  0.5317940000000 1.0
C      1  0.4698570000000  0.6026860000000  0.4670520000000 1.0
C      1  0.5610500000000  0.5406030000000  0.5918880000000 1.0
C      1  0.4509800000000  0.4695410000000  0.4153660000000 1.0
C      1  0.4603040000000  0.4000900000000  0.4885130000000 1.0
C      1  0.5430540000000  0.5966850000000  0.5212030000000 1.0
C      1  0.5284660000000  0.5529010000000  0.4007190000000 1.0
C      1  0.4684310000000  0.4476980000000  0.6019490000000 1.0
C      1  0.5673930000000  0.4999870000000  0.5273130000000 1.0
C      1  0.4373920000000  0.5019840000000  0.4845710000000 1.0
C      1  0.6066920000000  0.5101110000000  0.5017280000000 1.0
C      1  0.3893540000000  0.4887540000000  0.4988530000000 1.0
C      1  0.6115660000000  0.4992020000000  0.4706030000000 1.0
C      1  0.3748980000000  0.5092240000000  0.5159240000000 1.0
C      1  0.4658800000000  0.5651220000000  0.4170890000000 1.0
C      1  0.5368670000000  0.4468530000000  0.5765130000000 1.0
C      1  0.5161120000000  0.4645450000000  0.5857280000000 1.0
C      1  0.4794190000000  0.5360370000000  0.4149400000000 1.0
C      1  0.4230870000000  0.5897840000000  0.4631320000000 1.0
C      1  0.5810570000000  0.4185710000000  0.5414990000000 1.0
C      1  0.5685340000000  0.5696440000000  0.4711920000000 1.0
C      1  0.4364630000000  0.4300940000000  0.5346960000000 1.0
C      1  0.5070740000000  0.5673600000000  0.4605290000000 1.0
C      1  0.5055630000000  0.4470000000000  0.5356490000000 1.0
C      1  0.5678390000000  0.5674610000000  0.5106580000000 1.0
C      1  0.4284020000000  0.4226540000000  0.4964950000000 1.0
C      1  0.5043140000000  0.5086740000000  0.3870480000000 1.0
C      1  0.4902620000000  0.4909450000000  0.6090600000000 1.0
C      1  0.4442510000000  0.4041650000000  0.5183280000000 1.0
C      1  0.5568530000000  0.5925570000000  0.4902940000000 1.0
C      1  0.4767220000000  0.3997720000000  0.5249120000000 1.0
C      1  0.5276700000000  0.6056440000000  0.4785020000000 1.0
C      1  0.4247210000000  0.4596430000000  0.5726070000000 1.0
C      1  0.5689990000000  0.5403260000000  0.4278320000000 1.0
C      1  0.4916870000000  0.5294800000000  0.4939080000000 1.0
C      1  0.5081800000000  0.4680900000000  0.4898100000000 1.0
C      1  0.5802670000000  0.4330590000000  0.4564750000000 1.0
C      1  0.4381350000000  0.5620010000000  0.5480970000000 1.0
C      1  0.3949250000000  0.5084310000000  0.4448190000000 1.0
C      1  0.6008870000000  0.4870430000000  0.5639340000000 1.0
C      1  0.4984830000000  0.4280420000000  0.3957690000000 1.0
C      1  0.5106080000000  0.5701070000000  0.5803900000000 1.0
C      1  0.5021750000000  0.5008180000000  0.4961580000000 1.0
END
