TITL C-2782235-7892-251 0.00100069610453214 125000 -915.416119417501 0 0 156 (C1) n - 1
REM
REM in /home/nfs/bkarasulu/CARBON/AIRSS/Generating-Clusters/REBO/Higher-Symm/SD-CG/HFTN-CG
REM
REM
REM
REM
REM
REM ./C.cell (12c818d87b63d06a65506943cc24bca4)
REM
REM compiler GCC version 9.2.1 20190827 (Red Hat 9.2.1-1)
REM options -cpp -mtune=generic -march=x86-64 -g -O0 -fpre-include=/usr/include/finclude/math-vector-fortran.h
REM seed 987234489 -1630172214 -297024417 804379836 1190990157 -708413143 1415618429 -1815440915 -16842209 -828507123 -1897780313 -1942463392 -304918489 -297115159 2023980154 -1990483281 -1020211150 1479097424 1501477922 562321623 -1288160131 -1944784284 -1414440714 110878531 1193204797 -192841756 871637506 -628411122 573074652 -725910657 -941914362 -867090578 1628004291
REM
CELL 1.54180   50.00000   50.00000   50.00000   90.00000   90.00000   90.00000
LATT -1
SFAC C  
C      1  0.4676800000000  0.5923440000000  0.4494930000000 1.0
C      1  0.4736060000000  0.4241040000000  0.4430920000000 1.0
C      1  0.5239640000000  0.4156470000000  0.5943740000000 1.0
C      1  0.4617150000000  0.5272060000000  0.5302680000000 1.0
C      1  0.4353650000000  0.5184100000000  0.5016010000000 1.0
C      1  0.4311680000000  0.5009290000000  0.4266620000000 1.0
C      1  0.5560160000000  0.4943190000000  0.5343980000000 1.0
C      1  0.5416570000000  0.4912300000000  0.4016830000000 1.0
C      1  0.4100380000000  0.5009370000000  0.5270950000000 1.0
C      1  0.4298970000000  0.4498600000000  0.4595070000000 1.0
C      1  0.4761220000000  0.5803700000000  0.4042810000000 1.0
C      1  0.4688100000000  0.4292620000000  0.5770190000000 1.0
C      1  0.4244110000000  0.5733630000000  0.5148990000000 1.0
C      1  0.5128970000000  0.5089570000000  0.3991280000000 1.0
C      1  0.5882520000000  0.5277470000000  0.5519190000000 1.0
C      1  0.4599340000000  0.5381490000000  0.5741160000000 1.0
C      1  0.5980750000000  0.5017870000000  0.5540430000000 1.0
C      1  0.4876100000000  0.5374530000000  0.5170500000000 1.0
C      1  0.5841600000000  0.4461780000000  0.4854830000000 1.0
C      1  0.4556940000000  0.5326180000000  0.4437280000000 1.0
C      1  0.4369540000000  0.4775250000000  0.5653930000000 1.0
C      1  0.5313000000000  0.5394480000000  0.4677330000000 1.0
C      1  0.4643030000000  0.4095680000000  0.4726150000000 1.0
C      1  0.4285370000000  0.4481240000000  0.5266310000000 1.0
C      1  0.4624800000000  0.5994770000000  0.5325530000000 1.0
C      1  0.5682660000000  0.4833020000000  0.4096180000000 1.0
C      1  0.5438810000000  0.5696950000000  0.4365020000000 1.0
C      1  0.5289950000000  0.5238430000000  0.4251320000000 1.0
C      1  0.4539840000000  0.5571050000000  0.4814030000000 1.0
C      1  0.4870670000000  0.4140760000000  0.5355380000000 1.0
C      1  0.4927480000000  0.3948520000000  0.4840600000000 1.0
C      1  0.5485010000000  0.4168080000000  0.5801190000000 1.0
C      1  0.5097920000000  0.4279250000000  0.4315940000000 1.0
C      1  0.4563750000000  0.5638760000000  0.5638520000000 1.0
C      1  0.5128700000000  0.4744750000000  0.5604130000000 1.0
C      1  0.4967840000000  0.4438850000000  0.4589850000000 1.0
C      1  0.4169550000000  0.5733050000000  0.4892940000000 1.0
C      1  0.5211780000000  0.5815030000000  0.4594940000000 1.0
C      1  0.4686700000000  0.5045400000000  0.5547080000000 1.0
C      1  0.5493410000000  0.5166460000000  0.5765710000000 1.0
C      1  0.4678040000000  0.4519040000000  0.4269160000000 1.0
C      1  0.4880840000000  0.5239310000000  0.5718670000000 1.0
C      1  0.5375440000000  0.4753690000000  0.4703620000000 1.0
C      1  0.4816070000000  0.4098470000000  0.5085710000000 1.0
C      1  0.4210780000000  0.4334570000000  0.4838100000000 1.0
C      1  0.4700640000000  0.5614310000000  0.4531260000000 1.0
C      1  0.4752300000000  0.5142870000000  0.4726050000000 1.0
C      1  0.4643540000000  0.5983280000000  0.4220200000000 1.0
C      1  0.4321980000000  0.4779230000000  0.5368220000000 1.0
C      1  0.5205200000000  0.3903960000000  0.4870280000000 1.0
C      1  0.4624280000000  0.4834360000000  0.4762180000000 1.0
C      1  0.5093110000000  0.5996960000000  0.5132370000000 1.0
C      1  0.4635070000000  0.4146820000000  0.5518250000000 1.0
C      1  0.4989120000000  0.5665690000000  0.4138710000000 1.0
C      1  0.5012560000000  0.5388430000000  0.4288500000000 1.0
C      1  0.5612660000000  0.5159290000000  0.4792000000000 1.0
C      1  0.5824470000000  0.4568130000000  0.4582500000000 1.0
C      1  0.5012360000000  0.4951060000000  0.5834580000000 1.0
C      1  0.5208960000000  0.5444030000000  0.5807790000000 1.0
C      1  0.5155520000000  0.4269670000000  0.5364920000000 1.0
C      1  0.4964650000000  0.5644310000000  0.5351190000000 1.0
C      1  0.4612100000000  0.4609610000000  0.5791750000000 1.0
C      1  0.4110620000000  0.5341320000000  0.5178930000000 1.0
C      1  0.5593680000000  0.5425580000000  0.5624930000000 1.0
C      1  0.5271770000000  0.4924960000000  0.5209940000000 1.0
C      1  0.5604340000000  0.4237340000000  0.5204230000000 1.0
C      1  0.4695450000000  0.6047750000000  0.4749680000000 1.0
C      1  0.5310800000000  0.4997200000000  0.4468130000000 1.0
C      1  0.4600030000000  0.4436620000000  0.4744290000000 1.0
C      1  0.4341630000000  0.5956550000000  0.5331860000000 1.0
C      1  0.4578650000000  0.5839160000000  0.4960060000000 1.0
C      1  0.5007550000000  0.4904820000000  0.4370800000000 1.0
C      1  0.4763040000000  0.4781730000000  0.6235570000000 1.0
C      1  0.5755310000000  0.5682260000000  0.4832060000000 1.0
C      1  0.5544650000000  0.4411770000000  0.5666460000000 1.0
C      1  0.5391020000000  0.4067950000000  0.5290160000000 1.0
C      1  0.4501170000000  0.5015990000000  0.4071150000000 1.0
C      1  0.4820470000000  0.4638140000000  0.4053420000000 1.0
C      1  0.5455070000000  0.4733590000000  0.5015420000000 1.0
C      1  0.4166370000000  0.4980780000000  0.4633630000000 1.0
C      1  0.5773810000000  0.4811570000000  0.4374630000000 1.0
C      1  0.6033110000000  0.4848480000000  0.5311830000000 1.0
C      1  0.5608490000000  0.5455930000000  0.5295160000000 1.0
C      1  0.5171510000000  0.4270070000000  0.5025050000000 1.0
C      1  0.5190400000000  0.5671980000000  0.5114640000000 1.0
C      1  0.5519280000000  0.4550760000000  0.4536530000000 1.0
C      1  0.4837930000000  0.5410590000000  0.4862990000000 1.0
C      1  0.5141280000000  0.4445660000000  0.6053900000000 1.0
C      1  0.5067580000000  0.5399680000000  0.5520430000000 1.0
C      1  0.5574430000000  0.5843550000000  0.4976940000000 1.0
C      1  0.5784660000000  0.5352430000000  0.4411470000000 1.0
C      1  0.4792500000000  0.4779910000000  0.5972800000000 1.0
C      1  0.4396620000000  0.5473170000000  0.5302470000000 1.0
C      1  0.5988010000000  0.5024850000000  0.4738740000000 1.0
C      1  0.5310070000000  0.4668530000000  0.6006340000000 1.0
C      1  0.4897540000000  0.4353400000000  0.4888630000000 1.0
C      1  0.5298470000000  0.4526520000000  0.5479210000000 1.0
C      1  0.5984260000000  0.5171650000000  0.4498830000000 1.0
C      1  0.5557970000000  0.4541130000000  0.5273230000000 1.0
C      1  0.4391360000000  0.4162170000000  0.5334140000000 1.0
C      1  0.4047150000000  0.5479260000000  0.5485500000000 1.0
C      1  0.5625810000000  0.5475460000000  0.4667180000000 1.0
C      1  0.4798330000000  0.5159830000000  0.4294990000000 1.0
C      1  0.5195290000000  0.4734700000000  0.4153850000000 1.0
C      1  0.5573920000000  0.5776340000000  0.5246300000000 1.0
C      1  0.5723250000000  0.4857130000000  0.4871610000000 1.0
C      1  0.4805270000000  0.4663010000000  0.5210080000000 1.0
C      1  0.4831620000000  0.4793070000000  0.5504500000000 1.0
C      1  0.5308360000000  0.3841570000000  0.5135770000000 1.0
C      1  0.5743570000000  0.5093680000000  0.5193490000000 1.0
C      1  0.5670930000000  0.4232290000000  0.4923940000000 1.0
C      1  0.5145970000000  0.5197810000000  0.5275580000000 1.0
C      1  0.5056110000000  0.4452680000000  0.4025230000000 1.0
C      1  0.5241710000000  0.5174780000000  0.5918500000000 1.0
C      1  0.5093360000000  0.4933820000000  0.4919610000000 1.0
C      1  0.4257210000000  0.4738520000000  0.4449000000000 1.0
C      1  0.4031280000000  0.5262680000000  0.4696980000000 1.0
C      1  0.4079980000000  0.4496540000000  0.5038940000000 1.0
C      1  0.4234100000000  0.5521150000000  0.4672820000000 1.0
C      1  0.3959620000000  0.5064280000000  0.4964030000000 1.0
C      1  0.4342550000000  0.4813410000000  0.4852110000000 1.0
C      1  0.5452580000000  0.5725570000000  0.5539830000000 1.0
C      1  0.4924920000000  0.4242250000000  0.5913740000000 1.0
C      1  0.4599930000000  0.4430030000000  0.5142090000000 1.0
C      1  0.4143320000000  0.5190870000000  0.5544850000000 1.0
C      1  0.5281990000000  0.5891870000000  0.4870240000000 1.0
C      1  0.4806460000000  0.6062180000000  0.5073480000000 1.0
C      1  0.5550630000000  0.4921420000000  0.5634220000000 1.0
C      1  0.4819830000000  0.4951400000000  0.4023510000000 1.0
C      1  0.4216570000000  0.5304390000000  0.4407400000000 1.0
C      1  0.4427070000000  0.5177090000000  0.4716570000000 1.0
C      1  0.5973450000000  0.5584760000000  0.4973740000000 1.0
C      1  0.4808420000000  0.4876290000000  0.5010530000000 1.0
C      1  0.5342640000000  0.5415300000000  0.5142300000000 1.0
C      1  0.5393070000000  0.4154190000000  0.4794180000000 1.0
C      1  0.5056850000000  0.4741270000000  0.4639710000000 1.0
C      1  0.4057410000000  0.4770790000000  0.4953860000000 1.0
C      1  0.6035160000000  0.5031880000000  0.5043030000000 1.0
C      1  0.5303310000000  0.5183620000000  0.4909090000000 1.0
C      1  0.5364490000000  0.4264790000000  0.4528600000000 1.0
C      1  0.4650240000000  0.4665150000000  0.4510260000000 1.0
C      1  0.4392920000000  0.5173770000000  0.5662760000000 1.0
C      1  0.4269050000000  0.5700520000000  0.5543760000000 1.0
C      1  0.5909310000000  0.5391170000000  0.5200310000000 1.0
C      1  0.5180730000000  0.5836980000000  0.4257460000000 1.0
C      1  0.5025300000000  0.5529640000000  0.4599020000000 1.0
C      1  0.5521920000000  0.5439400000000  0.4284440000000 1.0
C      1  0.5833870000000  0.4671600000000  0.5122600000000 1.0
C      1  0.5496940000000  0.4684750000000  0.5787820000000 1.0
C      1  0.4439410000000  0.4170700000000  0.4991470000000 1.0
C      1  0.4628220000000  0.4540050000000  0.5463020000000 1.0
C      1  0.5621940000000  0.5004440000000  0.4517510000000 1.0
C      1  0.4531620000000  0.4973490000000  0.5185640000000 1.0
C      1  0.5247060000000  0.5915940000000  0.5425600000000 1.0
C      1  0.5360410000000  0.4487210000000  0.4268970000000 1.0
C      1  0.4746440000000  0.5792130000000  0.5483240000000 1.0
END
