TITL C-2782232-2968-597 0.00249747990143246 125000 -608.010905360172 0 0 104 (C1) n - 1
REM
REM in /home/nfs/bkarasulu/CARBON/AIRSS/Generating-Clusters/REBO/Higher-Symm/SD-CG/HFTN-CG
REM
REM
REM
REM
REM
REM ./C.cell (12c818d87b63d06a65506943cc24bca4)
REM
REM compiler GCC version 9.2.1 20190827 (Red Hat 9.2.1-1)
REM options -cpp -mtune=generic -march=x86-64 -g -O0 -fpre-include=/usr/include/finclude/math-vector-fortran.h
REM seed -168217758 88222270 96029070 -1124727819 781615069 1066419413 -669521488 -1366068932 -1432372259 362058249 2114755382 -1929416321 -304640899 -509170094 -292851359 1318356019 -1215928046 1762350127 -126344470 1597854989 680442616 2034145103 326690663 -2021486596 1674915704 1347182593 -1801939761 -841685160 1797604465 -654133090 509115270 235277159 1503997099
REM
CELL 1.54180   50.00000   50.00000   50.00000   90.00000   90.00000   90.00000
LATT -1
SFAC C  
C      1  0.4337370000000  0.5265700000000  0.4564620000000 1.0
C      1  0.4332950000000  0.5276840000000  0.5447020000000 1.0
C      1  0.4362810000000  0.4483890000000  0.5004570000000 1.0
C      1  0.5632340000000  0.5264760000000  0.4542040000000 1.0
C      1  0.5633860000000  0.5240470000000  0.5448810000000 1.0
C      1  0.5661300000000  0.4491520000000  0.4990030000000 1.0
C      1  0.4881330000000  0.4786240000000  0.5193790000000 1.0
C      1  0.4853150000000  0.4952510000000  0.4701790000000 1.0
C      1  0.4845010000000  0.5290980000000  0.5098000000000 1.0
C      1  0.5152750000000  0.4772440000000  0.5194380000000 1.0
C      1  0.5124510000000  0.4942340000000  0.4713710000000 1.0
C      1  0.5116580000000  0.5286200000000  0.5112080000000 1.0
C      1  0.4848510000000  0.5697260000000  0.4809930000000 1.0
C      1  0.4867870000000  0.4832970000000  0.5691650000000 1.0
C      1  0.4811980000000  0.4506530000000  0.4500560000000 1.0
C      1  0.5169560000000  0.5685180000000  0.4826830000000 1.0
C      1  0.5190480000000  0.4797190000000  0.5684830000000 1.0
C      1  0.5133950000000  0.4490820000000  0.4497910000000 1.0
C      1  0.5138490000000  0.4282430000000  0.5530220000000 1.0
C      1  0.5135850000000  0.4894910000000  0.4114330000000 1.0
C      1  0.5128270000000  0.5814570000000  0.5358620000000 1.0
C      1  0.4852640000000  0.4292830000000  0.5537230000000 1.0
C      1  0.4850280000000  0.4896550000000  0.4118690000000 1.0
C      1  0.4843150000000  0.5830830000000  0.5348110000000 1.0
C      1  0.4308760000000  0.5297220000000  0.4878100000000 1.0
C      1  0.4312750000000  0.4987370000000  0.5323440000000 1.0
C      1  0.4313510000000  0.4745500000000  0.4823950000000 1.0
C      1  0.5673700000000  0.5291670000000  0.4856240000000 1.0
C      1  0.5680630000000  0.4958150000000  0.5310280000000 1.0
C      1  0.5681080000000  0.4746710000000  0.4808040000000 1.0
C      1  0.4608470000000  0.5568900000000  0.5689650000000 1.0
C      1  0.4633280000000  0.4133900000000  0.5124400000000 1.0
C      1  0.4649560000000  0.5346030000000  0.4167460000000 1.0
C      1  0.5319240000000  0.5527470000000  0.5722430000000 1.0
C      1  0.5346600000000  0.4105750000000  0.5117650000000 1.0
C      1  0.5360540000000  0.5329440000000  0.4185990000000 1.0
C      1  0.4714420000000  0.5210990000000  0.5354120000000 1.0
C      1  0.4743380000000  0.4600480000000  0.5007690000000 1.0
C      1  0.4728710000000  0.5220400000000  0.4628600000000 1.0
C      1  0.5241960000000  0.5213060000000  0.5379200000000 1.0
C      1  0.5270760000000  0.4573660000000  0.4997140000000 1.0
C      1  0.5256980000000  0.5201930000000  0.4658480000000 1.0
C      1  0.5143050000000  0.4298330000000  0.4973770000000 1.0
C      1  0.5148030000000  0.5338030000000  0.4408840000000 1.0
C      1  0.5107060000000  0.5314220000000  0.5631640000000 1.0
C      1  0.4852690000000  0.4318120000000  0.5009310000000 1.0
C      1  0.4857050000000  0.5378690000000  0.4403720000000 1.0
C      1  0.4819060000000  0.5364070000000  0.5596280000000 1.0
C      1  0.4861410000000  0.4246720000000  0.4694520000000 1.0
C      1  0.4792890000000  0.5681270000000  0.4491610000000 1.0
C      1  0.4808270000000  0.5129000000000  0.5821870000000 1.0
C      1  0.5205500000000  0.4223040000000  0.4667060000000 1.0
C      1  0.5137620000000  0.5648160000000  0.4501260000000 1.0
C      1  0.5149400000000  0.5077430000000  0.5835830000000 1.0
C      1  0.4757160000000  0.4925780000000  0.5401300000000 1.0
C      1  0.4724720000000  0.4707010000000  0.4733710000000 1.0
C      1  0.4733430000000  0.5398370000000  0.4865250000000 1.0
C      1  0.5275140000000  0.4917660000000  0.5399590000000 1.0
C      1  0.5246410000000  0.4690960000000  0.4727130000000 1.0
C      1  0.5252460000000  0.5382650000000  0.4888360000000 1.0
C      1  0.4545140000000  0.5485070000000  0.5277820000000 1.0
C      1  0.4565660000000  0.4532160000000  0.5275350000000 1.0
C      1  0.4540210000000  0.5013610000000  0.4461290000000 1.0
C      1  0.5434080000000  0.5458900000000  0.5282040000000 1.0
C      1  0.5455660000000  0.4520160000000  0.5259460000000 1.0
C      1  0.5426260000000  0.5007660000000  0.4450430000000 1.0
C      1  0.4421190000000  0.4351190000000  0.4542150000000 1.0
C      1  0.4414590000000  0.5730920000000  0.4660330000000 1.0
C      1  0.4432540000000  0.4946500000000  0.5798330000000 1.0
C      1  0.5570310000000  0.4350660000000  0.4538690000000 1.0
C      1  0.5553570000000  0.5729170000000  0.4670950000000 1.0
C      1  0.5563400000000  0.4920290000000  0.5791880000000 1.0
C      1  0.5572850000000  0.5608140000000  0.4939730000000 1.0
C      1  0.5590110000000  0.4741950000000  0.5561100000000 1.0
C      1  0.5571130000000  0.4640380000000  0.4502680000000 1.0
C      1  0.4409670000000  0.5620220000000  0.4928880000000 1.0
C      1  0.4427580000000  0.4771450000000  0.5562330000000 1.0
C      1  0.4404530000000  0.4642600000000  0.4509940000000 1.0
C      1  0.5481440000000  0.5548200000000  0.4424430000000 1.0
C      1  0.5473810000000  0.5222270000000  0.5749490000000 1.0
C      1  0.5508250000000  0.4226800000000  0.4839460000000 1.0
C      1  0.4490610000000  0.5528460000000  0.4410930000000 1.0
C      1  0.4473820000000  0.5257700000000  0.5757200000000 1.0
C      1  0.4516300000000  0.4241350000000  0.4818220000000 1.0
C      1  0.5263800000000  0.5771870000000  0.5612440000000 1.0
C      1  0.5277420000000  0.4075080000000  0.5380640000000 1.0
C      1  0.5298860000000  0.5118600000000  0.4019510000000 1.0
C      1  0.4675320000000  0.5814570000000  0.5586560000000 1.0
C      1  0.4685600000000  0.4100730000000  0.5392930000000 1.0
C      1  0.4708650000000  0.5127700000000  0.4015100000000 1.0
C      1  0.5291320000000  0.4738640000000  0.4334590000000 1.0
C      1  0.5301270000000  0.5698380000000  0.5128340000000 1.0
C      1  0.5316410000000  0.4535410000000  0.5539610000000 1.0
C      1  0.4678510000000  0.4759110000000  0.4339840000000 1.0
C      1  0.4687680000000  0.5714750000000  0.5102860000000 1.0
C      1  0.4701090000000  0.4567530000000  0.5565330000000 1.0
C      1  0.5762510000000  0.4632400000000  0.5284920000000 1.0
C      1  0.5736370000000  0.4938810000000  0.4535810000000 1.0
C      1  0.5734530000000  0.5406600000000  0.5166570000000 1.0
C      1  0.4263590000000  0.4657190000000  0.5283100000000 1.0
C      1  0.4236660000000  0.4938480000000  0.4557400000000 1.0
C      1  0.4235070000000  0.5450670000000  0.5169790000000 1.0
C      1  0.4312170000000  0.5007350000000  0.5005600000000 1.0
C      1  0.5679530000000  0.5002780000000  0.4995740000000 1.0
END
