TITL C-2782229-3092-252 0.0015196331650232 125000 -305.228494354979 0 0 55 (C1) n - 1
REM
REM in /home/nfs/bkarasulu/CARBON/AIRSS/Generating-Clusters/REBO/Higher-Symm/SD-CG/HFTN-CG
REM
REM
REM
REM
REM
REM ./C.cell (12c818d87b63d06a65506943cc24bca4)
REM
REM compiler GCC version 9.2.1 20190827 (Red Hat 9.2.1-1)
REM options -cpp -mtune=generic -march=x86-64 -g -O0 -fpre-include=/usr/include/finclude/math-vector-fortran.h
REM seed -1406696136 -1356063750 2136737314 -1563090083 161208363 -618682560 184799280 830175433 -426773633 -1923780685 1661902572 -1586667574 1203252219 -168545337 -1475479872 861728643 -1886337022 674062353 -640252907 -1134211392 373264494 316394874 -249823615 85127562 -435441053 -2084915916 -988871352 -1835955144 618222262 876499150 1302793661 217256268 -1558732081
REM
CELL 1.54180   50.00000   50.00000   50.00000   90.00000   90.00000   90.00000
LATT -1
SFAC C  
C      1  0.5193520000000  0.5686060000000  0.4601230000000 1.0
C      1  0.4849520000000  0.5781710000000  0.5324880000000 1.0
C      1  0.5571240000000  0.4749750000000  0.4881610000000 1.0
C      1  0.4500020000000  0.4865230000000  0.5072720000000 1.0
C      1  0.5557740000000  0.4660710000000  0.4324550000000 1.0
C      1  0.4667100000000  0.4356140000000  0.5579840000000 1.0
C      1  0.4620630000000  0.5255780000000  0.4738620000000 1.0
C      1  0.5331480000000  0.5240710000000  0.5274580000000 1.0
C      1  0.5234880000000  0.4623000000000  0.5210990000000 1.0
C      1  0.4725530000000  0.4701950000000  0.4840550000000 1.0
C      1  0.5596280000000  0.5194860000000  0.5510700000000 1.0
C      1  0.4344520000000  0.5234020000000  0.4507690000000 1.0
C      1  0.4388580000000  0.5481980000000  0.4817370000000 1.0
C      1  0.5603440000000  0.5399330000000  0.5167850000000 1.0
C      1  0.4493770000000  0.5747050000000  0.4982170000000 1.0
C      1  0.5543500000000  0.5642230000000  0.4952210000000 1.0
C      1  0.5664600000000  0.4387010000000  0.5280280000000 1.0
C      1  0.4280770000000  0.4560700000000  0.4596290000000 1.0
C      1  0.5489530000000  0.4714880000000  0.4568260000000 1.0
C      1  0.4707520000000  0.4558500000000  0.5415330000000 1.0
C      1  0.4399980000000  0.4720740000000  0.4780690000000 1.0
C      1  0.5537290000000  0.4608800000000  0.5174240000000 1.0
C      1  0.4894700000000  0.4429850000000  0.4797810000000 1.0
C      1  0.5098710000000  0.4475410000000  0.5416400000000 1.0
C      1  0.4937140000000  0.5495950000000  0.4704470000000 1.0
C      1  0.5062720000000  0.5533800000000  0.5250470000000 1.0
C      1  0.5020890000000  0.4971090000000  0.4686420000000 1.0
C      1  0.4908510000000  0.5022350000000  0.5350670000000 1.0
C      1  0.4626960000000  0.4155190000000  0.5743210000000 1.0
C      1  0.5626810000000  0.4605850000000  0.4077770000000 1.0
C      1  0.5261620000000  0.4808780000000  0.4795660000000 1.0
C      1  0.4754330000000  0.4792860000000  0.5224800000000 1.0
C      1  0.5760940000000  0.5133250000000  0.5255720000000 1.0
C      1  0.4197100000000  0.5225070000000  0.4780450000000 1.0
C      1  0.5073810000000  0.4932350000000  0.5568410000000 1.0
C      1  0.4800100000000  0.4872400000000  0.4481050000000 1.0
C      1  0.4959810000000  0.4258520000000  0.5287830000000 1.0
C      1  0.4918560000000  0.4263870000000  0.5012440000000 1.0
C      1  0.4238470000000  0.4985810000000  0.4919910000000 1.0
C      1  0.5722830000000  0.4889160000000  0.5133890000000 1.0
C      1  0.5159490000000  0.5829180000000  0.5400860000000 1.0
C      1  0.4896710000000  0.5782480000000  0.4517040000000 1.0
C      1  0.5321030000000  0.5056130000000  0.5546530000000 1.0
C      1  0.4588410000000  0.5041130000000  0.4489210000000 1.0
C      1  0.5380780000000  0.5638820000000  0.5242580000000 1.0
C      1  0.4646090000000  0.5660990000000  0.4698900000000 1.0
C      1  0.5185040000000  0.4529660000000  0.4386660000000 1.0
C      1  0.4952380000000  0.4563780000000  0.5883930000000 1.0
C      1  0.4928560000000  0.5221910000000  0.4851680000000 1.0
C      1  0.5025380000000  0.5241620000000  0.5148510000000 1.0
C      1  0.5441610000000  0.5702370000000  0.4715340000000 1.0
C      1  0.4607060000000  0.5828220000000  0.5207230000000 1.0
C      1  0.5041840000000  0.4647600000000  0.5642180000000 1.0
C      1  0.4995270000000  0.4626030000000  0.4561370000000 1.0
C      1  0.5017870000000  0.4742480000000  0.5012900000000 1.0
END
