TITL C-2782231-7322-528 0.132609206287249 125000 -983.160202340614 0 0 168 (C1) n - 1
REM
REM in /home/nfs/bkarasulu/CARBON/AIRSS/Generating-Clusters/REBO/Higher-Symm/SD-CG/HFTN-CG
REM
REM
REM
REM
REM
REM ./C.cell (12c818d87b63d06a65506943cc24bca4)
REM
REM compiler GCC version 9.2.1 20190827 (Red Hat 9.2.1-1)
REM options -cpp -mtune=generic -march=x86-64 -g -O0 -fpre-include=/usr/include/finclude/math-vector-fortran.h
REM seed -2045823689 325354257 -1506253485 -1911754181 -1698247831 893751150 1839590339 99979473 1694355728 1615074236 809118100 1284596185 -299319605 -1160979308 -998574509 1244327305 640771541 994635527 612572755 1380530615 735987699 1430461567 -175074005 -1244238733 -1041275497 -1621365608 -2057263700 283856278 347762886 1699507484 -1028325071 1998133202 455876382
REM
CELL 1.54180   50.00000   50.00000   50.00000   90.00000   90.00000   90.00000
LATT -1
SFAC C  
C      1  0.4514280000000  0.4407470000000  0.5795140000000 1.0
C      1  0.5405410000000  0.4499550000000  0.5382090000000 1.0
C      1  0.4884100000000  0.5819060000000  0.4919420000000 1.0
C      1  0.5319370000000  0.4997400000000  0.3955440000000 1.0
C      1  0.4449000000000  0.4704420000000  0.4781030000000 1.0
C      1  0.5759230000000  0.4624500000000  0.5008500000000 1.0
C      1  0.4804530000000  0.5181140000000  0.5088980000000 1.0
C      1  0.5234400000000  0.5430790000000  0.5526530000000 1.0
C      1  0.4677990000000  0.5582710000000  0.4675710000000 1.0
C      1  0.4285850000000  0.4991190000000  0.5805660000000 1.0
C      1  0.5668460000000  0.5396000000000  0.4923910000000 1.0
C      1  0.5525590000000  0.4841980000000  0.4947230000000 1.0
C      1  0.4048200000000  0.5072340000000  0.5300920000000 1.0
C      1  0.4437160000000  0.4720150000000  0.4281550000000 1.0
C      1  0.4746030000000  0.5824700000000  0.5692490000000 1.0
C      1  0.4717630000000  0.4083260000000  0.5342040000000 1.0
C      1  0.6113840000000  0.5209250000000  0.5105340000000 1.0
C      1  0.4339600000000  0.5430220000000  0.4191360000000 1.0
C      1  0.6233950000000  0.4707910000000  0.5222920000000 1.0
C      1  0.4240990000000  0.4465900000000  0.5690640000000 1.0
C      1  0.4994320000000  0.3936830000000  0.5285600000000 1.0
C      1  0.5156340000000  0.5244500000000  0.3962840000000 1.0
C      1  0.4757180000000  0.4758950000000  0.5028210000000 1.0
C      1  0.4519120000000  0.4405240000000  0.4288960000000 1.0
C      1  0.4035320000000  0.5200710000000  0.4751780000000 1.0
C      1  0.5016480000000  0.5171610000000  0.4495660000000 1.0
C      1  0.4248960000000  0.4772810000000  0.5572020000000 1.0
C      1  0.5813260000000  0.5754670000000  0.5007030000000 1.0
C      1  0.5098340000000  0.5364510000000  0.5049520000000 1.0
C      1  0.5086330000000  0.4482720000000  0.5400830000000 1.0
C      1  0.4002190000000  0.5577370000000  0.4851310000000 1.0
C      1  0.4106180000000  0.4973910000000  0.4202610000000 1.0
C      1  0.4776350000000  0.4010290000000  0.4842810000000 1.0
C      1  0.5324390000000  0.4074640000000  0.4737880000000 1.0
C      1  0.5225290000000  0.5440070000000  0.4476340000000 1.0
C      1  0.4180460000000  0.5182620000000  0.5571540000000 1.0
C      1  0.5936320000000  0.4807100000000  0.4790620000000 1.0
C      1  0.4706570000000  0.5552690000000  0.5803270000000 1.0
C      1  0.4544510000000  0.5802340000000  0.4869960000000 1.0
C      1  0.4207650000000  0.5797570000000  0.4873480000000 1.0
C      1  0.6023140000000  0.5060870000000  0.4864330000000 1.0
C      1  0.4851660000000  0.6092680000000  0.5130000000000 1.0
C      1  0.5028150000000  0.4822180000000  0.5397470000000 1.0
C      1  0.4813670000000  0.4756590000000  0.5999590000000 1.0
C      1  0.5248440000000  0.4623550000000  0.5834950000000 1.0
C      1  0.5543880000000  0.4926480000000  0.4642210000000 1.0
C      1  0.4887930000000  0.4311420000000  0.5205780000000 1.0
C      1  0.4862460000000  0.4117530000000  0.4559110000000 1.0
C      1  0.4913420000000  0.4909600000000  0.4187470000000 1.0
C      1  0.5545860000000  0.4999540000000  0.5838920000000 1.0
C      1  0.5291640000000  0.5030850000000  0.4352380000000 1.0
C      1  0.5045290000000  0.5067910000000  0.4794200000000 1.0
C      1  0.4959250000000  0.4662620000000  0.4402680000000 1.0
C      1  0.5129730000000  0.4988350000000  0.5118190000000 1.0
C      1  0.5673350000000  0.5795310000000  0.5287190000000 1.0
C      1  0.4489130000000  0.4355130000000  0.5149660000000 1.0
C      1  0.4844160000000  0.5172310000000  0.3976540000000 1.0
C      1  0.5080310000000  0.5878750000000  0.5694370000000 1.0
C      1  0.5494710000000  0.5276360000000  0.5371070000000 1.0
C      1  0.4552990000000  0.4993030000000  0.4939800000000 1.0
C      1  0.4612200000000  0.5518810000000  0.4370250000000 1.0
C      1  0.4613720000000  0.5387390000000  0.6073450000000 1.0
C      1  0.4979020000000  0.4706180000000  0.5713260000000 1.0
C      1  0.4247080000000  0.4640720000000  0.5018410000000 1.0
C      1  0.4568080000000  0.4153730000000  0.4979310000000 1.0
C      1  0.5626670000000  0.4435630000000  0.4345340000000 1.0
C      1  0.4078070000000  0.4764780000000  0.5280140000000 1.0
C      1  0.4606620000000  0.4998150000000  0.4245690000000 1.0
C      1  0.5924730000000  0.4673190000000  0.5607520000000 1.0
C      1  0.4265960000000  0.4797550000000  0.4523940000000 1.0
C      1  0.6023420000000  0.4492860000000  0.5140650000000 1.0
C      1  0.4633850000000  0.4610520000000  0.5276480000000 1.0
C      1  0.5380950000000  0.5219550000000  0.5749260000000 1.0
C      1  0.5657870000000  0.5758440000000  0.4744690000000 1.0
C      1  0.4304590000000  0.5667850000000  0.5407190000000 1.0
C      1  0.5181040000000  0.4111990000000  0.4508310000000 1.0
C      1  0.5891240000000  0.4257520000000  0.4931540000000 1.0
C      1  0.5369940000000  0.4829280000000  0.6005220000000 1.0
C      1  0.4504540000000  0.5426230000000  0.4998470000000 1.0
C      1  0.4078670000000  0.5521010000000  0.4319550000000 1.0
C      1  0.4005190000000  0.5304570000000  0.5055980000000 1.0
C      1  0.4120180000000  0.4203370000000  0.5508870000000 1.0
C      1  0.4611180000000  0.5873210000000  0.5198130000000 1.0
C      1  0.4977550000000  0.3878560000000  0.5004250000000 1.0
C      1  0.4859660000000  0.4521480000000  0.4114320000000 1.0
C      1  0.4518500000000  0.4853630000000  0.5441480000000 1.0
C      1  0.5599630000000  0.4963710000000  0.4112600000000 1.0
C      1  0.4546440000000  0.4882850000000  0.5996980000000 1.0
C      1  0.5016730000000  0.6128500000000  0.4290840000000 1.0
C      1  0.5483440000000  0.4746110000000  0.4354200000000 1.0
C      1  0.4929650000000  0.5403340000000  0.5988290000000 1.0
C      1  0.4303580000000  0.5065900000000  0.4713320000000 1.0
C      1  0.5973290000000  0.5469650000000  0.5070690000000 1.0
C      1  0.4440140000000  0.5175430000000  0.6047230000000 1.0
C      1  0.4286400000000  0.5639100000000  0.5125400000000 1.0
C      1  0.4506720000000  0.5874380000000  0.5485260000000 1.0
C      1  0.5078630000000  0.5183420000000  0.5847700000000 1.0
C      1  0.4772830000000  0.5576640000000  0.5137390000000 1.0
C      1  0.4950540000000  0.5112640000000  0.5566230000000 1.0
C      1  0.5683690000000  0.4836650000000  0.5636490000000 1.0
C      1  0.5795370000000  0.4630060000000  0.4574700000000 1.0
C      1  0.4643900000000  0.4206300000000  0.4360830000000 1.0
C      1  0.5435400000000  0.5012400000000  0.5216980000000 1.0
C      1  0.5775920000000  0.4991470000000  0.4399990000000 1.0
C      1  0.5389040000000  0.5190230000000  0.4630680000000 1.0
C      1  0.5256390000000  0.4643300000000  0.4905570000000 1.0
C      1  0.5303120000000  0.5721340000000  0.5623450000000 1.0
C      1  0.4638990000000  0.4672420000000  0.4017690000000 1.0
C      1  0.5340570000000  0.4379710000000  0.5691050000000 1.0
C      1  0.4837750000000  0.4447390000000  0.4973790000000 1.0
C      1  0.3971030000000  0.4804810000000  0.4408060000000 1.0
C      1  0.5474080000000  0.4456330000000  0.5087770000000 1.0
C      1  0.5161780000000  0.4473350000000  0.4056600000000 1.0
C      1  0.4957650000000  0.4389230000000  0.4690550000000 1.0
C      1  0.5052790000000  0.4164570000000  0.5533520000000 1.0
C      1  0.5477630000000  0.5272620000000  0.4197020000000 1.0
C      1  0.3976450000000  0.4506090000000  0.5467520000000 1.0
C      1  0.4696680000000  0.4977970000000  0.5643490000000 1.0
C      1  0.4641490000000  0.5366460000000  0.5568390000000 1.0
C      1  0.4334820000000  0.5418250000000  0.5541090000000 1.0
C      1  0.3976080000000  0.5446780000000  0.4568820000000 1.0
C      1  0.6232620000000  0.5032540000000  0.5291840000000 1.0
C      1  0.4511300000000  0.5293660000000  0.4684620000000 1.0
C      1  0.5619540000000  0.5696870000000  0.4428880000000 1.0
C      1  0.4724130000000  0.4214210000000  0.5626430000000 1.0
C      1  0.4918960000000  0.5408600000000  0.5397250000000 1.0
C      1  0.4653270000000  0.5382100000000  0.4064580000000 1.0
C      1  0.5153460000000  0.4774460000000  0.4020910000000 1.0
C      1  0.5133810000000  0.5902330000000  0.4731010000000 1.0
C      1  0.5732940000000  0.5237750000000  0.5561980000000 1.0
C      1  0.4735410000000  0.4546790000000  0.5577340000000 1.0
C      1  0.5176110000000  0.5948300000000  0.4426300000000 1.0
C      1  0.5484780000000  0.4534960000000  0.4697880000000 1.0
C      1  0.5546730000000  0.5843980000000  0.5536770000000 1.0
C      1  0.4910170000000  0.5984580000000  0.5438410000000 1.0
C      1  0.5746220000000  0.4318160000000  0.4652380000000 1.0
C      1  0.4732870000000  0.4646040000000  0.4647010000000 1.0
C      1  0.5315940000000  0.4325070000000  0.4280220000000 1.0
C      1  0.5051370000000  0.4280460000000  0.5843780000000 1.0
C      1  0.5508650000000  0.4785780000000  0.5416890000000 1.0
C      1  0.5538470000000  0.5525840000000  0.5184900000000 1.0
C      1  0.5165500000000  0.5878330000000  0.5239680000000 1.0
C      1  0.5886900000000  0.5277500000000  0.4733670000000 1.0
C      1  0.4878540000000  0.5371600000000  0.4810810000000 1.0
C      1  0.5083510000000  0.4933350000000  0.6025170000000 1.0
C      1  0.5008380000000  0.4765990000000  0.4812820000000 1.0
C      1  0.4182160000000  0.4380300000000  0.5223710000000 1.0
C      1  0.4729180000000  0.5210720000000  0.4436840000000 1.0
C      1  0.4305440000000  0.5245450000000  0.5181850000000 1.0
C      1  0.5864440000000  0.5255570000000  0.4460460000000 1.0
C      1  0.5216970000000  0.4507710000000  0.4532100000000 1.0
C      1  0.4688850000000  0.4895460000000  0.3858700000000 1.0
C      1  0.5166270000000  0.6082540000000  0.4998820000000 1.0
C      1  0.4572410000000  0.5158780000000  0.5311160000000 1.0
C      1  0.5252130000000  0.5504400000000  0.4146200000000 1.0
C      1  0.5896650000000  0.4433980000000  0.5436850000000 1.0
C      1  0.5356390000000  0.5398770000000  0.4853200000000 1.0
C      1  0.6164800000000  0.4815050000000  0.5521570000000 1.0
C      1  0.4331770000000  0.5116520000000  0.4154780000000 1.0
C      1  0.3727260000000  0.4705180000000  0.4470670000000 1.0
C      1  0.5700710000000  0.5441170000000  0.4332050000000 1.0
C      1  0.4818930000000  0.4427440000000  0.5949160000000 1.0
C      1  0.5432760000000  0.4148420000000  0.4981550000000 1.0
C      1  0.5700200000000  0.4127430000000  0.5113430000000 1.0
C      1  0.5241920000000  0.5612100000000  0.5170900000000 1.0
C      1  0.5329890000000  0.5674510000000  0.4700320000000 1.0
C      1  0.5737690000000  0.4198460000000  0.5391080000000 1.0
C      1  0.5364120000000  0.5773020000000  0.4306090000000 1.0
END
