TITL C-2782225-7408-471 -6.51540892810627e-07 125000 -242.555727817445 0 0 42 (Td) n - 1
REM
REM in /home/nfs/bkarasulu/CARBON/AIRSS/Generating-Clusters/REBO/Higher-Symm/SD-CG/HFTN-CG
REM
REM
REM
REM
REM
REM ./C.cell (12c818d87b63d06a65506943cc24bca4)
REM
REM compiler GCC version 9.2.1 20190827 (Red Hat 9.2.1-1)
REM options -cpp -mtune=generic -march=x86-64 -g -O0 -fpre-include=/usr/include/finclude/math-vector-fortran.h
REM seed 1010348629 -251961803 357862630 2134206035 -2041600598 -1240809995 -1723656243 949363693 510620907 1709155245 -2127838285 1245558715 407331173 -548548522 531454718 -2062206150 1116483997 1399290692 -787052742 1485967851 -1240650021 -1607609377 1232674869 -452043995 701645302 1760337421 -83012118 -257910353 -1477801318 1105200974 -338506525 1062160969 1870267440
REM
CELL 1.54180   50.00000   50.00000   50.00000   90.00000   90.00000   90.00000
LATT -1
SFAC C  
C      1  0.5541660000000  0.4685190000000  0.5070910000000 1.0
C      1  0.5077320000000  0.5533120000000  0.4687330000000 1.0
C      1  0.4693740000000  0.5068780000000  0.5535260000000 1.0
C      1  0.5541660000000  0.5301100000000  0.4919650000000 1.0
C      1  0.4461710000000  0.5301100000000  0.5070910000000 1.0
C      1  0.4461710000000  0.4685190000000  0.4919650000000 1.0
C      1  0.5077320000000  0.4453170000000  0.5303230000000 1.0
C      1  0.4926060000000  0.4453170000000  0.4687330000000 1.0
C      1  0.4926060000000  0.5533120000000  0.5303230000000 1.0
C      1  0.4693740000000  0.4917510000000  0.4455310000000 1.0
C      1  0.5309640000000  0.4917510000000  0.5535260000000 1.0
C      1  0.5309640000000  0.5068780000000  0.4455310000000 1.0
C      1  0.5541660000000  0.5068780000000  0.4687330000000 1.0
C      1  0.5077320000000  0.4685190000000  0.5535260000000 1.0
C      1  0.4693740000000  0.5533120000000  0.5070910000000 1.0
C      1  0.5541660000000  0.4917510000000  0.5303230000000 1.0
C      1  0.4461710000000  0.5068780000000  0.5303230000000 1.0
C      1  0.4461710000000  0.4917510000000  0.4687330000000 1.0
C      1  0.5077320000000  0.5301100000000  0.4455310000000 1.0
C      1  0.4926060000000  0.4685190000000  0.4455310000000 1.0
C      1  0.4926050000000  0.5301100000000  0.5535260000000 1.0
C      1  0.4693740000000  0.4453170000000  0.4919650000000 1.0
C      1  0.5309640000000  0.5533120000000  0.4919650000000 1.0
C      1  0.5309640000000  0.4453170000000  0.5070910000000 1.0
C      1  0.5444390000000  0.4550440000000  0.4785960000000 1.0
C      1  0.4558990000000  0.4550440000000  0.5204600000000 1.0
C      1  0.4558990000000  0.5435850000000  0.4785960000000 1.0
C      1  0.5211010000000  0.4550440000000  0.4552580000000 1.0
C      1  0.4792370000000  0.4550440000000  0.5437980000000 1.0
C      1  0.4792370000000  0.5435850000000  0.4552580000000 1.0
C      1  0.5444390000000  0.4783820000000  0.4552580000000 1.0
C      1  0.4558990000000  0.4783820000000  0.5437980000000 1.0
C      1  0.4558990000000  0.5202470000000  0.4552580000000 1.0
C      1  0.5444390000000  0.5435850000000  0.5204600000000 1.0
C      1  0.5211010000000  0.5435850000000  0.5437980000000 1.0
C      1  0.5444390000000  0.5202470000000  0.5437980000000 1.0
C      1  0.4373170000000  0.4993140000000  0.4995280000000 1.0
C      1  0.5001690000000  0.4364630000000  0.4995280000000 1.0
C      1  0.5001690000000  0.4993140000000  0.4366760000000 1.0
C      1  0.5630210000000  0.4993140000000  0.4995280000000 1.0
C      1  0.5001690000000  0.5621660000000  0.4995280000000 1.0
C      1  0.5001690000000  0.4993140000000  0.5623800000000 1.0
END
