TITL C-2782236-320-361 -1.93537104701953e-07 125000 -19.0187538210904 0 0 4 (D(inf)h) n - 1
REM
REM in /home/nfs/bkarasulu/CARBON/AIRSS/Generating-Clusters/REBO/Higher-Symm/SD-CG/HFTN-CG
REM
REM
REM
REM
REM
REM ./C.cell (12c818d87b63d06a65506943cc24bca4)
REM
REM compiler GCC version 9.2.1 20190827 (Red Hat 9.2.1-1)
REM options -cpp -mtune=generic -march=x86-64 -g -O0 -fpre-include=/usr/include/finclude/math-vector-fortran.h
REM seed -2024016311 -1003244482 -1238962389 -772293953 -1022415607 -184863348 -1262772859 -929299882 -1271245380 -1477648159 -781418515 -1674339382 934140249 1162183646 -439313555 -1873869086 1115224692 -1628496218 -1960860231 443894146 575169347 1901128263 216468814 -114154787 1061350202 -2014211708 1498505779 1309057351 176251819 -2123842462 -381363048 -1126263384 -346307338
REM
CELL 1.54180   50.00000   50.00000   50.00000   90.00000   90.00000   90.00000
LATT -1
SFAC C  
C      1  0.4983270000000  0.5133150000000  0.5011610000000 1.0
C      1  0.4983270000000  0.4604770000000  0.5011610000000 1.0
C      1  0.4983270000000  0.5395230000000  0.5011610000000 1.0
C      1  0.4983270000000  0.4866850000000  0.5011610000000 1.0
END
