TITL C-2782235-7892-551 0.00126785101423315 125000 -564.687173325089 0 0 94 (C1) n - 1
REM
REM in /home/nfs/bkarasulu/CARBON/AIRSS/Generating-Clusters/REBO/Higher-Symm/SD-CG/HFTN-CG
REM
REM
REM
REM
REM
REM ./C.cell (12c818d87b63d06a65506943cc24bca4)
REM
REM compiler GCC version 9.2.1 20190827 (Red Hat 9.2.1-1)
REM options -cpp -mtune=generic -march=x86-64 -g -O0 -fpre-include=/usr/include/finclude/math-vector-fortran.h
REM seed 1097579780 -445105141 -601779013 -1971038843 368537321 822163275 928633500 1469054618 -1386070843 -49117203 1036015097 312039947 -1330104779 -860062880 763847566 2133890307 -602813254 2061719395 1789240544 -827641490 -963597917 1246170665 -244597491 -458429280 -1745144175 -1822003209 393097387 234355172 566749006 555091165 1605973803 1262865629 1602883016
REM
CELL 1.54180   50.00000   50.00000   50.00000   90.00000   90.00000   90.00000
LATT -1
SFAC C  
C      1  0.5700030000000  0.4783180000000  0.5245070000000 1.0
C      1  0.5849440000000  0.5326600000000  0.4630600000000 1.0
C      1  0.5387990000000  0.4636980000000  0.4354030000000 1.0
C      1  0.4978850000000  0.5326360000000  0.4133440000000 1.0
C      1  0.4504100000000  0.4634010000000  0.4283440000000 1.0
C      1  0.4242020000000  0.5324220000000  0.4750540000000 1.0
C      1  0.4226540000000  0.4680590000000  0.5299640000000 1.0
C      1  0.4497050000000  0.5334440000000  0.5782550000000 1.0
C      1  0.4940220000000  0.4665720000000  0.5855780000000 1.0
C      1  0.5527460000000  0.5331110000000  0.5520770000000 1.0
C      1  0.5685920000000  0.5098760000000  0.4461440000000 1.0
C      1  0.5196640000000  0.4898750000000  0.4341070000000 1.0
C      1  0.4736440000000  0.5101850000000  0.4223490000000 1.0
C      1  0.4332790000000  0.4856670000000  0.4460510000000 1.0
C      1  0.4244940000000  0.5064160000000  0.4957690000000 1.0
C      1  0.4323950000000  0.4945950000000  0.5478840000000 1.0
C      1  0.4693560000000  0.5076050000000  0.5835750000000 1.0
C      1  0.5148790000000  0.4993130000000  0.5584300000000 1.0
C      1  0.5725060000000  0.5332010000000  0.5305240000000 1.0
C      1  0.5775580000000  0.4945350000000  0.4952540000000 1.0
C      1  0.4442750000000  0.4546940000000  0.5187090000000 1.0
C      1  0.4591550000000  0.5484900000000  0.5558540000000 1.0
C      1  0.4925280000000  0.4474980000000  0.5658970000000 1.0
C      1  0.5313250000000  0.5500220000000  0.5435400000000 1.0
C      1  0.5489870000000  0.4602310000000  0.5208750000000 1.0
C      1  0.5654540000000  0.5460710000000  0.4804360000000 1.0
C      1  0.5342370000000  0.4459190000000  0.4554520000000 1.0
C      1  0.5043790000000  0.5509780000000  0.4354820000000 1.0
C      1  0.4697740000000  0.4542080000000  0.4487740000000 1.0
C      1  0.4453900000000  0.5497490000000  0.4810910000000 1.0
C      1  0.4714430000000  0.4304150000000  0.5515850000000 1.0
C      1  0.5075200000000  0.5570890000000  0.5575870000000 1.0
C      1  0.5328190000000  0.4416760000000  0.5348590000000 1.0
C      1  0.5670080000000  0.5534040000000  0.5089810000000 1.0
C      1  0.5537360000000  0.4354570000000  0.4762760000000 1.0
C      1  0.5270930000000  0.5603140000000  0.4511450000000 1.0
C      1  0.4947700000000  0.4409440000000  0.4525300000000 1.0
C      1  0.4632250000000  0.5615510000000  0.4625520000000 1.0
C      1  0.4489470000000  0.4464320000000  0.4920150000000 1.0
C      1  0.4495010000000  0.5578800000000  0.5304020000000 1.0
C      1  0.5286330000000  0.3945490000000  0.4907430000000 1.0
C      1  0.5200330000000  0.5983590000000  0.4823740000000 1.0
C      1  0.5042740000000  0.3993250000000  0.4749420000000 1.0
C      1  0.4912130000000  0.5956930000000  0.4839660000000 1.0
C      1  0.4841110000000  0.4099210000000  0.4963020000000 1.0
C      1  0.4866040000000  0.5828080000000  0.5111070000000 1.0
C      1  0.4930180000000  0.3965130000000  0.5229050000000 1.0
C      1  0.5086200000000  0.5947260000000  0.5292440000000 1.0
C      1  0.5221290000000  0.3950720000000  0.5195080000000 1.0
C      1  0.5311500000000  0.5952040000000  0.5098600000000 1.0
C      1  0.5311360000000  0.5876810000000  0.4583990000000 1.0
C      1  0.5008410000000  0.4129900000000  0.4501050000000 1.0
C      1  0.4721420000000  0.5884320000000  0.4646740000000 1.0
C      1  0.4553980000000  0.4187530000000  0.4881640000000 1.0
C      1  0.4579080000000  0.5837000000000  0.5233850000000 1.0
C      1  0.4770290000000  0.4040070000000  0.5446550000000 1.0
C      1  0.5049770000000  0.5855930000000  0.5559400000000 1.0
C      1  0.5376670000000  0.4134500000000  0.5353880000000 1.0
C      1  0.5535670000000  0.5781460000000  0.5146930000000 1.0
C      1  0.5523750000000  0.4082280000000  0.4828670000000 1.0
C      1  0.5091540000000  0.4941130000000  0.5261760000000 1.0
C      1  0.5322650000000  0.5124400000000  0.5155070000000 1.0
C      1  0.5459520000000  0.4943740000000  0.4918630000000 1.0
C      1  0.5244050000000  0.5163320000000  0.4773420000000 1.0
C      1  0.5058560000000  0.4970090000000  0.4604340000000 1.0
C      1  0.4780680000000  0.5121670000000  0.4543940000000 1.0
C      1  0.4720550000000  0.4932310000000  0.4813040000000 1.0
C      1  0.4558540000000  0.5076510000000  0.5034590000000 1.0
C      1  0.4607330000000  0.4919830000000  0.5319160000000 1.0
C      1  0.4847780000000  0.5158010000000  0.5297790000000 1.0
C      1  0.5040590000000  0.5013200000000  0.4116230000000 1.0
C      1  0.4496320000000  0.4936490000000  0.4185280000000 1.0
C      1  0.4200690000000  0.5034320000000  0.4621270000000 1.0
C      1  0.4117040000000  0.4964290000000  0.5207860000000 1.0
C      1  0.4377290000000  0.5042440000000  0.5748960000000 1.0
C      1  0.4938610000000  0.4939690000000  0.5781430000000 1.0
C      1  0.5412380000000  0.5096040000000  0.5642690000000 1.0
C      1  0.5834380000000  0.5078890000000  0.5244490000000 1.0
C      1  0.5898650000000  0.5024300000000  0.4700940000000 1.0
C      1  0.5536100000000  0.4916350000000  0.4326980000000 1.0
C      1  0.5239080000000  0.5412140000000  0.5174570000000 1.0
C      1  0.5398000000000  0.4628810000000  0.4910260000000 1.0
C      1  0.5384700000000  0.5418400000000  0.4694880000000 1.0
C      1  0.5104260000000  0.4517200000000  0.4792940000000 1.0
C      1  0.4810810000000  0.5431970000000  0.4517770000000 1.0
C      1  0.4606020000000  0.4652170000000  0.4742540000000 1.0
C      1  0.4604670000000  0.5393360000000  0.5063980000000 1.0
C      1  0.4708420000000  0.4602390000000  0.5349030000000 1.0
C      1  0.4860630000000  0.5394120000000  0.5500160000000 1.0
C      1  0.5025360000000  0.4477110000000  0.5334480000000 1.0
C      1  0.5031940000000  0.4865280000000  0.4932440000000 1.0
C      1  0.4971160000000  0.5195660000000  0.4979010000000 1.0
C      1  0.4960240000000  0.4387710000000  0.5033700000000 1.0
C      1  0.4925030000000  0.5509080000000  0.5082240000000 1.0
END
