TITL C-2782234-8014-498 -0.000226155336113986 125000 -346.729588026563 0 0 59 (C1) n - 1
REM
REM in /home/nfs/bkarasulu/CARBON/AIRSS/Generating-Clusters/REBO/Higher-Symm/SD-CG/HFTN-CG
REM
REM
REM
REM
REM
REM ./C.cell (12c818d87b63d06a65506943cc24bca4)
REM
REM compiler GCC version 9.2.1 20190827 (Red Hat 9.2.1-1)
REM options -cpp -mtune=generic -march=x86-64 -g -O0 -fpre-include=/usr/include/finclude/math-vector-fortran.h
REM seed 112386353 -1961866901 1927551390 -976296029 1363256191 1713147451 101482470 -1109640242 -1949692760 1562559259 -1922157469 -544976104 -2125391146 1431224282 1538792176 -566593017 1030366009 1808890905 -1072040358 1724507722 -1930930000 -1587229949 694810323 -947744654 -1499583931 1125379756 226806178 953220417 202941617 -2061361350 12640487 -811168990 1463744281
REM
CELL 1.54180   50.00000   50.00000   50.00000   90.00000   90.00000   90.00000
LATT -1
SFAC C  
C      1  0.5123480000000  0.5379860000000  0.5541400000000 1.0
C      1  0.5129890000000  0.4345520000000  0.5049390000000 1.0
C      1  0.5124760000000  0.5291420000000  0.4400810000000 1.0
C      1  0.4838180000000  0.5375370000000  0.5540630000000 1.0
C      1  0.4846380000000  0.4351400000000  0.5045860000000 1.0
C      1  0.4839890000000  0.5292270000000  0.4404860000000 1.0
C      1  0.4686210000000  0.4498030000000  0.5281900000000 1.0
C      1  0.4682750000000  0.5009840000000  0.4416260000000 1.0
C      1  0.4674600000000  0.5505570000000  0.5293720000000 1.0
C      1  0.5286900000000  0.4493800000000  0.5291670000000 1.0
C      1  0.5281020000000  0.5003800000000  0.4403400000000 1.0
C      1  0.5283840000000  0.5521040000000  0.5291790000000 1.0
C      1  0.5252020000000  0.5597890000000  0.4961760000000 1.0
C      1  0.5246320000000  0.4742750000000  0.5519380000000 1.0
C      1  0.5255040000000  0.4683770000000  0.4520030000000 1.0
C      1  0.4719470000000  0.5579350000000  0.4963970000000 1.0
C      1  0.4724230000000  0.4748130000000  0.5509570000000 1.0
C      1  0.4736880000000  0.4689710000000  0.4520190000000 1.0
C      1  0.5255700000000  0.4776300000000  0.4856380000000 1.0
C      1  0.5287770000000  0.5174690000000  0.4901390000000 1.0
C      1  0.5291970000000  0.5002060000000  0.5184390000000 1.0
C      1  0.4745620000000  0.4771330000000  0.4855990000000 1.0
C      1  0.4733140000000  0.5246690000000  0.4867310000000 1.0
C      1  0.4743810000000  0.4998840000000  0.5271840000000 1.0
C      1  0.5122180000000  0.5276270000000  0.5156800000000 1.0
C      1  0.5141270000000  0.4735330000000  0.5134390000000 1.0
C      1  0.5129560000000  0.5019580000000  0.4691910000000 1.0
C      1  0.4831490000000  0.5250960000000  0.5160570000000 1.0
C      1  0.4844140000000  0.4742540000000  0.5129020000000 1.0
C      1  0.4834820000000  0.5028950000000  0.4705800000000 1.0
C      1  0.5591930000000  0.5013800000000  0.4504380000000 1.0
C      1  0.5593740000000  0.5413530000000  0.5260200000000 1.0
C      1  0.5597250000000  0.4565000000000  0.5228070000000 1.0
C      1  0.4373150000000  0.5016610000000  0.4508330000000 1.0
C      1  0.4367170000000  0.5414250000000  0.5250680000000 1.0
C      1  0.4376920000000  0.4575720000000  0.5224630000000 1.0
C      1  0.4318820000000  0.4848550000000  0.5234340000000 1.0
C      1  0.4317940000000  0.4870140000000  0.4739770000000 1.0
C      1  0.4314600000000  0.5287840000000  0.5007390000000 1.0
C      1  0.5653970000000  0.4837800000000  0.5226730000000 1.0
C      1  0.5653330000000  0.4873100000000  0.4736610000000 1.0
C      1  0.5653870000000  0.5280240000000  0.5021180000000 1.0
C      1  0.4737570000000  0.5121340000000  0.5648980000000 1.0
C      1  0.4745980000000  0.4382780000000  0.4773430000000 1.0
C      1  0.4739080000000  0.5511460000000  0.4571770000000 1.0
C      1  0.5226290000000  0.5116840000000  0.5611750000000 1.0
C      1  0.5235360000000  0.4385620000000  0.4781580000000 1.0
C      1  0.5226120000000  0.5482800000000  0.4594730000000 1.0
C      1  0.5479160000000  0.4980750000000  0.5451340000000 1.0
C      1  0.5506250000000  0.4585000000000  0.4731610000000 1.0
C      1  0.5481430000000  0.5414360000000  0.4790190000000 1.0
C      1  0.4475960000000  0.4982240000000  0.5481130000000 1.0
C      1  0.4483770000000  0.4595630000000  0.4731920000000 1.0
C      1  0.4472000000000  0.5441330000000  0.4770820000000 1.0
C      1  0.4983690000000  0.4885640000000  0.5653860000000 1.0
C      1  0.4983090000000  0.5634150000000  0.4775650000000 1.0
C      1  0.4993740000000  0.4482080000000  0.4561760000000 1.0
C      1  0.4285070000000  0.5002080000000  0.4993450000000 1.0
C      1  0.5693490000000  0.4996640000000  0.4992650000000 1.0
END
