TITL C-2782238-9940-595 -0.00611171031051388 125000 -857.581356326335 0 0 150 (C1) n - 1
REM
REM in /home/nfs/bkarasulu/CARBON/AIRSS/Generating-Clusters/REBO/Higher-Symm/SD-CG/HFTN-CG
REM
REM
REM
REM
REM
REM ./C.cell (12c818d87b63d06a65506943cc24bca4)
REM
REM compiler GCC version 9.2.1 20190827 (Red Hat 9.2.1-1)
REM options -cpp -mtune=generic -march=x86-64 -g -O0 -fpre-include=/usr/include/finclude/math-vector-fortran.h
REM seed -1526683496 2051796898 -1780711232 -1953248281 1549722063 1757655977 1649354461 -1841160255 -1579605530 1693247755 208759795 -973981831 -1603337788 1538204056 -1169347582 1738769030 -1320453664 1214254524 1768997089 2043807753 581301773 88809454 -175218474 -236163132 -2069409121 398545652 -1683316651 90684649 -1234383670 1735037924 -809484631 -487417765 836323953
REM
CELL 1.54180   50.00000   50.00000   50.00000   90.00000   90.00000   90.00000
LATT -1
SFAC C  
C      1  0.4832030000000  0.4962370000000  0.5181360000000 1.0
C      1  0.4895130000000  0.4832870000000  0.4867090000000 1.0
C      1  0.5014580000000  0.5323920000000  0.4910970000000 1.0
C      1  0.5142930000000  0.5917980000000  0.4575020000000 1.0
C      1  0.5095440000000  0.4962760000000  0.6094310000000 1.0
C      1  0.5053020000000  0.4096200000000  0.4408410000000 1.0
C      1  0.5934060000000  0.4564750000000  0.5180840000000 1.0
C      1  0.5895620000000  0.5088760000000  0.4554960000000 1.0
C      1  0.5915740000000  0.5398340000000  0.5322560000000 1.0
C      1  0.4103320000000  0.4879960000000  0.5442060000000 1.0
C      1  0.4104770000000  0.4754840000000  0.4598310000000 1.0
C      1  0.4104530000000  0.5286710000000  0.4949100000000 1.0
C      1  0.4189660000000  0.4415030000000  0.5022270000000 1.0
C      1  0.4326790000000  0.5305090000000  0.4500910000000 1.0
C      1  0.4277940000000  0.5231790000000  0.5462400000000 1.0
C      1  0.4460060000000  0.4346590000000  0.5552270000000 1.0
C      1  0.4397190000000  0.4902850000000  0.4184730000000 1.0
C      1  0.4402360000000  0.5719890000000  0.5329590000000 1.0
C      1  0.5714560000000  0.5602840000000  0.5430090000000 1.0
C      1  0.5760280000000  0.4278750000000  0.5241870000000 1.0
C      1  0.5705550000000  0.5052300000000  0.4301570000000 1.0
C      1  0.5009940000000  0.5360710000000  0.5948070000000 1.0
C      1  0.4972170000000  0.4059460000000  0.4828140000000 1.0
C      1  0.5024160000000  0.5607090000000  0.4256600000000 1.0
C      1  0.5879390000000  0.5119370000000  0.5516610000000 1.0
C      1  0.5828800000000  0.4465810000000  0.4867770000000 1.0
C      1  0.5687220000000  0.5373380000000  0.4634760000000 1.0
C      1  0.4403610000000  0.4620670000000  0.4827270000000 1.0
C      1  0.4477280000000  0.5273150000000  0.4806230000000 1.0
C      1  0.4466510000000  0.5007420000000  0.5333410000000 1.0
C      1  0.5760650000000  0.4789800000000  0.4650690000000 1.0
C      1  0.5788830000000  0.5452050000000  0.5011580000000 1.0
C      1  0.5784710000000  0.4764560000000  0.5411890000000 1.0
C      1  0.4671160000000  0.5924240000000  0.5322420000000 1.0
C      1  0.4708400000000  0.4211620000000  0.5535890000000 1.0
C      1  0.4690780000000  0.4942390000000  0.4054890000000 1.0
C      1  0.4937090000000  0.4415710000000  0.5568410000000 1.0
C      1  0.4929790000000  0.4831830000000  0.4220010000000 1.0
C      1  0.4965330000000  0.5854390000000  0.5227680000000 1.0
C      1  0.5163510000000  0.5266510000000  0.5460380000000 1.0
C      1  0.5167880000000  0.4477610000000  0.5016050000000 1.0
C      1  0.5189050000000  0.5199210000000  0.4502130000000 1.0
C      1  0.5025010000000  0.4833130000000  0.4548740000000 1.0
C      1  0.5009180000000  0.5537350000000  0.5108570000000 1.0
C      1  0.4917500000000  0.4683160000000  0.5367710000000 1.0
C      1  0.5688670000000  0.5163740000000  0.4878730000000 1.0
C      1  0.5623760000000  0.5014850000000  0.5242150000000 1.0
C      1  0.5641060000000  0.4729790000000  0.4964940000000 1.0
C      1  0.5288840000000  0.5189860000000  0.5936310000000 1.0
C      1  0.5252450000000  0.4140690000000  0.4663020000000 1.0
C      1  0.5324060000000  0.5694650000000  0.4392130000000 1.0
C      1  0.4034400000000  0.5159370000000  0.5258100000000 1.0
C      1  0.4075670000000  0.4626590000000  0.5264230000000 1.0
C      1  0.4121730000000  0.5065640000000  0.4746090000000 1.0
C      1  0.5132770000000  0.4676520000000  0.5973050000000 1.0
C      1  0.5105650000000  0.4347950000000  0.4238250000000 1.0
C      1  0.5069240000000  0.5913530000000  0.4907930000000 1.0
C      1  0.5576200000000  0.5293340000000  0.4160210000000 1.0
C      1  0.5565320000000  0.5504840000000  0.5643590000000 1.0
C      1  0.5568450000000  0.4181000000000  0.5069660000000 1.0
C      1  0.5450150000000  0.4968890000000  0.4842180000000 1.0
C      1  0.5410220000000  0.5212510000000  0.5155870000000 1.0
C      1  0.5434860000000  0.4753020000000  0.5220840000000 1.0
C      1  0.4913050000000  0.5192100000000  0.4392940000000 1.0
C      1  0.4939980000000  0.5432720000000  0.5487330000000 1.0
C      1  0.4921640000000  0.4378490000000  0.5111840000000 1.0
C      1  0.5297700000000  0.5484860000000  0.4120950000000 1.0
C      1  0.5288460000000  0.5514710000000  0.5824780000000 1.0
C      1  0.5267520000000  0.4042780000000  0.4989500000000 1.0
C      1  0.5672360000000  0.4462050000000  0.5461210000000 1.0
C      1  0.5514620000000  0.4850950000000  0.4348520000000 1.0
C      1  0.5561070000000  0.5702630000000  0.5218970000000 1.0
C      1  0.4303190000000  0.4859950000000  0.5664940000000 1.0
C      1  0.4313130000000  0.4501620000000  0.4524820000000 1.0
C      1  0.4285130000000  0.5556630000000  0.4844060000000 1.0
C      1  0.5994830000000  0.5014230000000  0.4876270000000 1.0
C      1  0.5939360000000  0.5097110000000  0.5179890000000 1.0
C      1  0.6054700000000  0.4717570000000  0.4908700000000 1.0
C      1  0.4443620000000  0.5478170000000  0.5544280000000 1.0
C      1  0.4454280000000  0.4235270000000  0.5028470000000 1.0
C      1  0.4453560000000  0.5228220000000  0.4198620000000 1.0
C      1  0.4535970000000  0.5622690000000  0.4621460000000 1.0
C      1  0.4550420000000  0.5058280000000  0.5784040000000 1.0
C      1  0.4468590000000  0.4223480000000  0.4510180000000 1.0
C      1  0.5196030000000  0.4477230000000  0.4604240000000 1.0
C      1  0.5305000000000  0.5580610000000  0.4715870000000 1.0
C      1  0.5212580000000  0.4952750000000  0.5701790000000 1.0
C      1  0.5592230000000  0.4493550000000  0.4623640000000 1.0
C      1  0.5683720000000  0.5681970000000  0.4780450000000 1.0
C      1  0.5604940000000  0.4953370000000  0.5635280000000 1.0
C      1  0.5198180000000  0.5934420000000  0.5413720000000 1.0
C      1  0.5219440000000  0.4306760000000  0.5513990000000 1.0
C      1  0.5176740000000  0.4903660000000  0.4052880000000 1.0
C      1  0.5405620000000  0.5946060000000  0.5214420000000 1.0
C      1  0.5437480000000  0.4456880000000  0.5607680000000 1.0
C      1  0.5390130000000  0.4725390000000  0.4114620000000 1.0
C      1  0.4722240000000  0.5061410000000  0.3821080000000 1.0
C      1  0.4629050000000  0.6173940000000  0.5406980000000 1.0
C      1  0.4752680000000  0.3942630000000  0.5497360000000 1.0
C      1  0.4912970000000  0.4346660000000  0.4685230000000 1.0
C      1  0.5008600000000  0.5546090000000  0.4579490000000 1.0
C      1  0.4945170000000  0.5103330000000  0.5753800000000 1.0
C      1  0.4838570000000  0.4579890000000  0.5837430000000 1.0
C      1  0.4826310000000  0.4523390000000  0.4212370000000 1.0
C      1  0.4727890000000  0.5888720000000  0.4909540000000 1.0
C      1  0.4693940000000  0.3944150000000  0.4899730000000 1.0
C      1  0.4745190000000  0.5625470000000  0.4130750000000 1.0
C      1  0.4756810000000  0.5538080000000  0.5916180000000 1.0
C      1  0.5448920000000  0.5319330000000  0.4447830000000 1.0
C      1  0.5439450000000  0.5245200000000  0.5570830000000 1.0
C      1  0.5432620000000  0.4396120000000  0.4909730000000 1.0
C      1  0.4728860000000  0.4559150000000  0.4805930000000 1.0
C      1  0.4769930000000  0.5395940000000  0.4715490000000 1.0
C      1  0.4755940000000  0.5074260000000  0.5506200000000 1.0
C      1  0.5247210000000  0.4136380000000  0.5302730000000 1.0
C      1  0.5228060000000  0.5171330000000  0.4013190000000 1.0
C      1  0.5186820000000  0.5800320000000  0.5665420000000 1.0
C      1  0.4511960000000  0.4601980000000  0.5739570000000 1.0
C      1  0.4514450000000  0.4631220000000  0.4299630000000 1.0
C      1  0.4422490000000  0.5785820000000  0.5007200000000 1.0
C      1  0.4366390000000  0.4749900000000  0.5140910000000 1.0
C      1  0.4430110000000  0.4939790000000  0.4731230000000 1.0
C      1  0.4602400000000  0.5201200000000  0.5096150000000 1.0
C      1  0.4469510000000  0.5552000000000  0.4312950000000 1.0
C      1  0.4531400000000  0.5384810000000  0.5821830000000 1.0
C      1  0.4458270000000  0.4063480000000  0.4747990000000 1.0
C      1  0.4761450000000  0.5315120000000  0.4181110000000 1.0
C      1  0.4931620000000  0.5646610000000  0.5684400000000 1.0
C      1  0.4746320000000  0.4133780000000  0.5147230000000 1.0
C      1  0.5137860000000  0.5083880000000  0.5204880000000 1.0
C      1  0.5161340000000  0.4785520000000  0.5044750000000 1.0
C      1  0.5190270000000  0.5142820000000  0.4789840000000 1.0
C      1  0.4607320000000  0.4504580000000  0.5177450000000 1.0
C      1  0.4702470000000  0.5052660000000  0.4562300000000 1.0
C      1  0.4681080000000  0.5426040000000  0.5332060000000 1.0
C      1  0.5411730000000  0.4705990000000  0.5777650000000 1.0
C      1  0.5403810000000  0.4469920000000  0.4339170000000 1.0
C      1  0.5406640000000  0.5853810000000  0.4884980000000 1.0
C      1  0.5207530000000  0.4769850000000  0.5441320000000 1.0
C      1  0.5332350000000  0.4793370000000  0.4593180000000 1.0
C      1  0.5442320000000  0.5475700000000  0.5009880000000 1.0
C      1  0.4606160000000  0.4708290000000  0.5450930000000 1.0
C      1  0.4703990000000  0.4728910000000  0.4532440000000 1.0
C      1  0.4690680000000  0.5609020000000  0.5078410000000 1.0
C      1  0.4201770000000  0.5463190000000  0.5227030000000 1.0
C      1  0.4264270000000  0.4365280000000  0.5353950000000 1.0
C      1  0.4194600000000  0.5014990000000  0.4412490000000 1.0
C      1  0.4794060000000  0.4887990000000  0.5951290000000 1.0
C      1  0.4756480000000  0.4263170000000  0.4410560000000 1.0
C      1  0.4817330000000  0.5818370000000  0.4613700000000 1.0
END
