TITL C-2782233-7966-175 0.00603319876905831 125000 -948.81794482843 0 0 165 (C1) n - 1
REM
REM in /home/nfs/bkarasulu/CARBON/AIRSS/Generating-Clusters/REBO/Higher-Symm/SD-CG/HFTN-CG
REM
REM
REM
REM
REM
REM ./C.cell (12c818d87b63d06a65506943cc24bca4)
REM
REM compiler GCC version 9.2.1 20190827 (Red Hat 9.2.1-1)
REM options -cpp -mtune=generic -march=x86-64 -g -O0 -fpre-include=/usr/include/finclude/math-vector-fortran.h
REM seed 1193759862 1857531697 -2012292842 -546056199 -1940766479 988755891 -1452281541 1553979100 1351293917 -1028177014 1026601225 1795964350 633428974 2046630909 -1077400208 -1662709344 -1394830981 1059535051 -442943947 1597782288 -1720730561 -1811895163 -1748443030 930585133 -312163798 -733795208 -1325236423 -1046986706 1122696233 1104268018 1792309893 987400122 750769026
REM
CELL 1.54180   50.00000   50.00000   50.00000   90.00000   90.00000   90.00000
LATT -1
SFAC C  
C      1  0.5414420000000  0.5908310000000  0.4679520000000 1.0
C      1  0.4488310000000  0.4037950000000  0.4559020000000 1.0
C      1  0.5480650000000  0.5898230000000  0.5471300000000 1.0
C      1  0.4439700000000  0.4017210000000  0.5359690000000 1.0
C      1  0.5440630000000  0.5549680000000  0.4852760000000 1.0
C      1  0.4543150000000  0.4401550000000  0.4895790000000 1.0
C      1  0.5457850000000  0.5587480000000  0.5165390000000 1.0
C      1  0.4560460000000  0.4443930000000  0.5230860000000 1.0
C      1  0.4760360000000  0.4499460000000  0.4437590000000 1.0
C      1  0.5194480000000  0.5479030000000  0.4467210000000 1.0
C      1  0.4777950000000  0.4503190000000  0.5631000000000 1.0
C      1  0.5267610000000  0.5492480000000  0.5590050000000 1.0
C      1  0.5864330000000  0.4591470000000  0.5375480000000 1.0
C      1  0.4237040000000  0.5402270000000  0.5310290000000 1.0
C      1  0.5809730000000  0.4643140000000  0.4568130000000 1.0
C      1  0.4197960000000  0.5393020000000  0.4568900000000 1.0
C      1  0.5268470000000  0.5431220000000  0.5982820000000 1.0
C      1  0.4615990000000  0.4594080000000  0.5982030000000 1.0
C      1  0.5151640000000  0.5454100000000  0.4072120000000 1.0
C      1  0.4818090000000  0.4561940000000  0.4047750000000 1.0
C      1  0.5311170000000  0.6063290000000  0.4882470000000 1.0
C      1  0.4655140000000  0.3933410000000  0.4804960000000 1.0
C      1  0.5375480000000  0.6097230000000  0.5216620000000 1.0
C      1  0.4656620000000  0.4005680000000  0.5141810000000 1.0
C      1  0.5268140000000  0.4059660000000  0.4838620000000 1.0
C      1  0.4745610000000  0.5901920000000  0.4828070000000 1.0
C      1  0.5235960000000  0.4039480000000  0.5176920000000 1.0
C      1  0.4777500000000  0.5989130000000  0.5151310000000 1.0
C      1  0.4753180000000  0.5580430000000  0.4715730000000 1.0
C      1  0.5065750000000  0.4271010000000  0.4693300000000 1.0
C      1  0.4831180000000  0.5765200000000  0.5356830000000 1.0
C      1  0.5136260000000  0.4234950000000  0.5400180000000 1.0
C      1  0.4511870000000  0.5395860000000  0.4844910000000 1.0
C      1  0.5762500000000  0.4574780000000  0.4888170000000 1.0
C      1  0.4414800000000  0.5508700000000  0.5066200000000 1.0
C      1  0.5739720000000  0.4430920000000  0.5124990000000 1.0
C      1  0.4990580000000  0.4312160000000  0.4121750000000 1.0
C      1  0.4984680000000  0.5669670000000  0.4164130000000 1.0
C      1  0.4635730000000  0.4476650000000  0.6218960000000 1.0
C      1  0.5014070000000  0.5603180000000  0.5875480000000 1.0
C      1  0.4790920000000  0.4838390000000  0.4230750000000 1.0
C      1  0.5187450000000  0.5162100000000  0.4225590000000 1.0
C      1  0.4785760000000  0.4823400000000  0.5870250000000 1.0
C      1  0.5302050000000  0.5149470000000  0.5831530000000 1.0
C      1  0.4426040000000  0.4522060000000  0.5750660000000 1.0
C      1  0.5542610000000  0.5469780000000  0.5781870000000 1.0
C      1  0.4514930000000  0.4550250000000  0.4203620000000 1.0
C      1  0.5449640000000  0.5467360000000  0.4238990000000 1.0
C      1  0.5078440000000  0.4592070000000  0.4392390000000 1.0
C      1  0.4895790000000  0.5358830000000  0.4415800000000 1.0
C      1  0.5077090000000  0.4539790000000  0.5651510000000 1.0
C      1  0.4939740000000  0.5403620000000  0.5621440000000 1.0
C      1  0.4366960000000  0.5283190000000  0.5575000000000 1.0
C      1  0.5721650000000  0.4689640000000  0.5633180000000 1.0
C      1  0.4393260000000  0.5247140000000  0.4401690000000 1.0
C      1  0.5620910000000  0.4749420000000  0.4345690000000 1.0
C      1  0.6032490000000  0.5117010000000  0.4677280000000 1.0
C      1  0.3930720000000  0.4909910000000  0.4630720000000 1.0
C      1  0.6066800000000  0.5102330000000  0.5290760000000 1.0
C      1  0.3979180000000  0.4906240000000  0.5242380000000 1.0
C      1  0.4943570000000  0.5390680000000  0.4924710000000 1.0
C      1  0.5084390000000  0.4560920000000  0.4870190000000 1.0
C      1  0.4865920000000  0.5497430000000  0.5240510000000 1.0
C      1  0.5101140000000  0.4513590000000  0.5201410000000 1.0
C      1  0.5497610000000  0.5119300000000  0.5594680000000 1.0
C      1  0.4596110000000  0.4962720000000  0.5638260000000 1.0
C      1  0.5439320000000  0.5098400000000  0.4389810000000 1.0
C      1  0.4547800000000  0.4880800000000  0.4425600000000 1.0
C      1  0.6230290000000  0.5245110000000  0.4837610000000 1.0
C      1  0.3745910000000  0.4786320000000  0.4810020000000 1.0
C      1  0.6250480000000  0.5226480000000  0.5110580000000 1.0
C      1  0.3773370000000  0.4790900000000  0.5083410000000 1.0
C      1  0.5629140000000  0.4656900000000  0.5899760000000 1.0
C      1  0.4400710000000  0.5297240000000  0.5855590000000 1.0
C      1  0.5567300000000  0.4689710000000  0.4082070000000 1.0
C      1  0.4441450000000  0.5287140000000  0.4126740000000 1.0
C      1  0.4693980000000  0.5218610000000  0.5205340000000 1.0
C      1  0.5374720000000  0.4706800000000  0.5264560000000 1.0
C      1  0.4775970000000  0.5098120000000  0.4831870000000 1.0
C      1  0.5241550000000  0.4825260000000  0.4776690000000 1.0
C      1  0.5937330000000  0.4840410000000  0.5153410000000 1.0
C      1  0.4105520000000  0.5165550000000  0.5102980000000 1.0
C      1  0.5945910000000  0.4849210000000  0.4807290000000 1.0
C      1  0.4049560000000  0.5174750000000  0.4764940000000 1.0
C      1  0.4364700000000  0.5118480000000  0.4803400000000 1.0
C      1  0.5547890000000  0.4823940000000  0.4809260000000 1.0
C      1  0.4439040000000  0.5113760000000  0.5122300000000 1.0
C      1  0.5615390000000  0.4868440000000  0.5116000000000 1.0
C      1  0.5082870000000  0.4933370000000  0.5963020000000 1.0
C      1  0.4959820000000  0.5251220000000  0.5997870000000 1.0
C      1  0.5015470000000  0.4836530000000  0.3988630000000 1.0
C      1  0.4968070000000  0.5174770000000  0.3986590000000 1.0
C      1  0.5050020000000  0.6176760000000  0.5157730000000 1.0
C      1  0.4962980000000  0.3930250000000  0.5057680000000 1.0
C      1  0.5004360000000  0.6100270000000  0.4846590000000 1.0
C      1  0.4988520000000  0.3883180000000  0.4752100000000 1.0
C      1  0.4228200000000  0.4500790000000  0.4821530000000 1.0
C      1  0.5811280000000  0.5402250000000  0.4849580000000 1.0
C      1  0.4251940000000  0.4529740000000  0.5137640000000 1.0
C      1  0.5843190000000  0.5473650000000  0.5127510000000 1.0
C      1  0.4362900000000  0.4307810000000  0.4390240000000 1.0
C      1  0.5560160000000  0.5680190000000  0.4482870000000 1.0
C      1  0.4325390000000  0.4255820000000  0.5564420000000 1.0
C      1  0.5671970000000  0.5687510000000  0.5551980000000 1.0
C      1  0.5491780000000  0.4220920000000  0.5127890000000 1.0
C      1  0.4504360000000  0.5805910000000  0.5132190000000 1.0
C      1  0.5510230000000  0.4268580000000  0.4789160000000 1.0
C      1  0.4431150000000  0.5798850000000  0.4793340000000 1.0
C      1  0.5015220000000  0.4197620000000  0.4396720000000 1.0
C      1  0.4890830000000  0.5754420000000  0.4456980000000 1.0
C      1  0.4928130000000  0.4141350000000  0.5554110000000 1.0
C      1  0.4969070000000  0.5859120000000  0.5571570000000 1.0
C      1  0.4382880000000  0.5631570000000  0.4550220000000 1.0
C      1  0.5558010000000  0.4412180000000  0.4547670000000 1.0
C      1  0.4453220000000  0.5646040000000  0.5433200000000 1.0
C      1  0.5563500000000  0.4392800000000  0.5418470000000 1.0
C      1  0.5513570000000  0.4841170000000  0.5500030000000 1.0
C      1  0.4688290000000  0.5242440000000  0.5516290000000 1.0
C      1  0.5329510000000  0.4809610000000  0.4475180000000 1.0
C      1  0.4667250000000  0.5161360000000  0.4549660000000 1.0
C      1  0.5232800000000  0.5802710000000  0.5174260000000 1.0
C      1  0.4832420000000  0.4301580000000  0.5150910000000 1.0
C      1  0.5157490000000  0.5651650000000  0.4914210000000 1.0
C      1  0.4799700000000  0.4223870000000  0.4840670000000 1.0
C      1  0.5170160000000  0.5152730000000  0.4826920000000 1.0
C      1  0.4848260000000  0.4774130000000  0.4813440000000 1.0
C      1  0.5086570000000  0.5242960000000  0.5273290000000 1.0
C      1  0.4924720000000  0.4772630000000  0.5280290000000 1.0
C      1  0.4144100000000  0.4466580000000  0.4544620000000 1.0
C      1  0.5811410000000  0.5559280000000  0.4596250000000 1.0
C      1  0.4104280000000  0.4429700000000  0.5402000000000 1.0
C      1  0.5882730000000  0.5553830000000  0.5401160000000 1.0
C      1  0.4712620000000  0.5369430000000  0.4063030000000 1.0
C      1  0.5274180000000  0.4623830000000  0.4047200000000 1.0
C      1  0.4685080000000  0.5385550000000  0.5927110000000 1.0
C      1  0.5326320000000  0.4700920000000  0.5911740000000 1.0
C      1  0.5238800000000  0.5793940000000  0.5584810000000 1.0
C      1  0.4654970000000  0.4223070000000  0.5624270000000 1.0
C      1  0.5208180000000  0.5793280000000  0.4483050000000 1.0
C      1  0.4682430000000  0.4191630000000  0.4345300000000 1.0
C      1  0.5696260000000  0.5234870000000  0.4274470000000 1.0
C      1  0.4290630000000  0.4798860000000  0.4267300000000 1.0
C      1  0.5769690000000  0.5227920000000  0.5706640000000 1.0
C      1  0.4315140000000  0.4784920000000  0.5631660000000 1.0
C      1  0.5371890000000  0.4495530000000  0.5641020000000 1.0
C      1  0.4593280000000  0.5596320000000  0.5675050000000 1.0
C      1  0.5365140000000  0.4443690000000  0.4323300000000 1.0
C      1  0.4637920000000  0.5566360000000  0.4334680000000 1.0
C      1  0.4362510000000  0.4810160000000  0.4875620000000 1.0
C      1  0.5648510000000  0.5125740000000  0.4813580000000 1.0
C      1  0.4412680000000  0.4813270000000  0.5204340000000 1.0
C      1  0.5641940000000  0.5196090000000  0.5145420000000 1.0
C      1  0.5961450000000  0.5279670000000  0.5501630000000 1.0
C      1  0.4102710000000  0.4739570000000  0.5444850000000 1.0
C      1  0.5896060000000  0.5284960000000  0.4477720000000 1.0
C      1  0.4070750000000  0.4731210000000  0.4440820000000 1.0
C      1  0.5065980000000  0.5105790000000  0.4527640000000 1.0
C      1  0.4933460000000  0.4850000000000  0.4520460000000 1.0
C      1  0.5098710000000  0.5117690000000  0.5584060000000 1.0
C      1  0.4975370000000  0.4847970000000  0.5588580000000 1.0
C      1  0.4581490000000  0.4654550000000  0.4680060000000 1.0
C      1  0.5412220000000  0.5297760000000  0.4658020000000 1.0
C      1  0.4642560000000  0.4707730000000  0.5417120000000 1.0
C      1  0.5405460000000  0.5318600000000  0.5342600000000 1.0
C      1  0.4932590000000  0.5016610000000  0.5117950000000 1.0
END
