TITL C-2782226-7400-229 -0.00519659141555674 125000 -830.284006863996 0 0 146 (C1) n - 1
REM
REM in /home/nfs/bkarasulu/CARBON/AIRSS/Generating-Clusters/REBO/Higher-Symm/SD-CG/HFTN-CG
REM
REM
REM
REM
REM
REM ./C.cell (12c818d87b63d06a65506943cc24bca4)
REM
REM compiler GCC version 9.2.1 20190827 (Red Hat 9.2.1-1)
REM options -cpp -mtune=generic -march=x86-64 -g -O0 -fpre-include=/usr/include/finclude/math-vector-fortran.h
REM seed 185093040 -2002916143 1682325758 -487059294 -1221094012 1506002538 301634969 800068880 445035580 -818801210 764876130 384473134 -614154002 -1678201347 1045853139 2068155002 1343705126 114830614 -1558653413 -1932487621 1682661662 40194473 -222247489 -1302768816 934226944 -1600035156 790220991 -20462272 518161415 -996724149 -1108433752 2032912044 1556359952
REM
CELL 1.54180   50.00000   50.00000   50.00000   90.00000   90.00000   90.00000
LATT -1
SFAC C  
C      1  0.4559510000000  0.5080800000000  0.4182910000000 1.0
C      1  0.5286820000000  0.5350680000000  0.4179160000000 1.0
C      1  0.5137660000000  0.4580110000000  0.4149140000000 1.0
C      1  0.4750110000000  0.5063420000000  0.5352390000000 1.0
C      1  0.5226990000000  0.5145510000000  0.5371250000000 1.0
C      1  0.5033640000000  0.4640270000000  0.5378210000000 1.0
C      1  0.4264500000000  0.5240140000000  0.4700180000000 1.0
C      1  0.5571960000000  0.5517360000000  0.4699560000000 1.0
C      1  0.5134240000000  0.4275720000000  0.4703960000000 1.0
C      1  0.4373270000000  0.5719550000000  0.4706260000000 1.0
C      1  0.5910320000000  0.5239610000000  0.4699720000000 1.0
C      1  0.4763810000000  0.4119330000000  0.4700410000000 1.0
C      1  0.4532900000000  0.5472490000000  0.4877770000000 1.0
C      1  0.5628020000000  0.5163000000000  0.4870360000000 1.0
C      1  0.4817770000000  0.4368170000000  0.4926350000000 1.0
C      1  0.6074240000000  0.4693990000000  0.5153230000000 1.0
C      1  0.4253330000000  0.4267770000000  0.5127360000000 1.0
C      1  0.4741660000000  0.6095500000000  0.5139670000000 1.0
C      1  0.4899330000000  0.4352340000000  0.4236190000000 1.0
C      1  0.4475260000000  0.5403470000000  0.4252350000000 1.0
C      1  0.5617940000000  0.5288100000000  0.4234300000000 1.0
C      1  0.5548800000000  0.4884550000000  0.5783520000000 1.0
C      1  0.4587820000000  0.4627320000000  0.5791680000000 1.0
C      1  0.4859920000000  0.5551990000000  0.5763110000000 1.0
C      1  0.5083020000000  0.4346390000000  0.5093790000000 1.0
C      1  0.4438050000000  0.5245540000000  0.5092570000000 1.0
C      1  0.5504750000000  0.5357220000000  0.5099610000000 1.0
C      1  0.5786600000000  0.5047830000000  0.5598160000000 1.0
C      1  0.4602500000000  0.4338930000000  0.5609290000000 1.0
C      1  0.4594970000000  0.5664670000000  0.5577820000000 1.0
C      1  0.5128470000000  0.4855430000000  0.4302320000000 1.0
C      1  0.4815380000000  0.4980430000000  0.4348090000000 1.0
C      1  0.5084060000000  0.5186330000000  0.4354880000000 1.0
C      1  0.5056390000000  0.4321860000000  0.5407970000000 1.0
C      1  0.4445880000000  0.5203410000000  0.5409630000000 1.0
C      1  0.5469350000000  0.5379520000000  0.5425740000000 1.0
C      1  0.5097550000000  0.6003860000000  0.4740120000000 1.0
C      1  0.5785900000000  0.4425580000000  0.4691620000000 1.0
C      1  0.4064300000000  0.4594860000000  0.4729330000000 1.0
C      1  0.4806510000000  0.5001790000000  0.6059740000000 1.0
C      1  0.5069960000000  0.5188360000000  0.6060490000000 1.0
C      1  0.5102220000000  0.4868140000000  0.6063010000000 1.0
C      1  0.4474240000000  0.5715990000000  0.4388680000000 1.0
C      1  0.5875280000000  0.5136540000000  0.4401480000000 1.0
C      1  0.4661620000000  0.4177610000000  0.4407910000000 1.0
C      1  0.4403580000000  0.4255840000000  0.4613840000000 1.0
C      1  0.4614340000000  0.5936980000000  0.4607710000000 1.0
C      1  0.5920220000000  0.4856330000000  0.4590520000000 1.0
C      1  0.5721870000000  0.5629470000000  0.4987950000000 1.0
C      1  0.5196590000000  0.4065410000000  0.4971010000000 1.0
C      1  0.4093220000000  0.5315340000000  0.4987330000000 1.0
C      1  0.5215460000000  0.4417000000000  0.5697400000000 1.0
C      1  0.4326730000000  0.5134420000000  0.5723720000000 1.0
C      1  0.5428740000000  0.5538100000000  0.5726700000000 1.0
C      1  0.5919760000000  0.4790690000000  0.5444230000000 1.0
C      1  0.4324100000000  0.4350580000000  0.5453290000000 1.0
C      1  0.4732910000000  0.5921160000000  0.5435580000000 1.0
C      1  0.4688410000000  0.3992010000000  0.4959650000000 1.0
C      1  0.4310870000000  0.5772850000000  0.5017810000000 1.0
C      1  0.6002410000000  0.5213040000000  0.4995010000000 1.0
C      1  0.5494570000000  0.4654320000000  0.4841440000000 1.0
C      1  0.4436830000000  0.4744630000000  0.4787820000000 1.0
C      1  0.5059280000000  0.5590770000000  0.4811960000000 1.0
C      1  0.4264650000000  0.4945790000000  0.4292550000000 1.0
C      1  0.5294210000000  0.5667950000000  0.4305210000000 1.0
C      1  0.5400410000000  0.4421900000000  0.4301650000000 1.0
C      1  0.4822020000000  0.6086510000000  0.4807030000000 1.0
C      1  0.6013920000000  0.4626290000000  0.4823360000000 1.0
C      1  0.4177140000000  0.4326860000000  0.4800220000000 1.0
C      1  0.5303920000000  0.4677860000000  0.5903200000000 1.0
C      1  0.4523440000000  0.4935460000000  0.5924930000000 1.0
C      1  0.5151790000000  0.5458470000000  0.5916030000000 1.0
C      1  0.4603370000000  0.5193920000000  0.4733380000000 1.0
C      1  0.5364360000000  0.5241090000000  0.4712580000000 1.0
C      1  0.5050750000000  0.4607180000000  0.4709440000000 1.0
C      1  0.5125150000000  0.5142520000000  0.3963090000000 1.0
C      1  0.5050020000000  0.4815120000000  0.3918080000000 1.0
C      1  0.4809440000000  0.5039520000000  0.3956050000000 1.0
C      1  0.4206460000000  0.5561890000000  0.5166840000000 1.0
C      1  0.5894530000000  0.5416080000000  0.5160620000000 1.0
C      1  0.4920680000000  0.3988710000000  0.5156350000000 1.0
C      1  0.5554160000000  0.5549210000000  0.4397930000000 1.0
C      1  0.5161100000000  0.4271480000000  0.4400020000000 1.0
C      1  0.4257910000000  0.5227100000000  0.4398250000000 1.0
C      1  0.4516390000000  0.4856950000000  0.5222780000000 1.0
C      1  0.5133000000000  0.5433340000000  0.5220220000000 1.0
C      1  0.5334070000000  0.4635830000000  0.5232590000000 1.0
C      1  0.4963190000000  0.5542540000000  0.4488340000000 1.0
C      1  0.5627570000000  0.4824390000000  0.4424580000000 1.0
C      1  0.4508380000000  0.4679470000000  0.4456780000000 1.0
C      1  0.5141660000000  0.5833370000000  0.4507360000000 1.0
C      1  0.5617140000000  0.4514770000000  0.4458930000000 1.0
C      1  0.4176740000000  0.4723750000000  0.4488890000000 1.0
C      1  0.4760650000000  0.5693690000000  0.4796480000000 1.0
C      1  0.5688040000000  0.4853760000000  0.4817620000000 1.0
C      1  0.4552370000000  0.4460210000000  0.4784950000000 1.0
C      1  0.4073910000000  0.5021120000000  0.5156890000000 1.0
C      1  0.5469370000000  0.5781960000000  0.5159070000000 1.0
C      1  0.5455320000000  0.4210390000000  0.5141910000000 1.0
C      1  0.4215480000000  0.4597390000000  0.5166710000000 1.0
C      1  0.4998580000000  0.5878090000000  0.5157900000000 1.0
C      1  0.5762060000000  0.4573390000000  0.5160300000000 1.0
C      1  0.4753050000000  0.5576500000000  0.4281150000000 1.0
C      1  0.5708160000000  0.4980220000000  0.4148650000000 1.0
C      1  0.4586410000000  0.4467920000000  0.4262570000000 1.0
C      1  0.5085080000000  0.5480350000000  0.5530500000000 1.0
C      1  0.5376590000000  0.4774610000000  0.5528290000000 1.0
C      1  0.4500510000000  0.4824060000000  0.5547050000000 1.0
C      1  0.5372250000000  0.5747230000000  0.5464130000000 1.0
C      1  0.5435890000000  0.4337720000000  0.5449780000000 1.0
C      1  0.4141910000000  0.4983310000000  0.5479840000000 1.0
C      1  0.4784060000000  0.4769390000000  0.4591050000000 1.0
C      1  0.4904110000000  0.5241820000000  0.4635870000000 1.0
C      1  0.5363510000000  0.4957940000000  0.4524000000000 1.0
C      1  0.4372920000000  0.5506500000000  0.5391250000000 1.0
C      1  0.5775690000000  0.5309470000000  0.5397180000000 1.0
C      1  0.4801250000000  0.4147830000000  0.5433490000000 1.0
C      1  0.5579780000000  0.4866190000000  0.5198490000000 1.0
C      1  0.4550420000000  0.4527010000000  0.5175540000000 1.0
C      1  0.4839180000000  0.5573840000000  0.5166560000000 1.0
C      1  0.5120720000000  0.4730130000000  0.4999940000000 1.0
C      1  0.4702620000000  0.4980870000000  0.4965350000000 1.0
C      1  0.5158000000000  0.5229720000000  0.4952600000000 1.0
C      1  0.4309440000000  0.4989050000000  0.4909720000000 1.0
C      1  0.5333760000000  0.5585040000000  0.4913650000000 1.0
C      1  0.5351740000000  0.4423530000000  0.4896270000000 1.0
C      1  0.5222690000000  0.5206530000000  0.5688200000000 1.0
C      1  0.5068510000000  0.4783990000000  0.5675030000000 1.0
C      1  0.4711910000000  0.5066720000000  0.5672540000000 1.0
C      1  0.4580070000000  0.5366410000000  0.5747510000000 1.0
C      1  0.5550540000000  0.5220660000000  0.5780670000000 1.0
C      1  0.4884180000000  0.4500450000000  0.5721160000000 1.0
C      1  0.4615550000000  0.5809600000000  0.5071920000000 1.0
C      1  0.5886930000000  0.4941970000000  0.5076260000000 1.0
C      1  0.4577330000000  0.4190980000000  0.5190000000000 1.0
C      1  0.4845460000000  0.5258690000000  0.5037610000000 1.0
C      1  0.5313430000000  0.4971790000000  0.5023240000000 1.0
C      1  0.4806400000000  0.4685810000000  0.5014580000000 1.0
C      1  0.5243440000000  0.5962130000000  0.4990860000000 1.0
C      1  0.5727800000000  0.4331520000000  0.4977490000000 1.0
C      1  0.4013800000000  0.4736250000000  0.4979830000000 1.0
C      1  0.5053120000000  0.5809890000000  0.5471720000000 1.0
C      1  0.5651240000000  0.4582500000000  0.5469080000000 1.0
C      1  0.4217270000000  0.4671510000000  0.5475840000000 1.0
C      1  0.5018890000000  0.4949800000000  0.5314990000000 1.0
C      1  0.5059330000000  0.4953720000000  0.4678270000000 1.0
END
