TITL C-2782228-2999-1036 0.00434357111021052 125000 -337.119173927548 0 0 58 (C1) n - 1
REM
REM in /home/nfs/bkarasulu/CARBON/AIRSS/Generating-Clusters/REBO/Higher-Symm/SD-CG/HFTN-CG
REM
REM
REM
REM
REM
REM ./C.cell (12c818d87b63d06a65506943cc24bca4)
REM
REM compiler GCC version 9.2.1 20190827 (Red Hat 9.2.1-1)
REM options -cpp -mtune=generic -march=x86-64 -g -O0 -fpre-include=/usr/include/finclude/math-vector-fortran.h
REM seed -1507150707 1224834583 970833641 -330800162 -1459202604 -1985141608 973518116 -21276511 325539525 -1534968036 -712431383 -1515154622 -2109649600 -131339485 -1936508561 1918256903 -495985516 -1701500724 -450770523 1001094126 2083255963 -897566977 -979385706 -315892750 2077877348 -125917467 339157710 140874790 1320135463 119699354 -354482048 -1612761129 1943837375
REM
CELL 1.54180   50.00000   50.00000   50.00000   90.00000   90.00000   90.00000
LATT -1
SFAC C  
C      1  0.5548200000000  0.5418800000000  0.4744980000000 1.0
C      1  0.4562000000000  0.5317630000000  0.5226900000000 1.0
C      1  0.4235360000000  0.5080950000000  0.4924470000000 1.0
C      1  0.5755000000000  0.5124510000000  0.5089950000000 1.0
C      1  0.4912610000000  0.5487060000000  0.4868290000000 1.0
C      1  0.4998820000000  0.5519390000000  0.5171070000000 1.0
C      1  0.4360840000000  0.5069940000000  0.5235490000000 1.0
C      1  0.5599230000000  0.5114950000000  0.4824260000000 1.0
C      1  0.5086960000000  0.4408290000000  0.5227440000000 1.0
C      1  0.4874560000000  0.4390850000000  0.4750000000000 1.0
C      1  0.5177540000000  0.4878830000000  0.4268410000000 1.0
C      1  0.4852180000000  0.4877810000000  0.5757160000000 1.0
C      1  0.4976070000000  0.5528370000000  0.5463650000000 1.0
C      1  0.5014610000000  0.5497650000000  0.4603360000000 1.0
C      1  0.4776560000000  0.4605230000000  0.5790930000000 1.0
C      1  0.5265290000000  0.4611420000000  0.4221660000000 1.0
C      1  0.5322240000000  0.4605960000000  0.4847540000000 1.0
C      1  0.4634270000000  0.4624040000000  0.5111180000000 1.0
C      1  0.5303830000000  0.5356920000000  0.4560180000000 1.0
C      1  0.4725590000000  0.5357030000000  0.5581060000000 1.0
C      1  0.4517150000000  0.4710710000000  0.4622790000000 1.0
C      1  0.5436520000000  0.4741230000000  0.5331190000000 1.0
C      1  0.4493030000000  0.4657420000000  0.5410200000000 1.0
C      1  0.5552760000000  0.4676390000000  0.4635360000000 1.0
C      1  0.4645950000000  0.5056970000000  0.5650290000000 1.0
C      1  0.5361080000000  0.5062650000000  0.4398760000000 1.0
C      1  0.4786220000000  0.5187750000000  0.4923470000000 1.0
C      1  0.5078020000000  0.5193330000000  0.5078180000000 1.0
C      1  0.4899550000000  0.4902010000000  0.4330180000000 1.0
C      1  0.5119440000000  0.4922630000000  0.5671210000000 1.0
C      1  0.5700500000000  0.5567460000000  0.4922740000000 1.0
C      1  0.4481680000000  0.5481500000000  0.5018110000000 1.0
C      1  0.5319390000000  0.4736820000000  0.5624050000000 1.0
C      1  0.4686930000000  0.4723250000000  0.4343940000000 1.0
C      1  0.5313020000000  0.4941700000000  0.4876660000000 1.0
C      1  0.4590840000000  0.4939620000000  0.5040000000000 1.0
C      1  0.5314220000000  0.5015880000000  0.5205740000000 1.0
C      1  0.4619720000000  0.5008500000000  0.4709950000000 1.0
C      1  0.4858810000000  0.5116540000000  0.4537140000000 1.0
C      1  0.5141080000000  0.5146510000000  0.5468300000000 1.0
C      1  0.5564730000000  0.4940490000000  0.4566580000000 1.0
C      1  0.4445970000000  0.4920340000000  0.5487870000000 1.0
C      1  0.5698660000000  0.4921330000000  0.5260910000000 1.0
C      1  0.4250920000000  0.4864810000000  0.4755860000000 1.0
C      1  0.4661310000000  0.5501840000000  0.4203480000000 1.0
C      1  0.5443800000000  0.5522440000000  0.5732860000000 1.0
C      1  0.4822540000000  0.4452830000000  0.5310650000000 1.0
C      1  0.5139700000000  0.4430890000000  0.4672920000000 1.0
C      1  0.4814840000000  0.5401830000000  0.4403450000000 1.0
C      1  0.5233460000000  0.5427270000000  0.5590930000000 1.0
C      1  0.4765250000000  0.4424160000000  0.5585400000000 1.0
C      1  0.5223850000000  0.4409520000000  0.4403850000000 1.0
C      1  0.5115620000000  0.5125350000000  0.4705860000000 1.0
C      1  0.4841210000000  0.5183620000000  0.5317650000000 1.0
C      1  0.4646550000000  0.4515820000000  0.4824090000000 1.0
C      1  0.5315040000000  0.4528430000000  0.5143870000000 1.0
C      1  0.5825130000000  0.5405880000000  0.5118940000000 1.0
C      1  0.4293730000000  0.5358640000000  0.4848540000000 1.0
END
