TITL C-2782233-7966-828 0.00211924430159833 125000 -448.900134355347 0 0 75 (C1) n - 1
REM
REM in /home/nfs/bkarasulu/CARBON/AIRSS/Generating-Clusters/REBO/Higher-Symm/SD-CG/HFTN-CG
REM
REM
REM
REM
REM
REM ./C.cell (12c818d87b63d06a65506943cc24bca4)
REM
REM compiler GCC version 9.2.1 20190827 (Red Hat 9.2.1-1)
REM options -cpp -mtune=generic -march=x86-64 -g -O0 -fpre-include=/usr/include/finclude/math-vector-fortran.h
REM seed -1002852868 1523132208 948694311 -640415201 114270347 1861986613 339150882 1514620407 749114607 468103925 -2022566824 -1111817186 -815219463 -1299796639 469439236 1338000248 -453523298 -799221047 -1720676239 -558815626 -772779842 -961764882 750670832 1267241800 -770654280 400181826 2022739489 776242224 -1620484180 -768182000 -1398030347 -555187990 1707410799
REM
CELL 1.54180   50.00000   50.00000   50.00000   90.00000   90.00000   90.00000
LATT -1
SFAC C  
C      1  0.5853480000000  0.5056970000000  0.5044200000000 1.0
C      1  0.5156240000000  0.5186610000000  0.5775120000000 1.0
C      1  0.4323280000000  0.5173690000000  0.5376960000000 1.0
C      1  0.4344120000000  0.5062200000000  0.4443990000000 1.0
C      1  0.5281530000000  0.5152980000000  0.4275900000000 1.0
C      1  0.5549620000000  0.5526480000000  0.4974490000000 1.0
C      1  0.5196740000000  0.5419540000000  0.5613150000000 1.0
C      1  0.4511830000000  0.5382430000000  0.5339790000000 1.0
C      1  0.4516590000000  0.5542620000000  0.4646630000000 1.0
C      1  0.5214910000000  0.5404870000000  0.4403610000000 1.0
C      1  0.4969280000000  0.4900750000000  0.5735130000000 1.0
C      1  0.4324120000000  0.4893100000000  0.5180970000000 1.0
C      1  0.4621330000000  0.4886190000000  0.4415130000000 1.0
C      1  0.5398480000000  0.4915400000000  0.4469940000000 1.0
C      1  0.5637530000000  0.4898340000000  0.5232710000000 1.0
C      1  0.5239840000000  0.4851820000000  0.5130110000000 1.0
C      1  0.4950440000000  0.4840800000000  0.5252680000000 1.0
C      1  0.4725240000000  0.4846620000000  0.5019960000000 1.0
C      1  0.4909740000000  0.4867190000000  0.4746610000000 1.0
C      1  0.5210680000000  0.4867520000000  0.4819250000000 1.0
C      1  0.4395230000000  0.4957950000000  0.5568410000000 1.0
C      1  0.4255750000000  0.5093790000000  0.4706970000000 1.0
C      1  0.5051500000000  0.5034940000000  0.4134360000000 1.0
C      1  0.5765210000000  0.5091790000000  0.4780890000000 1.0
C      1  0.5361340000000  0.4969690000000  0.5751330000000 1.0
C      1  0.4963080000000  0.5546740000000  0.5491600000000 1.0
C      1  0.4530640000000  0.5519690000000  0.5088280000000 1.0
C      1  0.4786330000000  0.5637970000000  0.4533280000000 1.0
C      1  0.5359060000000  0.5542940000000  0.4615320000000 1.0
C      1  0.5481880000000  0.5616390000000  0.5264280000000 1.0
C      1  0.5199850000000  0.4125670000000  0.4853570000000 1.0
C      1  0.5219530000000  0.4119460000000  0.5146500000000 1.0
C      1  0.4947410000000  0.4132080000000  0.5255170000000 1.0
C      1  0.4759820000000  0.4131390000000  0.5030610000000 1.0
C      1  0.4915520000000  0.4135640000000  0.4783110000000 1.0
C      1  0.5609260000000  0.5353220000000  0.4719330000000 1.0
C      1  0.5414160000000  0.5389910000000  0.5429610000000 1.0
C      1  0.4750640000000  0.5354940000000  0.5489760000000 1.0
C      1  0.4355820000000  0.5352570000000  0.4856390000000 1.0
C      1  0.4928600000000  0.5408150000000  0.4426600000000 1.0
C      1  0.5241610000000  0.5736110000000  0.5115470000000 1.0
C      1  0.4980620000000  0.5700650000000  0.5246910000000 1.0
C      1  0.4770640000000  0.5677880000000  0.5036970000000 1.0
C      1  0.4916300000000  0.5731400000000  0.4778330000000 1.0
C      1  0.5210850000000  0.5701410000000  0.4816180000000 1.0
C      1  0.4912730000000  0.5076300000000  0.5478050000000 1.0
C      1  0.4519070000000  0.5121710000000  0.5032910000000 1.0
C      1  0.4828170000000  0.5110350000000  0.4545760000000 1.0
C      1  0.5343890000000  0.5152400000000  0.4697560000000 1.0
C      1  0.5394030000000  0.5109750000000  0.5262630000000 1.0
C      1  0.5017130000000  0.5233570000000  0.5217980000000 1.0
C      1  0.4808540000000  0.5233920000000  0.5062660000000 1.0
C      1  0.4744390000000  0.5321990000000  0.4770050000000 1.0
C      1  0.5079170000000  0.5316030000000  0.4785020000000 1.0
C      1  0.5280860000000  0.5342690000000  0.5055910000000 1.0
C      1  0.4470400000000  0.4678430000000  0.5402910000000 1.0
C      1  0.4468310000000  0.4699920000000  0.4662050000000 1.0
C      1  0.5136540000000  0.4711250000000  0.4443130000000 1.0
C      1  0.5571200000000  0.4719940000000  0.4949180000000 1.0
C      1  0.5218020000000  0.4682250000000  0.5653370000000 1.0
C      1  0.4908050000000  0.4341500000000  0.5442460000000 1.0
C      1  0.4560370000000  0.4331510000000  0.5046500000000 1.0
C      1  0.4836520000000  0.4344780000000  0.4608310000000 1.0
C      1  0.5360260000000  0.4320880000000  0.4723830000000 1.0
C      1  0.5399710000000  0.4310940000000  0.5254060000000 1.0
C      1  0.4753720000000  0.4604990000000  0.4664830000000 1.0
C      1  0.5305260000000  0.4588000000000  0.4676720000000 1.0
C      1  0.5409350000000  0.4576200000000  0.5177220000000 1.0
C      1  0.4985500000000  0.4599230000000  0.5457230000000 1.0
C      1  0.4573100000000  0.4589750000000  0.5119030000000 1.0
C      1  0.5614600000000  0.4859540000000  0.4706790000000 1.0
C      1  0.5498020000000  0.4808890000000  0.5504430000000 1.0
C      1  0.4672030000000  0.4806460000000  0.5647510000000 1.0
C      1  0.4299550000000  0.4846140000000  0.4848040000000 1.0
C      1  0.4925840000000  0.4822180000000  0.4288310000000 1.0
END
