TITL C-2782240-8521-666 -0.0010563449239916 125000 -647.931823973123 0 0 110 (C1) n - 1
REM
REM in /home/nfs/bkarasulu/CARBON/AIRSS/Generating-Clusters/REBO/Higher-Symm/SD-CG/HFTN-CG
REM
REM
REM
REM
REM
REM ./C.cell (12c818d87b63d06a65506943cc24bca4)
REM
REM compiler GCC version 9.2.1 20190827 (Red Hat 9.2.1-1)
REM options -cpp -mtune=generic -march=x86-64 -g -O0 -fpre-include=/usr/include/finclude/math-vector-fortran.h
REM seed 1022325170 1597495185 10054798 1387193652 1979694289 1962373682 538299826 -904369064 1698417981 -1446730265 1310555185 -1033084920 -1120611434 -1483831772 648949558 -188551446 1007265956 846859246 1381313665 -47200144 392264812 -347897260 1096482266 -1083666422 644545339 1169053275 70862752 1906688079 -549927568 -672026379 -610938735 1846931321 -1706703621
REM
CELL 1.54180   50.00000   50.00000   50.00000   90.00000   90.00000   90.00000
LATT -1
SFAC C  
C      1  0.4532570000000  0.5127340000000  0.5244120000000 1.0
C      1  0.4490210000000  0.4799800000000  0.5217630000000 1.0
C      1  0.4479840000000  0.4722500000000  0.4893030000000 1.0
C      1  0.4513820000000  0.5006020000000  0.4732980000000 1.0
C      1  0.4538230000000  0.5248050000000  0.4943170000000 1.0
C      1  0.4312750000000  0.5590800000000  0.5152530000000 1.0
C      1  0.4270690000000  0.5014110000000  0.5612570000000 1.0
C      1  0.4286110000000  0.4457250000000  0.5232760000000 1.0
C      1  0.4275710000000  0.4625400000000  0.4549270000000 1.0
C      1  0.4284270000000  0.5316460000000  0.4487560000000 1.0
C      1  0.5258270000000  0.5293770000000  0.4997920000000 1.0
C      1  0.5260130000000  0.5129810000000  0.5293830000000 1.0
C      1  0.5278190000000  0.4766830000000  0.5177320000000 1.0
C      1  0.5270690000000  0.4780660000000  0.4860000000000 1.0
C      1  0.5249790000000  0.5077210000000  0.4748380000000 1.0
C      1  0.4724900000000  0.4387630000000  0.4329090000000 1.0
C      1  0.4758000000000  0.5407090000000  0.4219880000000 1.0
C      1  0.4784280000000  0.5899140000000  0.5175330000000 1.0
C      1  0.4713830000000  0.5043750000000  0.5919610000000 1.0
C      1  0.4768850000000  0.4222150000000  0.5382110000000 1.0
C      1  0.4494930000000  0.5445560000000  0.4375950000000 1.0
C      1  0.4527740000000  0.5727200000000  0.5242480000000 1.0
C      1  0.4461270000000  0.4934050000000  0.5788100000000 1.0
C      1  0.4495320000000  0.4283660000000  0.5247110000000 1.0
C      1  0.4469490000000  0.4556980000000  0.4372390000000 1.0
C      1  0.4975120000000  0.4494150000000  0.5372640000000 1.0
C      1  0.4939810000000  0.4433930000000  0.4597280000000 1.0
C      1  0.4964540000000  0.5196730000000  0.4392170000000 1.0
C      1  0.4957800000000  0.5670890000000  0.4990320000000 1.0
C      1  0.4907260000000  0.5192750000000  0.5695340000000 1.0
C      1  0.5452730000000  0.4837780000000  0.4315200000000 1.0
C      1  0.5461040000000  0.5622240000000  0.4639690000000 1.0
C      1  0.5505730000000  0.5583510000000  0.5530110000000 1.0
C      1  0.5447750000000  0.4718610000000  0.5668530000000 1.0
C      1  0.5452950000000  0.4319890000000  0.4918160000000 1.0
C      1  0.5425610000000  0.5179480000000  0.4519990000000 1.0
C      1  0.5432190000000  0.5547490000000  0.5030510000000 1.0
C      1  0.5429320000000  0.5098780000000  0.5550540000000 1.0
C      1  0.5447830000000  0.4525800000000  0.5260190000000 1.0
C      1  0.5454490000000  0.4611710000000  0.4644820000000 1.0
C      1  0.5768470000000  0.5242180000000  0.5141090000000 1.0
C      1  0.5787160000000  0.4962580000000  0.5256460000000 1.0
C      1  0.5801660000000  0.4768040000000  0.5028150000000 1.0
C      1  0.5796730000000  0.4922600000000  0.4773990000000 1.0
C      1  0.5770010000000  0.5212730000000  0.4839150000000 1.0
C      1  0.4884120000000  0.4830310000000  0.5176740000000 1.0
C      1  0.4875530000000  0.4757670000000  0.4916030000000 1.0
C      1  0.4931790000000  0.4988400000000  0.4731610000000 1.0
C      1  0.4937280000000  0.5252640000000  0.4921210000000 1.0
C      1  0.4952400000000  0.5119680000000  0.5215270000000 1.0
C      1  0.5024310000000  0.5608150000000  0.5294940000000 1.0
C      1  0.4951860000000  0.4871170000000  0.5650330000000 1.0
C      1  0.4971730000000  0.4374760000000  0.5075830000000 1.0
C      1  0.4960470000000  0.4706140000000  0.4405960000000 1.0
C      1  0.4973410000000  0.5480360000000  0.4545480000000 1.0
C      1  0.5075210000000  0.4121190000000  0.5275430000000 1.0
C      1  0.5039500000000  0.4442200000000  0.4210730000000 1.0
C      1  0.5067630000000  0.5547360000000  0.4231340000000 1.0
C      1  0.5070610000000  0.5932980000000  0.5355900000000 1.0
C      1  0.5024490000000  0.4934320000000  0.5975840000000 1.0
C      1  0.5625200000000  0.5478120000000  0.5237570000000 1.0
C      1  0.5654730000000  0.4912500000000  0.5506170000000 1.0
C      1  0.5670530000000  0.4512860000000  0.5057850000000 1.0
C      1  0.5664300000000  0.4798420000000  0.4552160000000 1.0
C      1  0.5613140000000  0.5361090000000  0.4645930000000 1.0
C      1  0.4670610000000  0.4710180000000  0.5704520000000 1.0
C      1  0.4682120000000  0.4249920000000  0.4993340000000 1.0
C      1  0.4670980000000  0.4781600000000  0.4286060000000 1.0
C      1  0.4678960000000  0.5603590000000  0.4571900000000 1.0
C      1  0.4734920000000  0.5572390000000  0.5423170000000 1.0
C      1  0.5145360000000  0.4177570000000  0.4554280000000 1.0
C      1  0.5221160000000  0.5140360000000  0.4002960000000 1.0
C      1  0.5224420000000  0.6011060000000  0.4804640000000 1.0
C      1  0.5129500000000  0.5380440000000  0.5795840000000 1.0
C      1  0.5224160000000  0.4280230000000  0.5687630000000 1.0
C      1  0.4706290000000  0.4669980000000  0.5402070000000 1.0
C      1  0.4697120000000  0.4505730000000  0.4816620000000 1.0
C      1  0.4714510000000  0.5006720000000  0.4498260000000 1.0
C      1  0.4726150000000  0.5481390000000  0.4859100000000 1.0
C      1  0.4758070000000  0.5264450000000  0.5426520000000 1.0
C      1  0.4222290000000  0.5295180000000  0.5058380000000 1.0
C      1  0.4199370000000  0.5057120000000  0.5297280000000 1.0
C      1  0.4165100000000  0.4759560000000  0.5134250000000 1.0
C      1  0.4168660000000  0.4817500000000  0.4799170000000 1.0
C      1  0.4203140000000  0.5147140000000  0.4752720000000 1.0
C      1  0.4795520000000  0.4858820000000  0.4001380000000 1.0
C      1  0.4802000000000  0.5898690000000  0.4542630000000 1.0
C      1  0.4783340000000  0.5695820000000  0.5706070000000 1.0
C      1  0.4786960000000  0.4469920000000  0.5872360000000 1.0
C      1  0.4795050000000  0.3990700000000  0.4851160000000 1.0
C      1  0.5414490000000  0.5155410000000  0.4217260000000 1.0
C      1  0.5424430000000  0.5822680000000  0.4902960000000 1.0
C      1  0.5400060000000  0.5327090000000  0.5716000000000 1.0
C      1  0.5417290000000  0.4425180000000  0.5532130000000 1.0
C      1  0.5401190000000  0.4320130000000  0.4591490000000 1.0
C      1  0.5211190000000  0.4702860000000  0.5903370000000 1.0
C      1  0.5240790000000  0.4085110000000  0.5017540000000 1.0
C      1  0.5232430000000  0.4669800000000  0.4116000000000 1.0
C      1  0.5244420000000  0.5736970000000  0.4403440000000 1.0
C      1  0.5239670000000  0.5790260000000  0.5578340000000 1.0
C      1  0.5073570000000  0.4446550000000  0.5870690000000 1.0
C      1  0.5077080000000  0.4006330000000  0.4786870000000 1.0
C      1  0.5081720000000  0.4886620000000  0.3980680000000 1.0
C      1  0.5086930000000  0.5934960000000  0.4559400000000 1.0
C      1  0.5060920000000  0.5658490000000  0.5770300000000 1.0
C      1  0.5160070000000  0.4727340000000  0.5487410000000 1.0
C      1  0.5152140000000  0.4474100000000  0.4863140000000 1.0
C      1  0.5137110000000  0.4937120000000  0.4393860000000 1.0
C      1  0.5143450000000  0.5588020000000  0.4757330000000 1.0
C      1  0.5249060000000  0.5443490000000  0.5367690000000 1.0
END
