TITL C-2782240-8521-1403 -0.000425019818462132 125000 -421.259069714574 0 0 66 (C1) n - 1
REM
REM in /home/nfs/bkarasulu/CARBON/AIRSS/Generating-Clusters/REBO/Higher-Symm/SD-CG/HFTN-CG
REM
REM
REM
REM
REM
REM ./C.cell (12c818d87b63d06a65506943cc24bca4)
REM
REM compiler GCC version 9.2.1 20190827 (Red Hat 9.2.1-1)
REM options -cpp -mtune=generic -march=x86-64 -g -O0 -fpre-include=/usr/include/finclude/math-vector-fortran.h
REM seed 619011173 484245434 1466022189 -838335820 1710887834 -1652241758 -1711246437 -855179402 -218883832 -935475578 -512210706 -194416061 -1545192250 -399914256 -926849209 -81858100 -3022338 202663065 -286720856 -923279957 -557003097 386311519 -1595945839 -690524496 608577055 974712849 904099104 1943857536 -1215338479 1320535998 317953720 -345992655 791375020
REM
CELL 1.54180   50.00000   50.00000   50.00000   90.00000   90.00000   90.00000
LATT -1
SFAC C  
C      1  0.4537100000000  0.5517530000000  0.4719320000000 1.0
C      1  0.4521320000000  0.4892780000000  0.4367060000000 1.0
C      1  0.4603910000000  0.4467820000000  0.4916840000000 1.0
C      1  0.4561790000000  0.4725710000000  0.5594890000000 1.0
C      1  0.4588230000000  0.5394840000000  0.5436390000000 1.0
C      1  0.5535920000000  0.5076190000000  0.5424710000000 1.0
C      1  0.5528730000000  0.5435860000000  0.5032770000000 1.0
C      1  0.5506760000000  0.5176870000000  0.4564040000000 1.0
C      1  0.5507740000000  0.4656920000000  0.4670540000000 1.0
C      1  0.5525650000000  0.4595910000000  0.5206930000000 1.0
C      1  0.4572760000000  0.5188820000000  0.5622530000000 1.0
C      1  0.4586030000000  0.5535690000000  0.4991720000000 1.0
C      1  0.4524810000000  0.5174920000000  0.4399960000000 1.0
C      1  0.4559330000000  0.4520680000000  0.4648380000000 1.0
C      1  0.4594370000000  0.4547730000000  0.5381830000000 1.0
C      1  0.5664010000000  0.4817700000000  0.5350340000000 1.0
C      1  0.5662240000000  0.5287070000000  0.5253360000000 1.0
C      1  0.5648900000000  0.5342060000000  0.4775020000000 1.0
C      1  0.5639080000000  0.4908400000000  0.4574610000000 1.0
C      1  0.5637030000000  0.4583390000000  0.4929870000000 1.0
C      1  0.5050090000000  0.5673840000000  0.4945620000000 1.0
C      1  0.5036740000000  0.5178770000000  0.4326300000000 1.0
C      1  0.5051300000000  0.4441180000000  0.4602770000000 1.0
C      1  0.5067660000000  0.4463720000000  0.5469580000000 1.0
C      1  0.5068070000000  0.5242200000000  0.5660610000000 1.0
C      1  0.4800880000000  0.4529200000000  0.4486180000000 1.0
C      1  0.4834920000000  0.4401470000000  0.5317750000000 1.0
C      1  0.4830650000000  0.5088970000000  0.5721390000000 1.0
C      1  0.4822430000000  0.5641940000000  0.5115840000000 1.0
C      1  0.4783590000000  0.5316530000000  0.4371890000000 1.0
C      1  0.4777100000000  0.4763520000000  0.4311460000000 1.0
C      1  0.4837130000000  0.4345820000000  0.5030470000000 1.0
C      1  0.4813260000000  0.4799250000000  0.5726100000000 1.0
C      1  0.4816540000000  0.5563240000000  0.5396420000000 1.0
C      1  0.4771800000000  0.5547130000000  0.4553180000000 1.0
C      1  0.5898590000000  0.4934380000000  0.4719700000000 1.0
C      1  0.5900220000000  0.4732070000000  0.4938930000000 1.0
C      1  0.5914470000000  0.4878470000000  0.5198880000000 1.0
C      1  0.5915510000000  0.5170930000000  0.5140000000000 1.0
C      1  0.5906350000000  0.5204800000000  0.4843380000000 1.0
C      1  0.4387130000000  0.4966480000000  0.5546550000000 1.0
C      1  0.4469620000000  0.5320490000000  0.5169610000000 1.0
C      1  0.4368120000000  0.5299690000000  0.4618340000000 1.0
C      1  0.4371020000000  0.4731280000000  0.4562480000000 1.0
C      1  0.4485010000000  0.4649220000000  0.5122530000000 1.0
C      1  0.4183960000000  0.5211710000000  0.5077540000000 1.0
C      1  0.4189860000000  0.5148270000000  0.4792100000000 1.0
C      1  0.4183380000000  0.4853370000000  0.4739700000000 1.0
C      1  0.4221950000000  0.4816040000000  0.5049720000000 1.0
C      1  0.4187890000000  0.5004320000000  0.5331470000000 1.0
C      1  0.5277290000000  0.4159560000000  0.4932870000000 1.0
C      1  0.5241290000000  0.4633820000000  0.5893880000000 1.0
C      1  0.5232220000000  0.5703510000000  0.5614110000000 1.0
C      1  0.5243790000000  0.5574700000000  0.4508110000000 1.0
C      1  0.5250370000000  0.4735410000000  0.4276140000000 1.0
C      1  0.5015880000000  0.5650880000000  0.4659770000000 1.0
C      1  0.5021650000000  0.4901530000000  0.4255230000000 1.0
C      1  0.5056580000000  0.4297840000000  0.4853800000000 1.0
C      1  0.5039560000000  0.4620850000000  0.5711250000000 1.0
C      1  0.5037240000000  0.5518390000000  0.5573140000000 1.0
C      1  0.5313210000000  0.5121110000000  0.5588740000000 1.0
C      1  0.5305510000000  0.5603480000000  0.5042150000000 1.0
C      1  0.5277280000000  0.5297710000000  0.4441160000000 1.0
C      1  0.5286660000000  0.4578460000000  0.4512450000000 1.0
C      1  0.5314030000000  0.4467530000000  0.5334680000000 1.0
C      1  0.4512320000000  0.4989610000000  0.5103880000000 1.0
END
