TITL C-2782236-320-272 -0.00259740662349936 125000 -806.352495568325 0 0 135 (C1) n - 1
REM
REM in /home/nfs/bkarasulu/CARBON/AIRSS/Generating-Clusters/REBO/Higher-Symm/SD-CG/HFTN-CG
REM
REM
REM
REM
REM
REM ./C.cell (12c818d87b63d06a65506943cc24bca4)
REM
REM compiler GCC version 9.2.1 20190827 (Red Hat 9.2.1-1)
REM options -cpp -mtune=generic -march=x86-64 -g -O0 -fpre-include=/usr/include/finclude/math-vector-fortran.h
REM seed -2081664730 487082015 -766892305 1758944031 -1990195476 222818264 -706886486 1283427036 -1171920313 1621482556 -998387115 -1204816802 672416779 -1996611910 2021715770 1230363577 -208119892 -128182491 -61885235 1051217033 649227763 -1428446725 -1052310151 91252232 -1357630569 -688334101 -1225315548 1575438420 -446556830 1510884277 1823970340 -1315537013 -2058072688
REM
CELL 1.54180   50.00000   50.00000   50.00000   90.00000   90.00000   90.00000
LATT -1
SFAC C  
C      1  0.4551950000000  0.5006940000000  0.4770220000000 1.0
C      1  0.4647850000000  0.5261800000000  0.4726620000000 1.0
C      1  0.4888560000000  0.5390420000000  0.4698530000000 1.0
C      1  0.5127750000000  0.5330350000000  0.4579230000000 1.0
C      1  0.5335930000000  0.5159660000000  0.4622110000000 1.0
C      1  0.5374130000000  0.4896720000000  0.4670570000000 1.0
C      1  0.5235840000000  0.4674690000000  0.4741340000000 1.0
C      1  0.4979760000000  0.4603020000000  0.4803690000000 1.0
C      1  0.4716220000000  0.4760480000000  0.4821780000000 1.0
C      1  0.4358730000000  0.5685130000000  0.5344100000000 1.0
C      1  0.4950000000000  0.5834980000000  0.5343720000000 1.0
C      1  0.5457100000000  0.5655190000000  0.5330210000000 1.0
C      1  0.5801900000000  0.5239210000000  0.5331790000000 1.0
C      1  0.5855410000000  0.4625680000000  0.5338040000000 1.0
C      1  0.5411590000000  0.4156590000000  0.5351830000000 1.0
C      1  0.4729070000000  0.4101080000000  0.5301580000000 1.0
C      1  0.4274060000000  0.4495520000000  0.5312250000000 1.0
C      1  0.4063960000000  0.5136920000000  0.5332260000000 1.0
C      1  0.5472070000000  0.4198270000000  0.5022040000000 1.0
C      1  0.4614930000000  0.4232020000000  0.5048000000000 1.0
C      1  0.4231370000000  0.4544990000000  0.4977450000000 1.0
C      1  0.4117810000000  0.5202200000000  0.5008140000000 1.0
C      1  0.4369030000000  0.5648280000000  0.5004750000000 1.0
C      1  0.5005310000000  0.5854670000000  0.5031460000000 1.0
C      1  0.5478060000000  0.5711790000000  0.4994280000000 1.0
C      1  0.5774670000000  0.5276690000000  0.5043910000000 1.0
C      1  0.5892430000000  0.4579370000000  0.5001570000000 1.0
C      1  0.4558830000000  0.4853660000000  0.4021380000000 1.0
C      1  0.4577290000000  0.5181010000000  0.4009060000000 1.0
C      1  0.4790780000000  0.5434890000000  0.3987280000000 1.0
C      1  0.5116910000000  0.5443210000000  0.3933490000000 1.0
C      1  0.5401760000000  0.5271930000000  0.3973110000000 1.0
C      1  0.5518160000000  0.4957780000000  0.4004130000000 1.0
C      1  0.5380810000000  0.4649410000000  0.4034520000000 1.0
C      1  0.5071630000000  0.4562090000000  0.3989570000000 1.0
C      1  0.4756150000000  0.4583350000000  0.4042860000000 1.0
C      1  0.5024950000000  0.4582490000000  0.5289810000000 1.0
C      1  0.4838830000000  0.4784570000000  0.5127020000000 1.0
C      1  0.4645920000000  0.4933130000000  0.5301690000000 1.0
C      1  0.4611890000000  0.5218080000000  0.5428000000000 1.0
C      1  0.4850230000000  0.5417140000000  0.5348330000000 1.0
C      1  0.5067040000000  0.5331680000000  0.5127810000000 1.0
C      1  0.5276120000000  0.5127940000000  0.5014940000000 1.0
C      1  0.5413910000000  0.4853710000000  0.5065830000000 1.0
C      1  0.5323690000000  0.4699650000000  0.5329400000000 1.0
C      1  0.4836410000000  0.5691450000000  0.4687570000000 1.0
C      1  0.5217470000000  0.5552850000000  0.4418480000000 1.0
C      1  0.5588820000000  0.5305900000000  0.4624930000000 1.0
C      1  0.5651260000000  0.4829490000000  0.4635720000000 1.0
C      1  0.5411680000000  0.4444130000000  0.4716720000000 1.0
C      1  0.4940970000000  0.4309770000000  0.4803650000000 1.0
C      1  0.4499150000000  0.4589700000000  0.4683920000000 1.0
C      1  0.4254660000000  0.4940880000000  0.4740080000000 1.0
C      1  0.4439770000000  0.5456330000000  0.4662110000000 1.0
C      1  0.5170760000000  0.4592000000000  0.5949880000000 1.0
C      1  0.4885890000000  0.4569390000000  0.5936830000000 1.0
C      1  0.4647910000000  0.4737740000000  0.5949980000000 1.0
C      1  0.4573660000000  0.5017850000000  0.5969260000000 1.0
C      1  0.4692200000000  0.5281890000000  0.6006520000000 1.0
C      1  0.4956180000000  0.5404260000000  0.6030050000000 1.0
C      1  0.5238380000000  0.5325250000000  0.6034610000000 1.0
C      1  0.5404910000000  0.5083740000000  0.6024190000000 1.0
C      1  0.5377800000000  0.4793340000000  0.5994180000000 1.0
C      1  0.4847500000000  0.4221150000000  0.4491200000000 1.0
C      1  0.4356960000000  0.4521740000000  0.4380700000000 1.0
C      1  0.4162440000000  0.5088890000000  0.4447150000000 1.0
C      1  0.4390010000000  0.5584490000000  0.4353650000000 1.0
C      1  0.4924770000000  0.5822000000000  0.4392830000000 1.0
C      1  0.5498200000000  0.5731250000000  0.4391500000000 1.0
C      1  0.5814410000000  0.5257150000000  0.4390810000000 1.0
C      1  0.5799450000000  0.4665730000000  0.4383220000000 1.0
C      1  0.5383440000000  0.4258740000000  0.4445100000000 1.0
C      1  0.5696800000000  0.4694310000000  0.4105150000000 1.0
C      1  0.5261610000000  0.4381790000000  0.4207520000000 1.0
C      1  0.4930370000000  0.4362240000000  0.4233550000000 1.0
C      1  0.4437600000000  0.4556210000000  0.4100430000000 1.0
C      1  0.4336800000000  0.5037400000000  0.4195620000000 1.0
C      1  0.4478790000000  0.5488870000000  0.4089640000000 1.0
C      1  0.4969520000000  0.5679170000000  0.4131680000000 1.0
C      1  0.5360520000000  0.5564580000000  0.4128060000000 1.0
C      1  0.5699670000000  0.5216740000000  0.4115880000000 1.0
C      1  0.4371250000000  0.5103760000000  0.5215640000000 1.0
C      1  0.4547820000000  0.5461650000000  0.5213270000000 1.0
C      1  0.4873460000000  0.5577740000000  0.5050470000000 1.0
C      1  0.5374520000000  0.5423580000000  0.5116310000000 1.0
C      1  0.5601720000000  0.5075820000000  0.4946050000000 1.0
C      1  0.5600340000000  0.4618730000000  0.5147390000000 1.0
C      1  0.5271430000000  0.4407990000000  0.5199990000000 1.0
C      1  0.4769570000000  0.4459720000000  0.5131300000000 1.0
C      1  0.4446900000000  0.4733720000000  0.5157530000000 1.0
C      1  0.4941570000000  0.5661560000000  0.5872660000000 1.0
C      1  0.5386650000000  0.5537020000000  0.5876320000000 1.0
C      1  0.5652840000000  0.5159360000000  0.5868700000000 1.0
C      1  0.5616790000000  0.4699520000000  0.5837060000000 1.0
C      1  0.5282160000000  0.4379530000000  0.5766290000000 1.0
C      1  0.4826190000000  0.4337340000000  0.5754650000000 1.0
C      1  0.4438910000000  0.4604500000000  0.5779960000000 1.0
C      1  0.4328440000000  0.5053870000000  0.5794920000000 1.0
C      1  0.4521820000000  0.5474140000000  0.5849390000000 1.0
C      1  0.5069440000000  0.4239210000000  0.5621470000000 1.0
C      1  0.4550420000000  0.4358520000000  0.5681130000000 1.0
C      1  0.4261390000000  0.4803130000000  0.5669830000000 1.0
C      1  0.4306930000000  0.5333400000000  0.5725990000000 1.0
C      1  0.4687270000000  0.5683910000000  0.5740280000000 1.0
C      1  0.5197100000000  0.5717090000000  0.5757120000000 1.0
C      1  0.5620780000000  0.5421040000000  0.5757150000000 1.0
C      1  0.5759490000000  0.4929690000000  0.5733970000000 1.0
C      1  0.5554680000000  0.4450380000000  0.5711860000000 1.0
C      1  0.5686050000000  0.4396150000000  0.4528620000000 1.0
C      1  0.5142720000000  0.4113440000000  0.4634230000000 1.0
C      1  0.4541640000000  0.4283800000000  0.4539170000000 1.0
C      1  0.4170950000000  0.4750000000000  0.4485620000000 1.0
C      1  0.4156560000000  0.5388710000000  0.4511070000000 1.0
C      1  0.4593920000000  0.5798030000000  0.4481880000000 1.0
C      1  0.5222460000000  0.5851670000000  0.4560230000000 1.0
C      1  0.5741010000000  0.5571570000000  0.4514620000000 1.0
C      1  0.5921670000000  0.4968010000000  0.4498110000000 1.0
C      1  0.4202130000000  0.5412350000000  0.5476320000000 1.0
C      1  0.4669150000000  0.5766330000000  0.5463630000000 1.0
C      1  0.5206520000000  0.5773720000000  0.5481190000000 1.0
C      1  0.5669430000000  0.5456270000000  0.5481530000000 1.0
C      1  0.5840460000000  0.4944720000000  0.5456480000000 1.0
C      1  0.5652590000000  0.4376060000000  0.5457050000000 1.0
C      1  0.5069350000000  0.4088680000000  0.5314680000000 1.0
C      1  0.4481570000000  0.4277750000000  0.5421000000000 1.0
C      1  0.4125150000000  0.4802550000000  0.5376250000000 1.0
C      1  0.5702230000000  0.5533940000000  0.4852540000000 1.0
C      1  0.5945720000000  0.4792770000000  0.4791920000000 1.0
C      1  0.5704170000000  0.4354380000000  0.4866690000000 1.0
C      1  0.5146910000000  0.4103240000000  0.4979500000000 1.0
C      1  0.4411220000000  0.4309560000000  0.4848450000000 1.0
C      1  0.4108700000000  0.4861380000000  0.5036860000000 1.0
C      1  0.4166030000000  0.5441520000000  0.4848930000000 1.0
C      1  0.4544050000000  0.5807980000000  0.4818170000000 1.0
C      1  0.5240700000000  0.5862780000000  0.4866540000000 1.0
END
