TITL C-2782235-7892-1243 -0.00156498061508577 125000 -1175.81962064372 0 0 193 (C1) n - 1
REM
REM in /home/nfs/bkarasulu/CARBON/AIRSS/Generating-Clusters/REBO/Higher-Symm/SD-CG/HFTN-CG
REM
REM
REM
REM
REM
REM ./C.cell (12c818d87b63d06a65506943cc24bca4)
REM
REM compiler GCC version 9.2.1 20190827 (Red Hat 9.2.1-1)
REM options -cpp -mtune=generic -march=x86-64 -g -O0 -fpre-include=/usr/include/finclude/math-vector-fortran.h
REM seed -356124341 2145371241 -1440559742 -906738234 -231008513 30192073 2018244136 -343548284 -1473320282 -358859095 697003063 964441711 -1284341697 -1541076388 1864170161 2140794991 -1707433548 191928452 -1594785756 -2085618167 -259806973 1826708878 -1270122746 -135903634 54456029 -1926821119 -763315571 360024935 1824751524 -1752814309 393067941 1499561352 1623676030
REM
CELL 1.54180   50.00000   50.00000   50.00000   90.00000   90.00000   90.00000
LATT -1
SFAC C  
C      1  0.4901150000000  0.4964240000000  0.5396680000000 1.0
C      1  0.4893310000000  0.4683960000000  0.5203690000000 1.0
C      1  0.4843010000000  0.4643850000000  0.4869000000000 1.0
C      1  0.4838340000000  0.4891380000000  0.4634050000000 1.0
C      1  0.4838790000000  0.5229550000000  0.4681070000000 1.0
C      1  0.4893190000000  0.5398830000000  0.4972540000000 1.0
C      1  0.4899080000000  0.5288990000000  0.5295000000000 1.0
C      1  0.4767840000000  0.4008100000000  0.5051910000000 1.0
C      1  0.4783130000000  0.4338670000000  0.4220280000000 1.0
C      1  0.4783270000000  0.5196290000000  0.4005890000000 1.0
C      1  0.4781920000000  0.5932140000000  0.4493480000000 1.0
C      1  0.4790210000000  0.5954810000000  0.5389220000000 1.0
C      1  0.4788270000000  0.5289290000000  0.5985730000000 1.0
C      1  0.4796920000000  0.4367630000000  0.5825380000000 1.0
C      1  0.4820810000000  0.5843350000000  0.4203860000000 1.0
C      1  0.4885560000000  0.6150270000000  0.5170050000000 1.0
C      1  0.4825570000000  0.5596340000000  0.6004060000000 1.0
C      1  0.4883130000000  0.4556760000000  0.6042080000000 1.0
C      1  0.4804440000000  0.3944390000000  0.5344800000000 1.0
C      1  0.4864200000000  0.4063020000000  0.4331640000000 1.0
C      1  0.4872540000000  0.4940810000000  0.3856970000000 1.0
C      1  0.4372760000000  0.4625180000000  0.5776710000000 1.0
C      1  0.4312330000000  0.4167820000000  0.5158790000000 1.0
C      1  0.4327300000000  0.4356710000000  0.4444490000000 1.0
C      1  0.4341430000000  0.4985090000000  0.4133500000000 1.0
C      1  0.4327320000000  0.5725410000000  0.4488770000000 1.0
C      1  0.4368500000000  0.5844190000000  0.5136280000000 1.0
C      1  0.4339870000000  0.5334710000000  0.5751920000000 1.0
C      1  0.4400560000000  0.4986970000000  0.5365270000000 1.0
C      1  0.4381720000000  0.4711610000000  0.5282440000000 1.0
C      1  0.4304530000000  0.4602730000000  0.5000540000000 1.0
C      1  0.4291690000000  0.4771330000000  0.4703260000000 1.0
C      1  0.4278710000000  0.5111240000000  0.4720740000000 1.0
C      1  0.4388210000000  0.5327520000000  0.4954560000000 1.0
C      1  0.4416170000000  0.5244350000000  0.5225870000000 1.0
C      1  0.5829470000000  0.5378980000000  0.4281870000000 1.0
C      1  0.5830560000000  0.5821390000000  0.4841160000000 1.0
C      1  0.5815890000000  0.5622720000000  0.5517520000000 1.0
C      1  0.5848270000000  0.4981600000000  0.5836770000000 1.0
C      1  0.5843980000000  0.4346320000000  0.5504200000000 1.0
C      1  0.5831950000000  0.4206110000000  0.4804200000000 1.0
C      1  0.5831980000000  0.4667540000000  0.4259330000000 1.0
C      1  0.5503880000000  0.5057500000000  0.4091470000000 1.0
C      1  0.5504180000000  0.5748410000000  0.4472160000000 1.0
C      1  0.5514350000000  0.5905090000000  0.5259830000000 1.0
C      1  0.5528500000000  0.5357900000000  0.5855690000000 1.0
C      1  0.5519130000000  0.4556910000000  0.5817980000000 1.0
C      1  0.5504760000000  0.4090580000000  0.5165910000000 1.0
C      1  0.5501450000000  0.4320190000000  0.4397140000000 1.0
C      1  0.4511120000000  0.4101810000000  0.4973970000000 1.0
C      1  0.4514100000000  0.4443170000000  0.4248700000000 1.0
C      1  0.4508870000000  0.5218530000000  0.4095510000000 1.0
C      1  0.4523880000000  0.5884230000000  0.4608050000000 1.0
C      1  0.4514470000000  0.5859330000000  0.5384340000000 1.0
C      1  0.4532190000000  0.5191010000000  0.5897680000000 1.0
C      1  0.4526020000000  0.4388480000000  0.5722340000000 1.0
C      1  0.5107750000000  0.4819110000000  0.3755860000000 1.0
C      1  0.5013420000000  0.5809930000000  0.3999870000000 1.0
C      1  0.5115120000000  0.6286650000000  0.5075530000000 1.0
C      1  0.5034000000000  0.5789380000000  0.6026730000000 1.0
C      1  0.5128990000000  0.4599650000000  0.6184610000000 1.0
C      1  0.4991020000000  0.3884690000000  0.5544060000000 1.0
C      1  0.5101570000000  0.3912870000000  0.4372180000000 1.0
C      1  0.4106050000000  0.4436720000000  0.5370050000000 1.0
C      1  0.3990460000000  0.4401330000000  0.4815870000000 1.0
C      1  0.3981620000000  0.4802680000000  0.4434380000000 1.0
C      1  0.4121750000000  0.5296500000000  0.4404630000000 1.0
C      1  0.4034560000000  0.5550090000000  0.4885680000000 1.0
C      1  0.4142220000000  0.5479710000000  0.5396780000000 1.0
C      1  0.4052510000000  0.4935800000000  0.5618630000000 1.0
C      1  0.5793210000000  0.5335170000000  0.5019710000000 1.0
C      1  0.5668320000000  0.5259760000000  0.5288570000000 1.0
C      1  0.5789600000000  0.5002360000000  0.5398190000000 1.0
C      1  0.5788560000000  0.4714020000000  0.5256620000000 1.0
C      1  0.5780060000000  0.4627890000000  0.4944970000000 1.0
C      1  0.5760940000000  0.4838240000000  0.4708590000000 1.0
C      1  0.5746060000000  0.5155530000000  0.4747930000000 1.0
C      1  0.5978200000000  0.4790800000000  0.5678430000000 1.0
C      1  0.5964670000000  0.4355640000000  0.5254120000000 1.0
C      1  0.5953540000000  0.4409500000000  0.4658840000000 1.0
C      1  0.5948180000000  0.4908620000000  0.4334530000000 1.0
C      1  0.5948460000000  0.5479680000000  0.4512270000000 1.0
C      1  0.5955580000000  0.5707300000000  0.5063140000000 1.0
C      1  0.5953000000000  0.5379300000000  0.5561460000000 1.0
C      1  0.5448800000000  0.4886820000000  0.4649510000000 1.0
C      1  0.5428780000000  0.5204810000000  0.4679240000000 1.0
C      1  0.5467540000000  0.5351060000000  0.4956480000000 1.0
C      1  0.5334220000000  0.5185570000000  0.5202260000000 1.0
C      1  0.5466480000000  0.4925340000000  0.5360730000000 1.0
C      1  0.5470040000000  0.4659010000000  0.5193490000000 1.0
C      1  0.5455920000000  0.4641890000000  0.4873380000000 1.0
C      1  0.3921030000000  0.5267480000000  0.5246040000000 1.0
C      1  0.3996230000000  0.4995990000000  0.5229070000000 1.0
C      1  0.4004630000000  0.4669780000000  0.5157400000000 1.0
C      1  0.3973170000000  0.4722690000000  0.4822970000000 1.0
C      1  0.3797070000000  0.4920890000000  0.4663940000000 1.0
C      1  0.3736890000000  0.5163990000000  0.4789920000000 1.0
C      1  0.3844610000000  0.5352180000000  0.4975610000000 1.0
C      1  0.5420580000000  0.5362800000000  0.5471950000000 1.0
C      1  0.5388200000000  0.4890910000000  0.5647570000000 1.0
C      1  0.5371080000000  0.4421970000000  0.5337380000000 1.0
C      1  0.5362350000000  0.4382860000000  0.4764090000000 1.0
C      1  0.5370970000000  0.4810330000000  0.4373170000000 1.0
C      1  0.5354530000000  0.5379810000000  0.4456140000000 1.0
C      1  0.5408660000000  0.5644740000000  0.4975840000000 1.0
C      1  0.4609200000000  0.5401640000000  0.5354140000000 1.0
C      1  0.4614360000000  0.4991910000000  0.5561040000000 1.0
C      1  0.4618470000000  0.4558250000000  0.5344270000000 1.0
C      1  0.4553620000000  0.4484250000000  0.4865880000000 1.0
C      1  0.4543410000000  0.4762610000000  0.4529500000000 1.0
C      1  0.4529510000000  0.5247440000000  0.4590210000000 1.0
C      1  0.4596470000000  0.5508760000000  0.4884230000000 1.0
C      1  0.4144900000000  0.4667010000000  0.5613770000000 1.0
C      1  0.4059970000000  0.4287670000000  0.5061130000000 1.0
C      1  0.4078320000000  0.4492160000000  0.4515280000000 1.0
C      1  0.4111820000000  0.5028670000000  0.4297490000000 1.0
C      1  0.4117910000000  0.5535690000000  0.4602320000000 1.0
C      1  0.4158180000000  0.5661250000000  0.5127120000000 1.0
C      1  0.4113620000000  0.5209180000000  0.5603070000000 1.0
C      1  0.5345800000000  0.5109640000000  0.5999500000000 1.0
C      1  0.5360530000000  0.4275820000000  0.5709320000000 1.0
C      1  0.5338170000000  0.4001650000000  0.4881890000000 1.0
C      1  0.5337970000000  0.4482930000000  0.4146180000000 1.0
C      1  0.5342100000000  0.5355820000000  0.4057580000000 1.0
C      1  0.5343330000000  0.5974410000000  0.4669350000000 1.0
C      1  0.5352400000000  0.5862280000000  0.5558060000000 1.0
C      1  0.5825260000000  0.5249920000000  0.5781460000000 1.0
C      1  0.5828630000000  0.4550300000000  0.5688380000000 1.0
C      1  0.5814040000000  0.4193780000000  0.5078010000000 1.0
C      1  0.5808370000000  0.4447370000000  0.4420950000000 1.0
C      1  0.5808380000000  0.5116370000000  0.4208970000000 1.0
C      1  0.5807230000000  0.5707570000000  0.4593180000000 1.0
C      1  0.5810000000000  0.5776700000000  0.5292480000000 1.0
C      1  0.4957500000000  0.5421570000000  0.4442820000000 1.0
C      1  0.5014910000000  0.5698170000000  0.4959980000000 1.0
C      1  0.4972960000000  0.5491550000000  0.5544220000000 1.0
C      1  0.4995930000000  0.4897450000000  0.5700790000000 1.0
C      1  0.4974350000000  0.4385430000000  0.5345150000000 1.0
C      1  0.4965930000000  0.4356920000000  0.4734130000000 1.0
C      1  0.4974640000000  0.4825410000000  0.4341720000000 1.0
C      1  0.4506350000000  0.4749350000000  0.4210280000000 1.0
C      1  0.4439390000000  0.5439630000000  0.4337790000000 1.0
C      1  0.4549650000000  0.5819260000000  0.4899850000000 1.0
C      1  0.4444660000000  0.5588430000000  0.5558680000000 1.0
C      1  0.4525910000000  0.4876620000000  0.5845970000000 1.0
C      1  0.4376080000000  0.4254410000000  0.5468300000000 1.0
C      1  0.4481800000000  0.4236820000000  0.4680410000000 1.0
C      1  0.5192370000000  0.5031710000000  0.4233340000000 1.0
C      1  0.5184570000000  0.5635640000000  0.4530280000000 1.0
C      1  0.5211250000000  0.5760430000000  0.5199880000000 1.0
C      1  0.5212830000000  0.5360830000000  0.5718100000000 1.0
C      1  0.5202470000000  0.4641380000000  0.5713260000000 1.0
C      1  0.5186610000000  0.4223460000000  0.5174660000000 1.0
C      1  0.5185200000000  0.4402760000000  0.4504640000000 1.0
C      1  0.5532080000000  0.5616660000000  0.5642760000000 1.0
C      1  0.5578570000000  0.4877850000000  0.5913280000000 1.0
C      1  0.5577860000000  0.4212440000000  0.5476280000000 1.0
C      1  0.5565950000000  0.4141520000000  0.4679630000000 1.0
C      1  0.5568070000000  0.4725270000000  0.4126300000000 1.0
C      1  0.5564030000000  0.5509510000000  0.4242550000000 1.0
C      1  0.5558280000000  0.5933320000000  0.4923860000000 1.0
C      1  0.5277510000000  0.3883790000000  0.4578200000000 1.0
C      1  0.5284170000000  0.4638300000000  0.3858880000000 1.0
C      1  0.5175780000000  0.5603700000000  0.3928650000000 1.0
C      1  0.5293210000000  0.6227860000000  0.4876880000000 1.0
C      1  0.5196170000000  0.5911010000000  0.5843450000000 1.0
C      1  0.5285890000000  0.4825490000000  0.6176120000000 1.0
C      1  0.5168840000000  0.4010730000000  0.5705060000000 1.0
C      1  0.5027410000000  0.4124370000000  0.4930610000000 1.0
C      1  0.5030030000000  0.4525750000000  0.4267940000000 1.0
C      1  0.5029430000000  0.5287400000000  0.4174820000000 1.0
C      1  0.5030720000000  0.5865510000000  0.4669240000000 1.0
C      1  0.5039110000000  0.5777080000000  0.5455660000000 1.0
C      1  0.5045220000000  0.5149430000000  0.5880830000000 1.0
C      1  0.5046070000000  0.4385060000000  0.5638680000000 1.0
C      1  0.6102800000000  0.5243030000000  0.5347990000000 1.0
C      1  0.6112380000000  0.4904240000000  0.5386750000000 1.0
C      1  0.6111130000000  0.4646750000000  0.5162880000000 1.0
C      1  0.6098970000000  0.4664480000000  0.4822730000000 1.0
C      1  0.6070340000000  0.4949880000000  0.4637820000000 1.0
C      1  0.6066540000000  0.5275260000000  0.4736610000000 1.0
C      1  0.6101820000000  0.5406260000000  0.5049410000000 1.0
C      1  0.4727090000000  0.5581330000000  0.4310210000000 1.0
C      1  0.4806810000000  0.5928940000000  0.4990740000000 1.0
C      1  0.4731030000000  0.5582760000000  0.5721920000000 1.0
C      1  0.4803550000000  0.4806360000000  0.5929200000000 1.0
C      1  0.4683960000000  0.4235940000000  0.5369210000000 1.0
C      1  0.4760570000000  0.4176810000000  0.4584560000000 1.0
C      1  0.4776760000000  0.4808990000000  0.4104220000000 1.0
C      1  0.5037840000000  0.5029760000000  0.5024930000000 1.0
C      1  0.4517310000000  0.4941000000000  0.4986390000000 1.0
C      1  0.4774580000000  0.5011860000000  0.5009770000000 1.0
C      1  0.4200830000000  0.4984340000000  0.5019210000000 1.0
END
