TITL C-2782234-8014-1189 -0.00128834041005349 125000 -734.876077261377 0 0 130 (C1) n - 1
REM
REM in /home/nfs/bkarasulu/CARBON/AIRSS/Generating-Clusters/REBO/Higher-Symm/SD-CG/HFTN-CG
REM
REM
REM
REM
REM
REM ./C.cell (12c818d87b63d06a65506943cc24bca4)
REM
REM compiler GCC version 9.2.1 20190827 (Red Hat 9.2.1-1)
REM options -cpp -mtune=generic -march=x86-64 -g -O0 -fpre-include=/usr/include/finclude/math-vector-fortran.h
REM seed -639849069 -1559124017 1308002003 843330729 -340194414 236850089 -231170611 -2017633332 -1061397582 -730170796 1972756676 -1735336287 341609215 1283656033 -872403611 -1831604071 649450468 903631200 887714739 -436459319 -1337069957 -23355382 202845607 -1797609896 -708882671 1142521881 -242175109 -1909512443 1162823049 1419357640 368388549 945285181 996387394
REM
CELL 1.54180   50.00000   50.00000   50.00000   90.00000   90.00000   90.00000
LATT -1
SFAC C  
C      1  0.4522240000000  0.4449700000000  0.4617120000000 1.0
C      1  0.4550790000000  0.4929690000000  0.5618630000000 1.0
C      1  0.4531350000000  0.5568530000000  0.4753310000000 1.0
C      1  0.5462550000000  0.4466810000000  0.4616890000000 1.0
C      1  0.5461330000000  0.4957070000000  0.5608120000000 1.0
C      1  0.5466030000000  0.5573240000000  0.4774340000000 1.0
C      1  0.5430320000000  0.5312820000000  0.5300890000000 1.0
C      1  0.5426750000000  0.5101130000000  0.4602250000000 1.0
C      1  0.5439840000000  0.4604810000000  0.5132010000000 1.0
C      1  0.4552140000000  0.5299750000000  0.5288760000000 1.0
C      1  0.4561660000000  0.5098800000000  0.4591180000000 1.0
C      1  0.4542520000000  0.4598740000000  0.5126650000000 1.0
C      1  0.4680540000000  0.4127470000000  0.5055570000000 1.0
C      1  0.4701930000000  0.5485660000000  0.5723840000000 1.0
C      1  0.4699370000000  0.5378930000000  0.4236850000000 1.0
C      1  0.5293490000000  0.4137200000000  0.5054770000000 1.0
C      1  0.5312560000000  0.5499220000000  0.5709360000000 1.0
C      1  0.5304130000000  0.5432630000000  0.4246220000000 1.0
C      1  0.4151410000000  0.5224340000000  0.4767130000000 1.0
C      1  0.4180090000000  0.4702180000000  0.4937360000000 1.0
C      1  0.4175910000000  0.5102180000000  0.5270310000000 1.0
C      1  0.5834690000000  0.5211630000000  0.4776090000000 1.0
C      1  0.5819190000000  0.4716860000000  0.4954160000000 1.0
C      1  0.5819340000000  0.5112820000000  0.5283920000000 1.0
C      1  0.5914790000000  0.5499620000000  0.4882980000000 1.0
C      1  0.5891620000000  0.4668520000000  0.4641850000000 1.0
C      1  0.5908380000000  0.4859630000000  0.5460510000000 1.0
C      1  0.4065240000000  0.5498250000000  0.4908240000000 1.0
C      1  0.4080360000000  0.4665790000000  0.4633890000000 1.0
C      1  0.4114530000000  0.4842140000000  0.5457290000000 1.0
C      1  0.5566770000000  0.5388900000000  0.4542560000000 1.0
C      1  0.5573650000000  0.4410390000000  0.4895800000000 1.0
C      1  0.5582250000000  0.5235600000000  0.5578330000000 1.0
C      1  0.4424230000000  0.5389960000000  0.4529210000000 1.0
C      1  0.4420110000000  0.4386450000000  0.4900110000000 1.0
C      1  0.4423510000000  0.5197230000000  0.5565650000000 1.0
C      1  0.5623090000000  0.4879280000000  0.5181220000000 1.0
C      1  0.5631650000000  0.5250550000000  0.5033170000000 1.0
C      1  0.5634880000000  0.4936750000000  0.4788530000000 1.0
C      1  0.4375240000000  0.4874410000000  0.5156930000000 1.0
C      1  0.4356480000000  0.5247860000000  0.5018910000000 1.0
C      1  0.4338610000000  0.4940120000000  0.4766890000000 1.0
C      1  0.4663750000000  0.5697840000000  0.4352670000000 1.0
C      1  0.4662470000000  0.4089800000000  0.4717980000000 1.0
C      1  0.4718660000000  0.5235630000000  0.5954860000000 1.0
C      1  0.5310890000000  0.5754380000000  0.4351640000000 1.0
C      1  0.5279200000000  0.4040020000000  0.4728600000000 1.0
C      1  0.5336080000000  0.5211530000000  0.5889700000000 1.0
C      1  0.4856320000000  0.4428310000000  0.5768270000000 1.0
C      1  0.4805690000000  0.5964660000000  0.5135210000000 1.0
C      1  0.4818180000000  0.4625210000000  0.4109490000000 1.0
C      1  0.5194540000000  0.4417100000000  0.5754980000000 1.0
C      1  0.5141940000000  0.5971500000000  0.5126210000000 1.0
C      1  0.5154770000000  0.4601980000000  0.4117540000000 1.0
C      1  0.4707420000000  0.5836440000000  0.4645040000000 1.0
C      1  0.4700610000000  0.4236420000000  0.4436250000000 1.0
C      1  0.4685940000000  0.4932020000000  0.5904000000000 1.0
C      1  0.5350690000000  0.5847320000000  0.4643890000000 1.0
C      1  0.5324170000000  0.4222720000000  0.4483930000000 1.0
C      1  0.5310470000000  0.4896030000000  0.5906620000000 1.0
C      1  0.4710010000000  0.4647360000000  0.4411020000000 1.0
C      1  0.4765920000000  0.4672570000000  0.5574400000000 1.0
C      1  0.4705580000000  0.5686080000000  0.5018220000000 1.0
C      1  0.5248280000000  0.4648660000000  0.4423660000000 1.0
C      1  0.5281360000000  0.4670240000000  0.5573420000000 1.0
C      1  0.5245020000000  0.5688510000000  0.5007840000000 1.0
C      1  0.5174850000000  0.4291520000000  0.4260020000000 1.0
C      1  0.5136120000000  0.4681220000000  0.5944690000000 1.0
C      1  0.5178540000000  0.6014050000000  0.4788420000000 1.0
C      1  0.4878630000000  0.4327390000000  0.4242110000000 1.0
C      1  0.4838330000000  0.4707800000000  0.5965450000000 1.0
C      1  0.4879420000000  0.5980150000000  0.4812590000000 1.0
C      1  0.4893760000000  0.5938030000000  0.5437190000000 1.0
C      1  0.4921960000000  0.4906530000000  0.4006930000000 1.0
C      1  0.4772860000000  0.4150240000000  0.5605520000000 1.0
C      1  0.5218420000000  0.5969780000000  0.5450050000000 1.0
C      1  0.5246990000000  0.4903820000000  0.3996430000000 1.0
C      1  0.5098110000000  0.4171130000000  0.5582310000000 1.0
C      1  0.4676900000000  0.5303710000000  0.4913860000000 1.0
C      1  0.4600910000000  0.4741670000000  0.4763890000000 1.0
C      1  0.4679080000000  0.4924850000000  0.5302080000000 1.0
C      1  0.5312620000000  0.5307020000000  0.4923910000000 1.0
C      1  0.5371560000000  0.4746150000000  0.4770810000000 1.0
C      1  0.5309750000000  0.4935820000000  0.5301760000000 1.0
C      1  0.4434590000000  0.5212860000000  0.4233440000000 1.0
C      1  0.4424070000000  0.4230880000000  0.5210810000000 1.0
C      1  0.4434250000000  0.5539890000000  0.5581740000000 1.0
C      1  0.5543270000000  0.5215590000000  0.4241670000000 1.0
C      1  0.5559600000000  0.4229900000000  0.5185190000000 1.0
C      1  0.5571940000000  0.5580490000000  0.5556680000000 1.0
C      1  0.5805800000000  0.5419560000000  0.5381720000000 1.0
C      1  0.5795590000000  0.5141740000000  0.4457530000000 1.0
C      1  0.5809350000000  0.4457040000000  0.5148620000000 1.0
C      1  0.4183880000000  0.5395990000000  0.5406650000000 1.0
C      1  0.4189990000000  0.5142100000000  0.4453930000000 1.0
C      1  0.4172930000000  0.4446950000000  0.5131690000000 1.0
C      1  0.5145120000000  0.4338330000000  0.4822090000000 1.0
C      1  0.5157950000000  0.5212750000000  0.5609490000000 1.0
C      1  0.5150700000000  0.5518610000000  0.4537840000000 1.0
C      1  0.4832610000000  0.4347820000000  0.4844890000000 1.0
C      1  0.4851560000000  0.5188990000000  0.5646670000000 1.0
C      1  0.4844880000000  0.5480840000000  0.4526840000000 1.0
C      1  0.5515470000000  0.4476960000000  0.5418840000000 1.0
C      1  0.5499090000000  0.5620400000000  0.5222430000000 1.0
C      1  0.5468220000000  0.4899180000000  0.4355280000000 1.0
C      1  0.4537180000000  0.4474220000000  0.5425790000000 1.0
C      1  0.4480770000000  0.5611330000000  0.5248220000000 1.0
C      1  0.4486850000000  0.4894160000000  0.4352910000000 1.0
C      1  0.4845520000000  0.5188110000000  0.5186890000000 1.0
C      1  0.4832400000000  0.5126930000000  0.4707340000000 1.0
C      1  0.4820190000000  0.4705350000000  0.5022950000000 1.0
C      1  0.5139470000000  0.5192670000000  0.5193430000000 1.0
C      1  0.5152420000000  0.5140030000000  0.4711500000000 1.0
C      1  0.5160560000000  0.4705520000000  0.5035820000000 1.0
C      1  0.5810640000000  0.5604660000000  0.5113710000000 1.0
C      1  0.5786640000000  0.4818310000000  0.4435660000000 1.0
C      1  0.5824970000000  0.4597880000000  0.5443280000000 1.0
C      1  0.4165680000000  0.5594250000000  0.5145740000000 1.0
C      1  0.4171920000000  0.4818640000000  0.4424480000000 1.0
C      1  0.4218000000000  0.4588050000000  0.5420770000000 1.0
C      1  0.4879240000000  0.5207060000000  0.4071660000000 1.0
C      1  0.4831360000000  0.4058880000000  0.5310730000000 1.0
C      1  0.4860810000000  0.5730410000000  0.5671940000000 1.0
C      1  0.5179750000000  0.5200630000000  0.4076120000000 1.0
C      1  0.5128080000000  0.4065720000000  0.5290210000000 1.0
C      1  0.5157160000000  0.5753870000000  0.5669450000000 1.0
C      1  0.5023120000000  0.4898320000000  0.5574430000000 1.0
C      1  0.4972950000000  0.5588260000000  0.4826320000000 1.0
C      1  0.4975740000000  0.4542710000000  0.4601820000000 1.0
C      1  0.4997940000000  0.4879960000000  0.4813530000000 1.0
END
