TITL C-2782235-7892-1096 0.00169117119333344 125000 -1001.92085765752 0 0 170 (C1) n - 1
REM
REM in /home/nfs/bkarasulu/CARBON/AIRSS/Generating-Clusters/REBO/Higher-Symm/SD-CG/HFTN-CG
REM
REM
REM
REM
REM
REM ./C.cell (12c818d87b63d06a65506943cc24bca4)
REM
REM compiler GCC version 9.2.1 20190827 (Red Hat 9.2.1-1)
REM options -cpp -mtune=generic -march=x86-64 -g -O0 -fpre-include=/usr/include/finclude/math-vector-fortran.h
REM seed 1587975764 -1095303837 1094154964 237787753 1673838353 481372414 501629992 418366527 541586703 -229934486 -1945691479 812997347 233766255 1108728517 1201961410 1652241937 1240242297 435719340 -1296591851 883214497 -614966928 1451218484 2063281696 559995120 1097916038 1448577272 1764698454 -859755543 -784832261 872872563 -306245551 908768649 260865775
REM
CELL 1.54180   50.00000   50.00000   50.00000   90.00000   90.00000   90.00000
LATT -1
SFAC C  
C      1  0.4712430000000  0.5716820000000  0.3826040000000 1.0
C      1  0.6027680000000  0.5903460000000  0.5200830000000 1.0
C      1  0.5154850000000  0.5946510000000  0.6190040000000 1.0
C      1  0.3855700000000  0.5943040000000  0.5045580000000 1.0
C      1  0.5210890000000  0.4118580000000  0.4124110000000 1.0
C      1  0.3785410000000  0.4109910000000  0.4967120000000 1.0
C      1  0.4848220000000  0.4287000000000  0.5601620000000 1.0
C      1  0.5648770000000  0.4255950000000  0.5227970000000 1.0
C      1  0.4336890000000  0.5268750000000  0.4909080000000 1.0
C      1  0.5134380000000  0.5299500000000  0.4504530000000 1.0
C      1  0.5615310000000  0.5186530000000  0.5265260000000 1.0
C      1  0.4818470000000  0.5194510000000  0.5682890000000 1.0
C      1  0.5526220000000  0.4836900000000  0.4670700000000 1.0
C      1  0.4835750000000  0.4897780000000  0.4373470000000 1.0
C      1  0.4365200000000  0.4684070000000  0.5176180000000 1.0
C      1  0.5126700000000  0.4842830000000  0.5590890000000 1.0
C      1  0.5561240000000  0.4393730000000  0.4405150000000 1.0
C      1  0.5509290000000  0.4410600000000  0.5491120000000 1.0
C      1  0.4556360000000  0.4354060000000  0.5296300000000 1.0
C      1  0.4551820000000  0.4422850000000  0.4533520000000 1.0
C      1  0.4537190000000  0.5563680000000  0.4592500000000 1.0
C      1  0.4503350000000  0.5601110000000  0.5464720000000 1.0
C      1  0.5602520000000  0.5650730000000  0.5348900000000 1.0
C      1  0.5495150000000  0.5646770000000  0.4446920000000 1.0
C      1  0.4840260000000  0.4164000000000  0.5294590000000 1.0
C      1  0.4696910000000  0.4128450000000  0.4628100000000 1.0
C      1  0.5338820000000  0.4158550000000  0.4427400000000 1.0
C      1  0.5453160000000  0.4106340000000  0.5075140000000 1.0
C      1  0.5337640000000  0.5829220000000  0.5226670000000 1.0
C      1  0.5247970000000  0.5828340000000  0.4597070000000 1.0
C      1  0.4576510000000  0.5888350000000  0.4682410000000 1.0
C      1  0.4700720000000  0.5824990000000  0.5316710000000 1.0
C      1  0.3947060000000  0.4794390000000  0.5612790000000 1.0
C      1  0.4347700000000  0.4621320000000  0.3936450000000 1.0
C      1  0.6410640000000  0.4679380000000  0.4604050000000 1.0
C      1  0.5377310000000  0.4703540000000  0.6304590000000 1.0
C      1  0.6490850000000  0.5211830000000  0.5516740000000 1.0
C      1  0.5475890000000  0.5160420000000  0.4024530000000 1.0
C      1  0.4013090000000  0.5232600000000  0.4398590000000 1.0
C      1  0.4445160000000  0.5457690000000  0.6165470000000 1.0
C      1  0.5071290000000  0.5739350000000  0.6044710000000 1.0
C      1  0.3944360000000  0.5687330000000  0.5005740000000 1.0
C      1  0.4845650000000  0.5532790000000  0.3965890000000 1.0
C      1  0.6003930000000  0.5633900000000  0.5207930000000 1.0
C      1  0.4903460000000  0.4459490000000  0.5804750000000 1.0
C      1  0.5883460000000  0.4371350000000  0.5107720000000 1.0
C      1  0.5015820000000  0.4280480000000  0.3996850000000 1.0
C      1  0.3925570000000  0.4335000000000  0.5023050000000 1.0
C      1  0.5126720000000  0.5486950000000  0.4058820000000 1.0
C      1  0.6068170000000  0.5447130000000  0.5468870000000 1.0
C      1  0.4810710000000  0.5642930000000  0.5913320000000 1.0
C      1  0.4033080000000  0.5605650000000  0.4712420000000 1.0
C      1  0.4720270000000  0.4334390000000  0.4063670000000 1.0
C      1  0.4008560000000  0.4425060000000  0.5314210000000 1.0
C      1  0.5158180000000  0.4526400000000  0.5913670000000 1.0
C      1  0.6043690000000  0.4440710000000  0.4820050000000 1.0
C      1  0.5035520000000  0.4609130000000  0.5181160000000 1.0
C      1  0.4739860000000  0.4734170000000  0.4885460000000 1.0
C      1  0.5116520000000  0.4586650000000  0.4595110000000 1.0
C      1  0.5389720000000  0.4552410000000  0.5006260000000 1.0
C      1  0.5215710000000  0.5329330000000  0.5473080000000 1.0
C      1  0.5373860000000  0.5374400000000  0.4899490000000 1.0
C      1  0.4832640000000  0.5354120000000  0.4760780000000 1.0
C      1  0.4779570000000  0.5377500000000  0.5156970000000 1.0
C      1  0.5402450000000  0.5366730000000  0.4602640000000 1.0
C      1  0.5478710000000  0.5182120000000  0.5537540000000 1.0
C      1  0.4641110000000  0.5289280000000  0.5462420000000 1.0
C      1  0.4557320000000  0.5174530000000  0.4668770000000 1.0
C      1  0.4625890000000  0.4887310000000  0.4603760000000 1.0
C      1  0.4421880000000  0.4617740000000  0.5463330000000 1.0
C      1  0.5406120000000  0.4896950000000  0.5630070000000 1.0
C      1  0.5380490000000  0.4658430000000  0.4480250000000 1.0
C      1  0.5164680000000  0.5466370000000  0.5958960000000 1.0
C      1  0.3905970000000  0.5469980000000  0.5251610000000 1.0
C      1  0.4788510000000  0.5281130000000  0.4107830000000 1.0
C      1  0.6020270000000  0.5419420000000  0.4954120000000 1.0
C      1  0.4721490000000  0.4688140000000  0.5843880000000 1.0
C      1  0.5866250000000  0.4679790000000  0.5085020000000 1.0
C      1  0.5034330000000  0.4577950000000  0.4027370000000 1.0
C      1  0.3954190000000  0.4595790000000  0.4836830000000 1.0
C      1  0.4896990000000  0.4928590000000  0.5740050000000 1.0
C      1  0.4216890000000  0.4526540000000  0.4992540000000 1.0
C      1  0.4911340000000  0.4661380000000  0.4260280000000 1.0
C      1  0.5725120000000  0.4678860000000  0.4831990000000 1.0
C      1  0.5035710000000  0.5371940000000  0.5724030000000 1.0
C      1  0.5810760000000  0.5353390000000  0.5182010000000 1.0
C      1  0.4939640000000  0.5152980000000  0.4302450000000 1.0
C      1  0.4142730000000  0.5403280000000  0.5034540000000 1.0
C      1  0.5606710000000  0.4734270000000  0.3889050000000 1.0
C      1  0.5864700000000  0.4773350000000  0.5553100000000 1.0
C      1  0.4313430000000  0.4962680000000  0.5837080000000 1.0
C      1  0.4166730000000  0.4792620000000  0.4481350000000 1.0
C      1  0.4230990000000  0.5213800000000  0.4245340000000 1.0
C      1  0.4162840000000  0.5125850000000  0.5671330000000 1.0
C      1  0.5577070000000  0.5253540000000  0.6009240000000 1.0
C      1  0.5930190000000  0.5247950000000  0.4528860000000 1.0
C      1  0.4743190000000  0.4897260000000  0.3985060000000 1.0
C      1  0.6174210000000  0.4976420000000  0.4910110000000 1.0
C      1  0.5085150000000  0.5030490000000  0.6101610000000 1.0
C      1  0.3992310000000  0.4973920000000  0.5165000000000 1.0
C      1  0.5029460000000  0.4971800000000  0.3958540000000 1.0
C      1  0.3977350000000  0.5067310000000  0.4862270000000 1.0
C      1  0.4797820000000  0.5137270000000  0.6077580000000 1.0
C      1  0.6163260000000  0.5016650000000  0.5208100000000 1.0
C      1  0.4593040000000  0.4949990000000  0.5997450000000 1.0
C      1  0.3976360000000  0.4826450000000  0.4689590000000 1.0
C      1  0.5272140000000  0.4746850000000  0.3941250000000 1.0
C      1  0.5975910000000  0.4827000000000  0.5301700000000 1.0
C      1  0.5297200000000  0.5243410000000  0.6084660000000 1.0
C      1  0.6071290000000  0.5210980000000  0.4772410000000 1.0
C      1  0.4517310000000  0.5129100000000  0.4094030000000 1.0
C      1  0.4036410000000  0.5207250000000  0.5365510000000 1.0
C      1  0.4610880000000  0.4193690000000  0.4298610000000 1.0
C      1  0.5842050000000  0.4383220000000  0.4596680000000 1.0
C      1  0.5386450000000  0.4414450000000  0.5787320000000 1.0
C      1  0.4236880000000  0.4276580000000  0.5383870000000 1.0
C      1  0.5192910000000  0.5641780000000  0.4308350000000 1.0
C      1  0.4269030000000  0.5746990000000  0.4621060000000 1.0
C      1  0.4788610000000  0.5681600000000  0.5619210000000 1.0
C      1  0.5775440000000  0.5519340000000  0.5543930000000 1.0
C      1  0.4746510000000  0.6163460000000  0.5010250000000 1.0
C      1  0.4948080000000  0.6159520000000  0.4777210000000 1.0
C      1  0.5215330000000  0.6163160000000  0.4935430000000 1.0
C      1  0.5011810000000  0.6145540000000  0.5169100000000 1.0
C      1  0.5255810000000  0.3839980000000  0.4792160000000 1.0
C      1  0.4998680000000  0.3855880000000  0.4615660000000 1.0
C      1  0.4873300000000  0.3865640000000  0.4895250000000 1.0
C      1  0.5128880000000  0.3837040000000  0.5071730000000 1.0
C      1  0.5367440000000  0.5893750000000  0.4888720000000 1.0
C      1  0.5040770000000  0.5867780000000  0.5321780000000 1.0
C      1  0.4597210000000  0.5887280000000  0.5023600000000 1.0
C      1  0.4909480000000  0.5892700000000  0.4605530000000 1.0
C      1  0.4731830000000  0.4141980000000  0.4966510000000 1.0
C      1  0.5152340000000  0.4105900000000  0.5234430000000 1.0
C      1  0.5438450000000  0.4091330000000  0.4736010000000 1.0
C      1  0.5000400000000  0.4132230000000  0.4461880000000 1.0
C      1  0.4949040000000  0.5575920000000  0.4530730000000 1.0
C      1  0.5494060000000  0.5615170000000  0.5026420000000 1.0
C      1  0.4981300000000  0.5548130000000  0.5372580000000 1.0
C      1  0.4638390000000  0.5579630000000  0.4922220000000 1.0
C      1  0.4885380000000  0.4431530000000  0.4456850000000 1.0
C      1  0.4762330000000  0.4465910000000  0.5048880000000 1.0
C      1  0.5280030000000  0.4403410000000  0.5274630000000 1.0
C      1  0.5579170000000  0.4370620000000  0.4803680000000 1.0
C      1  0.3980130000000  0.4722780000000  0.5345970000000 1.0
C      1  0.4619860000000  0.4617700000000  0.3989990000000 1.0
C      1  0.6207710000000  0.4697460000000  0.4790540000000 1.0
C      1  0.5191270000000  0.4750560000000  0.6106310000000 1.0
C      1  0.6242580000000  0.5225610000000  0.5403450000000 1.0
C      1  0.5206430000000  0.5213340000000  0.4010690000000 1.0
C      1  0.3991040000000  0.5311830000000  0.4675960000000 1.0
C      1  0.4694280000000  0.5415740000000  0.6056710000000 1.0
C      1  0.5089600000000  0.5141550000000  0.5243720000000 1.0
C      1  0.4556970000000  0.5144850000000  0.5067130000000 1.0
C      1  0.5011350000000  0.5071060000000  0.4686720000000 1.0
C      1  0.5442210000000  0.5117020000000  0.5057030000000 1.0
C      1  0.5064430000000  0.4870890000000  0.5310380000000 1.0
C      1  0.5398150000000  0.4870340000000  0.4950560000000 1.0
C      1  0.4994090000000  0.4821450000000  0.4740680000000 1.0
C      1  0.4552480000000  0.4871110000000  0.5074220000000 1.0
C      1  0.5645500000000  0.5333920000000  0.5742160000000 1.0
C      1  0.4319780000000  0.5332940000000  0.5477350000000 1.0
C      1  0.4505790000000  0.5319000000000  0.4386830000000 1.0
C      1  0.5707370000000  0.5382180000000  0.4471270000000 1.0
C      1  0.4441040000000  0.4717030000000  0.5712730000000 1.0
C      1  0.5598240000000  0.4696780000000  0.5599150000000 1.0
C      1  0.5494000000000  0.4633190000000  0.4173260000000 1.0
C      1  0.4414390000000  0.4686930000000  0.4520200000000 1.0
C      1  0.5079260000000  0.5318400000000  0.4993080000000 1.0
C      1  0.5106620000000  0.4465940000000  0.4883060000000 1.0
END
