TITL C-2782234-8014-1308 -0.00280822966234017 125000 -144.876867067526 0 0 25 (C3) n - 1
REM
REM in /home/nfs/bkarasulu/CARBON/AIRSS/Generating-Clusters/REBO/Higher-Symm/SD-CG/HFTN-CG
REM
REM
REM
REM
REM
REM ./C.cell (12c818d87b63d06a65506943cc24bca4)
REM
REM compiler GCC version 9.2.1 20190827 (Red Hat 9.2.1-1)
REM options -cpp -mtune=generic -march=x86-64 -g -O0 -fpre-include=/usr/include/finclude/math-vector-fortran.h
REM seed 389838350 2070823686 626986246 1166141111 -2137748504 -810871217 -871029873 -2023339102 -737775783 1311993314 917848555 1629826360 -1032691641 -494432609 190209634 856901475 -1093058924 -784551972 1332492949 -351413264 1364020162 -793433626 249148513 -1619712204 -404067313 -1159009398 -235550998 1644143600 -2059946832 -1535422758 1428194878 2064356851 735987439
REM
CELL 1.54180   50.00000   50.00000   50.00000   90.00000   90.00000   90.00000
LATT -1
SFAC C  
C      1  0.4718020000000  0.5112920000000  0.5456790000000 1.0
C      1  0.4725650000000  0.5376380000000  0.4693060000000 1.0
C      1  0.4716730000000  0.4583240000000  0.4846710000000 1.0
C      1  0.5176020000000  0.5287220000000  0.5518640000000 1.0
C      1  0.5183090000000  0.5333360000000  0.4511730000000 1.0
C      1  0.5171120000000  0.4438300000000  0.4975170000000 1.0
C      1  0.4638760000000  0.4954640000000  0.5184320000000 1.0
C      1  0.4642850000000  0.5221210000000  0.4966260000000 1.0
C      1  0.4640430000000  0.4899070000000  0.4844420000000 1.0
C      1  0.5226380000000  0.4610590000000  0.4707260000000 1.0
C      1  0.5224720000000  0.4967990000000  0.5503420000000 1.0
C      1  0.5234460000000  0.5478740000000  0.4795870000000 1.0
C      1  0.5238230000000  0.5309560000000  0.5029720000000 1.0
C      1  0.5236040000000  0.4897560000000  0.4736880000000 1.0
C      1  0.5232260000000  0.4849990000000  0.5240100000000 1.0
C      1  0.5067120000000  0.4614070000000  0.5191140000000 1.0
C      1  0.5074400000000  0.5388510000000  0.5258320000000 1.0
C      1  0.5075740000000  0.5059420000000  0.4554030000000 1.0
C      1  0.4792300000000  0.5080400000000  0.4626150000000 1.0
C      1  0.4784880000000  0.4671870000000  0.5136570000000 1.0
C      1  0.4790680000000  0.5318190000000  0.5235190000000 1.0
C      1  0.4944880000000  0.4442820000000  0.4737090000000 1.0
C      1  0.4945390000000  0.5083490000000  0.5633470000000 1.0
C      1  0.4956520000000  0.5539380000000  0.4630490000000 1.0
C      1  0.5275440000000  0.5018640000000  0.5002490000000 1.0
END
