TITL C-2782225-7408-1386 4.17222658383212e-08 125000 -31.7216838160698 0 0 6 (D6h) n - 1
REM
REM in /home/nfs/bkarasulu/CARBON/AIRSS/Generating-Clusters/REBO/Higher-Symm/SD-CG/HFTN-CG
REM
REM
REM
REM
REM
REM ./C.cell (12c818d87b63d06a65506943cc24bca4)
REM
REM compiler GCC version 9.2.1 20190827 (Red Hat 9.2.1-1)
REM options -cpp -mtune=generic -march=x86-64 -g -O0 -fpre-include=/usr/include/finclude/math-vector-fortran.h
REM seed 724701979 1893476533 -1495385332 1025034423 -1842121728 -82305837 -1878931589 -2088661593 -1546997550 -1663432406 -1837695926 -1010685277 441180326 -595166614 -2136817141 -564602319 -2014269078 1260570564 792062840 735667039 -1369033658 -1900871238 -154969706 1067047942 -1506888113 2038427117 -1381955507 786272770 472102213 700265472 1670230627 -781446058 -352901945
REM
CELL 1.54180   50.00000   50.00000   50.00000   90.00000   90.00000   90.00000
LATT -1
SFAC C  
C      1  0.4826340000000  0.5243510000000  0.5000000000000 1.0
C      1  0.4817360000000  0.4761670000000  0.5000000000000 1.0
C      1  0.5104520000000  0.5238330000000  0.5000000000000 1.0
C      1  0.5095550000000  0.4756490000000  0.5000000000000 1.0
C      1  0.4682760000000  0.5005180000000  0.5000000000000 1.0
C      1  0.5239130000000  0.4994820000000  0.5000000000000 1.0
END
