TITL C-2782225-7408-832 -0.00350931979772192 125000 -211.448535773974 0 0 36 (S4) n - 1
REM
REM in /home/nfs/bkarasulu/CARBON/AIRSS/Generating-Clusters/REBO/Higher-Symm/SD-CG/HFTN-CG
REM
REM
REM
REM
REM
REM ./C.cell (12c818d87b63d06a65506943cc24bca4)
REM
REM compiler GCC version 9.2.1 20190827 (Red Hat 9.2.1-1)
REM options -cpp -mtune=generic -march=x86-64 -g -O0 -fpre-include=/usr/include/finclude/math-vector-fortran.h
REM seed -869363017 761072188 -1232728686 -2096330997 2011924410 1022124922 834476594 1841540154 -983757504 -1641128212 -1153082481 -71901594 -213483949 -368607041 -717280950 409644180 -717616591 815876958 -1487911361 651254528 -1937469288 -913265431 936806241 1908889053 744158464 -995811924 -703922207 -966984091 -1641172087 -351066903 -1477746562 1256798542 -576389338
REM
CELL 1.54180   50.00000   50.00000   50.00000   90.00000   90.00000   90.00000
LATT -1
SFAC C  
C      1  0.5352120000000  0.5139820000000  0.5251010000000 1.0
C      1  0.4747200000000  0.4856080000000  0.5349180000000 1.0
C      1  0.4652680000000  0.5153350000000  0.4750190000000 1.0
C      1  0.5248000000000  0.4850750000000  0.4649620000000 1.0
C      1  0.4770870000000  0.5403560000000  0.4837490000000 1.0
C      1  0.5157610000000  0.4599260000000  0.4762650000000 1.0
C      1  0.5242210000000  0.5394480000000  0.5165800000000 1.0
C      1  0.4829310000000  0.4602700000000  0.5234070000000 1.0
C      1  0.5219560000000  0.5418770000000  0.4493250000000 1.0
C      1  0.5501520000000  0.4570630000000  0.5210940000000 1.0
C      1  0.4794210000000  0.5421560000000  0.5510210000000 1.0
C      1  0.4484710000000  0.4589040000000  0.4785600000000 1.0
C      1  0.5108400000000  0.4531700000000  0.5263380000000 1.0
C      1  0.4742350000000  0.5469170000000  0.5117970000000 1.0
C      1  0.4876350000000  0.4537690000000  0.4732790000000 1.0
C      1  0.5272900000000  0.5461430000000  0.4885860000000 1.0
C      1  0.5011130000000  0.5497640000000  0.4715780000000 1.0
C      1  0.5278090000000  0.4498790000000  0.5000930000000 1.0
C      1  0.5005150000000  0.5495380000000  0.5288300000000 1.0
C      1  0.4705640000000  0.4508190000000  0.4994990000000 1.0
C      1  0.5503670000000  0.4998530000000  0.5049690000000 1.0
C      1  0.4950200000000  0.4991760000000  0.5503600000000 1.0
C      1  0.4496560000000  0.5015440000000  0.4950370000000 1.0
C      1  0.5049580000000  0.4994270000000  0.4496350000000 1.0
C      1  0.5314290000000  0.4693590000000  0.5434260000000 1.0
C      1  0.4569450000000  0.5305210000000  0.5320500000000 1.0
C      1  0.4675900000000  0.4707630000000  0.4563280000000 1.0
C      1  0.5440370000000  0.5293570000000  0.4681970000000 1.0
C      1  0.4547550000000  0.5030540000000  0.5232130000000 1.0
C      1  0.4767630000000  0.4981590000000  0.4547020000000 1.0
C      1  0.5453240000000  0.5017610000000  0.4768070000000 1.0
C      1  0.5231580000000  0.4970260000000  0.5452790000000 1.0
C      1  0.4216410000000  0.4580360000000  0.4799990000000 1.0
C      1  0.5205360000000  0.5433130000000  0.4225180000000 1.0
C      1  0.5769390000000  0.4553280000000  0.5196450000000 1.0
C      1  0.4808840000000  0.5433240000000  0.5778380000000 1.0
END
