TITL C-2782232-2968-646 0.00281336302920856 125000 -809.846079747945 0 0 142 (C1) n - 1
REM
REM in /home/nfs/bkarasulu/CARBON/AIRSS/Generating-Clusters/REBO/Higher-Symm/SD-CG/HFTN-CG
REM
REM
REM
REM
REM
REM ./C.cell (12c818d87b63d06a65506943cc24bca4)
REM
REM compiler GCC version 9.2.1 20190827 (Red Hat 9.2.1-1)
REM options -cpp -mtune=generic -march=x86-64 -g -O0 -fpre-include=/usr/include/finclude/math-vector-fortran.h
REM seed 2021035229 1739105883 -2106619183 1736981292 -1518416860 1348107411 592768479 -1274714889 -948718418 -81847683 -1110279757 -1014342735 166845895 -287779565 -1718966974 1820931601 -2090276363 789313415 823470625 1455724392 815381538 618769129 563788410 -1982229746 -1593608367 1698834016 1780912722 -691752546 2065527449 -1495153735 1747568433 1813320430 2020811586
REM
CELL 1.54180   50.00000   50.00000   50.00000   90.00000   90.00000   90.00000
LATT -1
SFAC C  
C      1  0.5890860000000  0.4478280000000  0.4909060000000 1.0
C      1  0.4486450000000  0.4914890000000  0.5886410000000 1.0
C      1  0.4886160000000  0.5928710000000  0.4505940000000 1.0
C      1  0.6027160000000  0.5563030000000  0.5163880000000 1.0
C      1  0.4149490000000  0.4351650000000  0.5162320000000 1.0
C      1  0.3941320000000  0.5590900000000  0.4658600000000 1.0
C      1  0.4446680000000  0.5305630000000  0.3922620000000 1.0
C      1  0.5590900000000  0.4820330000000  0.4019940000000 1.0
C      1  0.5560610000000  0.5094290000000  0.5929340000000 1.0
C      1  0.4908810000000  0.4158950000000  0.5543700000000 1.0
C      1  0.5333780000000  0.5980790000000  0.5614300000000 1.0
C      1  0.5211370000000  0.3945040000000  0.4476180000000 1.0
C      1  0.4090590000000  0.4961410000000  0.5495330000000 1.0
C      1  0.4945070000000  0.5459970000000  0.4081410000000 1.0
C      1  0.5430540000000  0.4082640000000  0.4986180000000 1.0
C      1  0.4149760000000  0.4992110000000  0.4520230000000 1.0
C      1  0.5831110000000  0.4996020000000  0.4493140000000 1.0
C      1  0.5896260000000  0.4947400000000  0.5480300000000 1.0
C      1  0.4997070000000  0.4523320000000  0.5954740000000 1.0
C      1  0.5016060000000  0.5492300000000  0.5782310000000 1.0
C      1  0.5005510000000  0.4556560000000  0.4212730000000 1.0
C      1  0.5441140000000  0.5803580000000  0.4995260000000 1.0
C      1  0.4544890000000  0.4120220000000  0.5020650000000 1.0
C      1  0.4467190000000  0.5812650000000  0.4989240000000 1.0
C      1  0.5376500000000  0.5290020000000  0.6029520000000 1.0
C      1  0.5298440000000  0.5902460000000  0.5352390000000 1.0
C      1  0.6032170000000  0.5319120000000  0.5285130000000 1.0
C      1  0.5343510000000  0.4729290000000  0.4091390000000 1.0
C      1  0.4653430000000  0.5495200000000  0.3923830000000 1.0
C      1  0.4665990000000  0.4730100000000  0.6011880000000 1.0
C      1  0.5388800000000  0.3952340000000  0.4686070000000 1.0
C      1  0.4675670000000  0.5973720000000  0.4693440000000 1.0
C      1  0.4736170000000  0.4034260000000  0.5353980000000 1.0
C      1  0.5953390000000  0.4661780000000  0.4697400000000 1.0
C      1  0.4043370000000  0.5338120000000  0.4674810000000 1.0
C      1  0.4104830000000  0.4615700000000  0.5286440000000 1.0
C      1  0.5603340000000  0.4564770000000  0.5281480000000 1.0
C      1  0.4542930000000  0.5277760000000  0.5728290000000 1.0
C      1  0.5255620000000  0.5627450000000  0.4553430000000 1.0
C      1  0.5715620000000  0.5439610000000  0.4740740000000 1.0
C      1  0.4299970000000  0.4554040000000  0.4727070000000 1.0
C      1  0.4310110000000  0.5379560000000  0.5278610000000 1.0
C      1  0.4577440000000  0.4775550000000  0.4371710000000 1.0
C      1  0.5425710000000  0.5309740000000  0.4366200000000 1.0
C      1  0.5413040000000  0.4754030000000  0.5725930000000 1.0
C      1  0.5256770000000  0.4398620000000  0.5436970000000 1.0
C      1  0.4720020000000  0.5660910000000  0.5399500000000 1.0
C      1  0.4763090000000  0.4400360000000  0.4656670000000 1.0
C      1  0.4691230000000  0.5449850000000  0.4840930000000 1.0
C      1  0.5459170000000  0.4909150000000  0.4713820000000 1.0
C      1  0.4930940000000  0.4693210000000  0.5553630000000 1.0
C      1  0.4780770000000  0.4471860000000  0.5054770000000 1.0
C      1  0.5248990000000  0.5458500000000  0.5201520000000 1.0
C      1  0.5290640000000  0.4475740000000  0.4868770000000 1.0
C      1  0.5552950000000  0.5076790000000  0.5325540000000 1.0
C      1  0.4468350000000  0.4967840000000  0.5313790000000 1.0
C      1  0.4515120000000  0.5172980000000  0.4748590000000 1.0
C      1  0.4872160000000  0.5355720000000  0.4458430000000 1.0
C      1  0.5191550000000  0.4802810000000  0.4536320000000 1.0
C      1  0.5186000000000  0.5285450000000  0.5487720000000 1.0
C      1  0.4775210000000  0.4530690000000  0.4387580000000 1.0
C      1  0.4487450000000  0.4312900000000  0.4789350000000 1.0
C      1  0.4300140000000  0.4730920000000  0.4462420000000 1.0
C      1  0.4737500000000  0.5542360000000  0.5677770000000 1.0
C      1  0.5225500000000  0.4483280000000  0.5733340000000 1.0
C      1  0.5229210000000  0.5553340000000  0.4244650000000 1.0
C      1  0.4444090000000  0.5648280000000  0.5237920000000 1.0
C      1  0.5516870000000  0.4262690000000  0.5263410000000 1.0
C      1  0.5515900000000  0.5671260000000  0.4735160000000 1.0
C      1  0.4279520000000  0.5222620000000  0.5556750000000 1.0
C      1  0.5667390000000  0.4733290000000  0.5547510000000 1.0
C      1  0.5707990000000  0.5292170000000  0.4458450000000 1.0
C      1  0.5070770000000  0.5401050000000  0.4727080000000 1.0
C      1  0.5438750000000  0.4725080000000  0.5048090000000 1.0
C      1  0.4690360000000  0.5140740000000  0.5461490000000 1.0
C      1  0.5145550000000  0.4679150000000  0.5311820000000 1.0
C      1  0.4887670000000  0.5377320000000  0.5345930000000 1.0
C      1  0.4926280000000  0.4692850000000  0.4720530000000 1.0
C      1  0.5523950000000  0.5397650000000  0.5026170000000 1.0
C      1  0.4538270000000  0.4679110000000  0.4936620000000 1.0
C      1  0.4571660000000  0.5291390000000  0.5112690000000 1.0
C      1  0.4699610000000  0.4932280000000  0.4631140000000 1.0
C      1  0.5287310000000  0.5179130000000  0.4615640000000 1.0
C      1  0.5315600000000  0.4909820000000  0.5455910000000 1.0
C      1  0.4447670000000  0.4867690000000  0.5623570000000 1.0
C      1  0.4890750000000  0.5683200000000  0.4401250000000 1.0
C      1  0.5628420000000  0.4414250000000  0.4912950000000 1.0
C      1  0.4437490000000  0.5189950000000  0.4183900000000 1.0
C      1  0.5791070000000  0.4847270000000  0.4201110000000 1.0
C      1  0.5590470000000  0.5106670000000  0.5664330000000 1.0
C      1  0.4844180000000  0.4412160000000  0.5609960000000 1.0
C      1  0.5470260000000  0.5790870000000  0.5759130000000 1.0
C      1  0.5140650000000  0.4226770000000  0.4394870000000 1.0
C      1  0.5775330000000  0.5624700000000  0.5086950000000 1.0
C      1  0.4466370000000  0.4475770000000  0.5178430000000 1.0
C      1  0.4114880000000  0.5762040000000  0.4532560000000 1.0
C      1  0.5130180000000  0.4263350000000  0.4703280000000 1.0
C      1  0.4201810000000  0.4850240000000  0.5130230000000 1.0
C      1  0.4706630000000  0.5139000000000  0.4275430000000 1.0
C      1  0.5086920000000  0.5759000000000  0.5169120000000 1.0
C      1  0.4918350000000  0.4173170000000  0.5144170000000 1.0
C      1  0.4836910000000  0.5746800000000  0.4858730000000 1.0
C      1  0.4199140000000  0.5159900000000  0.4879170000000 1.0
C      1  0.5763220000000  0.4853460000000  0.4859110000000 1.0
C      1  0.5833450000000  0.5131100000000  0.5134570000000 1.0
C      1  0.4880330000000  0.4882360000000  0.5831130000000 1.0
C      1  0.5186530000000  0.5132660000000  0.5794560000000 1.0
C      1  0.5145990000000  0.4928700000000  0.4220770000000 1.0
C      1  0.5175570000000  0.5222960000000  0.4167490000000 1.0
C      1  0.5196280000000  0.4170100000000  0.5209600000000 1.0
C      1  0.4103250000000  0.5150340000000  0.5208070000000 1.0
C      1  0.5177260000000  0.4818360000000  0.5936800000000 1.0
C      1  0.4852100000000  0.5193430000000  0.5823290000000 1.0
C      1  0.4842160000000  0.4858610000000  0.4173920000000 1.0
C      1  0.5146110000000  0.5777840000000  0.4833090000000 1.0
C      1  0.4842640000000  0.4141820000000  0.4839810000000 1.0
C      1  0.4765480000000  0.5864580000000  0.5154690000000 1.0
C      1  0.4163300000000  0.4830790000000  0.4821320000000 1.0
C      1  0.5854410000000  0.5154810000000  0.4798010000000 1.0
C      1  0.5806040000000  0.4802260000000  0.5182500000000 1.0
C      1  0.5543060000000  0.4233450000000  0.4675790000000 1.0
C      1  0.4217570000000  0.4648470000000  0.5574160000000 1.0
C      1  0.4644570000000  0.5594370000000  0.4232500000000 1.0
C      1  0.5547400000000  0.5703880000000  0.5302750000000 1.0
C      1  0.4462580000000  0.4193150000000  0.5349890000000 1.0
C      1  0.4399660000000  0.5820380000000  0.4669880000000 1.0
C      1  0.4245290000000  0.5286410000000  0.4412470000000 1.0
C      1  0.5789030000000  0.4639040000000  0.4439010000000 1.0
C      1  0.5827450000000  0.5280660000000  0.5532490000000 1.0
C      1  0.4670660000000  0.4439850000000  0.5873850000000 1.0
C      1  0.5322870000000  0.5507650000000  0.5804570000000 1.0
C      1  0.5319460000000  0.4447100000000  0.4245080000000 1.0
C      1  0.4972980000000  0.5405690000000  0.5022130000000 1.0
C      1  0.4974730000000  0.5054920000000  0.4558400000000 1.0
C      1  0.5051370000000  0.4637640000000  0.5032430000000 1.0
C      1  0.5460480000000  0.5063460000000  0.5012720000000 1.0
C      1  0.4988400000000  0.5011350000000  0.5469300000000 1.0
C      1  0.4562020000000  0.4965610000000  0.5005940000000 1.0
C      1  0.5589300000000  0.5520650000000  0.5583330000000 1.0
C      1  0.4439930000000  0.4395300000000  0.5624730000000 1.0
C      1  0.5575770000000  0.4415890000000  0.4429450000000 1.0
C      1  0.4387420000000  0.5596780000000  0.4408130000000 1.0
END
