TITL C-2782227-3064-592 0.00249644361689656 125000 -428.206476162354 0 0 80 (Th) n - 1
REM
REM in /home/nfs/bkarasulu/CARBON/AIRSS/Generating-Clusters/REBO/Higher-Symm/SD-CG/HFTN-CG
REM
REM
REM
REM
REM
REM ./C.cell (12c818d87b63d06a65506943cc24bca4)
REM
REM compiler GCC version 9.2.1 20190827 (Red Hat 9.2.1-1)
REM options -cpp -mtune=generic -march=x86-64 -g -O0 -fpre-include=/usr/include/finclude/math-vector-fortran.h
REM seed 902227638 -1202550153 402088231 -621367817 1457503294 -631337480 -1331865919 -182467612 -1659040359 -1112188280 249326421 -525424414 904686475 1165453798 624428917 -826839645 -849604964 885981540 -410277942 1760083944 -1635480316 -601995006 122849268 741449838 193048093 393607438 -7863670 244560789 -1783169108 1632975125 1713228861 -1739167241 258191318
REM
CELL 1.54180   50.00000   50.00000   50.00000   90.00000   90.00000   90.00000
LATT -1
SFAC C  
C      1  0.4562020000000  0.4292610000000  0.5292420000000 1.0
C      1  0.5287250000000  0.4569010000000  0.4290790000000 1.0
C      1  0.4285620000000  0.5294240000000  0.4567190000000 1.0
C      1  0.5434330000000  0.5717720000000  0.5292420000000 1.0
C      1  0.5434330000000  0.4292610000000  0.4714280000000 1.0
C      1  0.4562020000000  0.5717720000000  0.4714270000000 1.0
C      1  0.4709110000000  0.5441320000000  0.4290790000000 1.0
C      1  0.4709110000000  0.4569010000000  0.5715900000000 1.0
C      1  0.5287250000000  0.5441330000000  0.5715900000000 1.0
C      1  0.5710730000000  0.4716100000000  0.4567190000000 1.0
C      1  0.5710730000000  0.5294240000000  0.5439500000000 1.0
C      1  0.4285620000000  0.4716100000000  0.5439500000000 1.0
C      1  0.4562020000000  0.4292610000000  0.4714270000000 1.0
C      1  0.5287250000000  0.4569010000000  0.5715900000000 1.0
C      1  0.4285620000000  0.5294240000000  0.5439500000000 1.0
C      1  0.5434330000000  0.5717720000000  0.4714280000000 1.0
C      1  0.5434330000000  0.4292610000000  0.5292420000000 1.0
C      1  0.4562020000000  0.5717720000000  0.5292410000000 1.0
C      1  0.4709110000000  0.5441330000000  0.5715900000000 1.0
C      1  0.4709110000000  0.4569010000000  0.4290790000000 1.0
C      1  0.5287250000000  0.5441320000000  0.4290790000000 1.0
C      1  0.5710730000000  0.4716100000000  0.5439500000000 1.0
C      1  0.5710730000000  0.5294240000000  0.4567190000000 1.0
C      1  0.4285620000000  0.4716100000000  0.4567190000000 1.0
C      1  0.5158770000000  0.5631560000000  0.5474260000000 1.0
C      1  0.5469090000000  0.5165760000000  0.5629740000000 1.0
C      1  0.5624570000000  0.5476090000000  0.5163940000000 1.0
C      1  0.4837580000000  0.4378780000000  0.5474260000000 1.0
C      1  0.4837580000000  0.5631560000000  0.4532430000000 1.0
C      1  0.5158770000000  0.4378780000000  0.4532430000000 1.0
C      1  0.4527260000000  0.4844570000000  0.5629740000000 1.0
C      1  0.4527260000000  0.5165760000000  0.4376950000000 1.0
C      1  0.5469090000000  0.4844570000000  0.4376950000000 1.0
C      1  0.4371790000000  0.4534250000000  0.5163940000000 1.0
C      1  0.4371790000000  0.5476090000000  0.4842750000000 1.0
C      1  0.5624570000000  0.4534250000000  0.4842750000000 1.0
C      1  0.5158770000000  0.5631560000000  0.4532430000000 1.0
C      1  0.5469090000000  0.5165760000000  0.4376950000000 1.0
C      1  0.5624570000000  0.5476090000000  0.4842750000000 1.0
C      1  0.4837580000000  0.4378780000000  0.4532430000000 1.0
C      1  0.4837580000000  0.5631560000000  0.5474260000000 1.0
C      1  0.5158770000000  0.4378780000000  0.5474260000000 1.0
C      1  0.4527260000000  0.4844570000000  0.4376950000000 1.0
C      1  0.4527260000000  0.5165760000000  0.5629740000000 1.0
C      1  0.5469090000000  0.4844580000000  0.5629740000000 1.0
C      1  0.4371790000000  0.4534250000000  0.4842750000000 1.0
C      1  0.4371790000000  0.5476090000000  0.5163940000000 1.0
C      1  0.5624570000000  0.4534250000000  0.5163940000000 1.0
C      1  0.5141530000000  0.5204980000000  0.4472540000000 1.0
C      1  0.4467370000000  0.5148530000000  0.5203160000000 1.0
C      1  0.5197990000000  0.4474360000000  0.5146700000000 1.0
C      1  0.4854820000000  0.4805350000000  0.4472540000000 1.0
C      1  0.4854820000000  0.5204980000000  0.5534150000000 1.0
C      1  0.5141530000000  0.4805350000000  0.5534150000000 1.0
C      1  0.5528980000000  0.4861810000000  0.5203160000000 1.0
C      1  0.5528980000000  0.5148530000000  0.4803530000000 1.0
C      1  0.4467370000000  0.4861810000000  0.4803530000000 1.0
C      1  0.4798360000000  0.5535980000000  0.5146700000000 1.0
C      1  0.4798360000000  0.4474360000000  0.4859990000000 1.0
C      1  0.5197990000000  0.5535980000000  0.4859990000000 1.0
C      1  0.5141530000000  0.5204980000000  0.5534150000000 1.0
C      1  0.4467370000000  0.5148520000000  0.4803530000000 1.0
C      1  0.5197990000000  0.4474360000000  0.4859990000000 1.0
C      1  0.4854820000000  0.4805350000000  0.5534150000000 1.0
C      1  0.4854820000000  0.5204980000000  0.4472540000000 1.0
C      1  0.5141530000000  0.4805350000000  0.4472540000000 1.0
C      1  0.5528980000000  0.4861810000000  0.4803530000000 1.0
C      1  0.5528980000000  0.5148530000000  0.5203160000000 1.0
C      1  0.4467370000000  0.4861810000000  0.5203160000000 1.0
C      1  0.4798360000000  0.5535980000000  0.4859990000000 1.0
C      1  0.4798360000000  0.4474360000000  0.5146700000000 1.0
C      1  0.5197990000000  0.5535980000000  0.5146700000000 1.0
C      1  0.4754670000000  0.4761660000000  0.5246860000000 1.0
C      1  0.4754670000000  0.5248680000000  0.4759830000000 1.0
C      1  0.5241690000000  0.4761660000000  0.4759830000000 1.0
C      1  0.5241690000000  0.5248680000000  0.4759830000000 1.0
C      1  0.4754670000000  0.5248680000000  0.5246860000000 1.0
C      1  0.5241690000000  0.4761660000000  0.5246860000000 1.0
C      1  0.5241690000000  0.5248680000000  0.5246860000000 1.0
C      1  0.4754670000000  0.4761660000000  0.4759830000000 1.0
END
