TITL C-2782234-8014-639 -0.003995933312697 125000 -557.009871725461 0 0 98 (C1) n - 1
REM
REM in /home/nfs/bkarasulu/CARBON/AIRSS/Generating-Clusters/REBO/Higher-Symm/SD-CG/HFTN-CG
REM
REM
REM
REM
REM
REM ./C.cell (12c818d87b63d06a65506943cc24bca4)
REM
REM compiler GCC version 9.2.1 20190827 (Red Hat 9.2.1-1)
REM options -cpp -mtune=generic -march=x86-64 -g -O0 -fpre-include=/usr/include/finclude/math-vector-fortran.h
REM seed -502048756 -830189295 552580777 -367074806 489515336 403177544 -377463036 467045911 -1994262100 752618793 78857596 2048620458 568110899 -657353407 1281656222 1674477797 -517468450 599091099 449368817 221849884 133572085 -1017878618 -1998839546 -1549250739 1837611151 -1078543610 -1488764299 1690315244 18919705 -779460454 -2004942244 9088103 -654107931
REM
CELL 1.54180   50.00000   50.00000   50.00000   90.00000   90.00000   90.00000
LATT -1
SFAC C  
C      1  0.4553340000000  0.4937880000000  0.5707560000000 1.0
C      1  0.5381850000000  0.4221900000000  0.5142270000000 1.0
C      1  0.4786060000000  0.5565960000000  0.5373760000000 1.0
C      1  0.4879650000000  0.5566990000000  0.4285200000000 1.0
C      1  0.5606470000000  0.4458990000000  0.4767840000000 1.0
C      1  0.4986780000000  0.5828200000000  0.4848460000000 1.0
C      1  0.4595680000000  0.5041640000000  0.4619130000000 1.0
C      1  0.4712390000000  0.4620350000000  0.5394730000000 1.0
C      1  0.4732090000000  0.5830940000000  0.5238130000000 1.0
C      1  0.5213480000000  0.5412620000000  0.5207660000000 1.0
C      1  0.5371290000000  0.4882840000000  0.4533320000000 1.0
C      1  0.5264130000000  0.5760510000000  0.5269260000000 1.0
C      1  0.5391630000000  0.3992900000000  0.5286630000000 1.0
C      1  0.5336990000000  0.4413280000000  0.4656980000000 1.0
C      1  0.4448780000000  0.4661810000000  0.5437720000000 1.0
C      1  0.4873760000000  0.5150630000000  0.4267250000000 1.0
C      1  0.4713340000000  0.5397690000000  0.5578370000000 1.0
C      1  0.5039610000000  0.4964550000000  0.4498970000000 1.0
C      1  0.5429680000000  0.4610650000000  0.5729410000000 1.0
C      1  0.4854900000000  0.4866690000000  0.5727350000000 1.0
C      1  0.4918940000000  0.4588390000000  0.5774570000000 1.0
C      1  0.4839680000000  0.4764920000000  0.5183280000000 1.0
C      1  0.4641410000000  0.5635630000000  0.4489090000000 1.0
C      1  0.5292240000000  0.5115570000000  0.4768060000000 1.0
C      1  0.4199970000000  0.4808160000000  0.5362790000000 1.0
C      1  0.4975360000000  0.4079690000000  0.4728410000000 1.0
C      1  0.4783890000000  0.4391900000000  0.4751940000000 1.0
C      1  0.5037160000000  0.5020970000000  0.5146910000000 1.0
C      1  0.5417750000000  0.4820730000000  0.5926340000000 1.0
C      1  0.5349770000000  0.4918950000000  0.5108360000000 1.0
C      1  0.4770180000000  0.5487450000000  0.5039340000000 1.0
C      1  0.4223960000000  0.5395910000000  0.5334070000000 1.0
C      1  0.4198080000000  0.5047700000000  0.4636580000000 1.0
C      1  0.4163070000000  0.5237060000000  0.4894740000000 1.0
C      1  0.4659880000000  0.5140710000000  0.5203230000000 1.0
C      1  0.4910640000000  0.5356240000000  0.5769760000000 1.0
C      1  0.5037750000000  0.5097730000000  0.5824450000000 1.0
C      1  0.4463360000000  0.5737430000000  0.5058510000000 1.0
C      1  0.4726780000000  0.5013510000000  0.4894350000000 1.0
C      1  0.4465330000000  0.5421450000000  0.5189710000000 1.0
C      1  0.5563460000000  0.4746230000000  0.5494060000000 1.0
C      1  0.4388430000000  0.4789750000000  0.4522210000000 1.0
C      1  0.5145210000000  0.4372430000000  0.5085560000000 1.0
C      1  0.5178280000000  0.4553020000000  0.4865100000000 1.0
C      1  0.4906920000000  0.4380720000000  0.5517240000000 1.0
C      1  0.5482950000000  0.5771550000000  0.5006690000000 1.0
C      1  0.4991010000000  0.5880610000000  0.5119520000000 1.0
C      1  0.5838290000000  0.4950370000000  0.5505230000000 1.0
C      1  0.4103240000000  0.5071600000000  0.5134360000000 1.0
C      1  0.5207210000000  0.5075230000000  0.4225380000000 1.0
C      1  0.4904460000000  0.4583810000000  0.4299860000000 1.0
C      1  0.5159600000000  0.5225600000000  0.5465640000000 1.0
C      1  0.4208350000000  0.4471440000000  0.4952200000000 1.0
C      1  0.5122880000000  0.5535820000000  0.4448940000000 1.0
C      1  0.4154950000000  0.4726840000000  0.4741370000000 1.0
C      1  0.5031240000000  0.5524630000000  0.4737550000000 1.0
C      1  0.5168450000000  0.4219440000000  0.4537270000000 1.0
C      1  0.5344270000000  0.4963160000000  0.5407300000000 1.0
C      1  0.4873320000000  0.4333840000000  0.4443510000000 1.0
C      1  0.4402290000000  0.4316990000000  0.5047370000000 1.0
C      1  0.5677340000000  0.4737270000000  0.4744710000000 1.0
C      1  0.5296800000000  0.5268210000000  0.4463730000000 1.0
C      1  0.5431890000000  0.5625430000000  0.4355850000000 1.0
C      1  0.4079860000000  0.4751290000000  0.5064810000000 1.0
C      1  0.5195270000000  0.4463170000000  0.5682590000000 1.0
C      1  0.5181630000000  0.4689860000000  0.4131770000000 1.0
C      1  0.4502970000000  0.5168990000000  0.5507280000000 1.0
C      1  0.5260240000000  0.5551770000000  0.4937930000000 1.0
C      1  0.5610590000000  0.4867150000000  0.4997150000000 1.0
C      1  0.4677680000000  0.4819810000000  0.4374630000000 1.0
C      1  0.5518680000000  0.5254000000000  0.4976310000000 1.0
C      1  0.4635690000000  0.5334060000000  0.4337310000000 1.0
C      1  0.5075850000000  0.4848790000000  0.4792820000000 1.0
C      1  0.5697280000000  0.4561800000000  0.5240100000000 1.0
C      1  0.4182090000000  0.5122010000000  0.5458260000000 1.0
C      1  0.4889330000000  0.4862020000000  0.4110930000000 1.0
C      1  0.5319420000000  0.5074720000000  0.5840510000000 1.0
C      1  0.5690920000000  0.4907740000000  0.4466180000000 1.0
C      1  0.4682130000000  0.4310100000000  0.5034390000000 1.0
C      1  0.4949410000000  0.5257260000000  0.4935550000000 1.0
C      1  0.5213290000000  0.5442490000000  0.5724810000000 1.0
C      1  0.4713450000000  0.4142320000000  0.4312250000000 1.0
C      1  0.5461390000000  0.4847880000000  0.4217180000000 1.0
C      1  0.5656950000000  0.5554070000000  0.4904070000000 1.0
C      1  0.5801000000000  0.5283470000000  0.4792710000000 1.0
C      1  0.5423580000000  0.5579170000000  0.5499210000000 1.0
C      1  0.4882800000000  0.5059120000000  0.5449360000000 1.0
C      1  0.5615890000000  0.4370000000000  0.5052880000000 1.0
C      1  0.5597320000000  0.5377790000000  0.4390050000000 1.0
C      1  0.5520100000000  0.5305130000000  0.5313010000000 1.0
C      1  0.4305810000000  0.5521640000000  0.4840020000000 1.0
C      1  0.4800930000000  0.4681560000000  0.4875440000000 1.0
C      1  0.4611630000000  0.5636880000000  0.4776420000000 1.0
C      1  0.4407180000000  0.5313480000000  0.4589010000000 1.0
C      1  0.4898180000000  0.4317540000000  0.5212560000000 1.0
C      1  0.5829410000000  0.4848310000000  0.5215100000000 1.0
C      1  0.5506260000000  0.5279980000000  0.5653000000000 1.0
C      1  0.5777810000000  0.5203500000000  0.4519280000000 1.0
END
