TITL C-2782239-8622-747 -0.00150535567278315 125000 -302.793543487348 0 0 53 (C1) n - 1
REM
REM in /home/nfs/bkarasulu/CARBON/AIRSS/Generating-Clusters/REBO/Higher-Symm/SD-CG/HFTN-CG
REM
REM
REM
REM
REM
REM ./C.cell (12c818d87b63d06a65506943cc24bca4)
REM
REM compiler GCC version 9.2.1 20190827 (Red Hat 9.2.1-1)
REM options -cpp -mtune=generic -march=x86-64 -g -O0 -fpre-include=/usr/include/finclude/math-vector-fortran.h
REM seed 1191850997 1620980342 968133026 1265482809 -147049385 -162671781 -1561487050 -2061372596 -1881705322 746001595 1694332809 -460560098 -1707281228 -42831354 -1950781738 -2070976579 2127061349 -372555813 1805708310 -36495929 -1522920365 1633913670 -580438558 -993815896 942644685 67187865 -317976817 975611984 -2142941288 -111709837 -1316273296 -52558615 1409443497
REM
CELL 1.54180   50.00000   50.00000   50.00000   90.00000   90.00000   90.00000
LATT -1
SFAC C  
C      1  0.4805590000000  0.4685080000000  0.4486370000000 1.0
C      1  0.5136910000000  0.4700810000000  0.4449990000000 1.0
C      1  0.4615720000000  0.4482990000000  0.5002930000000 1.0
C      1  0.5352320000000  0.4512950000000  0.4983570000000 1.0
C      1  0.5355100000000  0.4502360000000  0.5478770000000 1.0
C      1  0.4610190000000  0.4484340000000  0.5499190000000 1.0
C      1  0.5380040000000  0.5296420000000  0.4963460000000 1.0
C      1  0.4573470000000  0.5293570000000  0.4990820000000 1.0
C      1  0.4853360000000  0.4364040000000  0.4932020000000 1.0
C      1  0.5123170000000  0.4373280000000  0.4924930000000 1.0
C      1  0.5561800000000  0.5081420000000  0.5453330000000 1.0
C      1  0.4443980000000  0.5052020000000  0.5467570000000 1.0
C      1  0.4400920000000  0.5188030000000  0.5183110000000 1.0
C      1  0.5547320000000  0.5190290000000  0.5154610000000 1.0
C      1  0.5121310000000  0.4454680000000  0.5604740000000 1.0
C      1  0.4852150000000  0.4448010000000  0.5613790000000 1.0
C      1  0.4614220000000  0.5127510000000  0.4768060000000 1.0
C      1  0.5350530000000  0.5144470000000  0.4731740000000 1.0
C      1  0.4812610000000  0.5493600000000  0.4991010000000 1.0
C      1  0.5152260000000  0.5525460000000  0.5010040000000 1.0
C      1  0.5358530000000  0.5240200000000  0.4305810000000 1.0
C      1  0.4676440000000  0.5203070000000  0.4319540000000 1.0
C      1  0.5603580000000  0.4976230000000  0.4665680000000 1.0
C      1  0.4380340000000  0.4948910000000  0.4673420000000 1.0
C      1  0.5269900000000  0.5458070000000  0.5615850000000 1.0
C      1  0.4757470000000  0.5424530000000  0.5529640000000 1.0
C      1  0.4338350000000  0.4853790000000  0.5222050000000 1.0
C      1  0.5638420000000  0.4866070000000  0.5212460000000 1.0
C      1  0.4417600000000  0.5119820000000  0.4420240000000 1.0
C      1  0.5609670000000  0.5165020000000  0.4427930000000 1.0
C      1  0.5189740000000  0.4974140000000  0.4262330000000 1.0
C      1  0.4862260000000  0.4953230000000  0.4308860000000 1.0
C      1  0.5159620000000  0.4871750000000  0.5007430000000 1.0
C      1  0.4813330000000  0.4830730000000  0.5000900000000 1.0
C      1  0.4853820000000  0.5074900000000  0.4650780000000 1.0
C      1  0.5126740000000  0.5074860000000  0.4583940000000 1.0
C      1  0.4493360000000  0.4786490000000  0.4934900000000 1.0
C      1  0.5482050000000  0.4817300000000  0.4919040000000 1.0
C      1  0.5221410000000  0.5400470000000  0.5313970000000 1.0
C      1  0.4900890000000  0.5341790000000  0.5259370000000 1.0
C      1  0.5137820000000  0.5231650000000  0.5779040000000 1.0
C      1  0.4847680000000  0.5218290000000  0.5739630000000 1.0
C      1  0.4914320000000  0.5545720000000  0.4690940000000 1.0
C      1  0.5227820000000  0.5597920000000  0.4688200000000 1.0
C      1  0.4875300000000  0.5004820000000  0.5254740000000 1.0
C      1  0.5188760000000  0.5065280000000  0.5279250000000 1.0
C      1  0.5481410000000  0.4588310000000  0.5244750000000 1.0
C      1  0.4481830000000  0.4562800000000  0.5263080000000 1.0
C      1  0.4717720000000  0.5027640000000  0.5532190000000 1.0
C      1  0.5302890000000  0.5061110000000  0.5590690000000 1.0
C      1  0.4846770000000  0.5418090000000  0.4415530000000 1.0
C      1  0.5181630000000  0.5444590000000  0.4414620000000 1.0
C      1  0.4995670000000  0.4714130000000  0.4759470000000 1.0
END
