TITL C-2782225-7408-1208 -0.00809558778915843 125000 -749.508436561516 0 0 128 (C1) n - 1
REM
REM in /home/nfs/bkarasulu/CARBON/AIRSS/Generating-Clusters/REBO/Higher-Symm/SD-CG/HFTN-CG
REM
REM
REM
REM
REM
REM ./C.cell (12c818d87b63d06a65506943cc24bca4)
REM
REM compiler GCC version 9.2.1 20190827 (Red Hat 9.2.1-1)
REM options -cpp -mtune=generic -march=x86-64 -g -O0 -fpre-include=/usr/include/finclude/math-vector-fortran.h
REM seed 2110219952 -165035879 1710440392 350592088 748369949 1260979047 -890725192 -1515677675 -1719721266 1542674081 1071401984 1292271758 -1965195649 -1187801267 186770614 -1198591478 -20166596 1560542015 -1467978020 -2039923099 -1771709994 -545907047 -1089786028 1275718142 947740143 -1808728039 -1986581618 832669765 19167117 1821542841 579882997 1608235245 -1230185279
REM
CELL 1.54180   50.00000   50.00000   50.00000   90.00000   90.00000   90.00000
LATT -1
SFAC C  
C      1  0.5720530000000  0.5064080000000  0.5467610000000 1.0
C      1  0.5578280000000  0.4392790000000  0.4484710000000 1.0
C      1  0.4684320000000  0.4267190000000  0.5474480000000 1.0
C      1  0.4216020000000  0.4909590000000  0.4530570000000 1.0
C      1  0.4528100000000  0.5593230000000  0.5429040000000 1.0
C      1  0.5279050000000  0.5772410000000  0.4483960000000 1.0
C      1  0.4236820000000  0.4280410000000  0.4799920000000 1.0
C      1  0.4122480000000  0.5127420000000  0.5266930000000 1.0
C      1  0.4832290000000  0.6013380000000  0.4822910000000 1.0
C      1  0.5538090000000  0.5692730000000  0.5171990000000 1.0
C      1  0.5892200000000  0.4590800000000  0.4868990000000 1.0
C      1  0.5195710000000  0.4051520000000  0.5130010000000 1.0
C      1  0.4487910000000  0.4886230000000  0.5835720000000 1.0
C      1  0.4621810000000  0.5425150000000  0.4231990000000 1.0
C      1  0.5264010000000  0.5494890000000  0.5798510000000 1.0
C      1  0.5601730000000  0.5049880000000  0.4187470000000 1.0
C      1  0.5392070000000  0.4521350000000  0.5849450000000 1.0
C      1  0.4882040000000  0.4544950000000  0.4241360000000 1.0
C      1  0.5678500000000  0.5311660000000  0.5610420000000 1.0
C      1  0.5778250000000  0.4599950000000  0.4302160000000 1.0
C      1  0.4980220000000  0.4237950000000  0.5642970000000 1.0
C      1  0.4368290000000  0.4673190000000  0.4420780000000 1.0
C      1  0.4446640000000  0.5406770000000  0.5702530000000 1.0
C      1  0.4977590000000  0.5748560000000  0.4374450000000 1.0
C      1  0.4290760000000  0.5322110000000  0.4223120000000 1.0
C      1  0.5062870000000  0.5744070000000  0.5672480000000 1.0
C      1  0.5671470000000  0.5369930000000  0.4264490000000 1.0
C      1  0.5637630000000  0.4573090000000  0.5628150000000 1.0
C      1  0.5099230000000  0.4292930000000  0.4295730000000 1.0
C      1  0.4401730000000  0.4564650000000  0.5767410000000 1.0
C      1  0.4945690000000  0.4945920000000  0.6087130000000 1.0
C      1  0.4860710000000  0.5149270000000  0.3868120000000 1.0
C      1  0.4985490000000  0.5247080000000  0.6068540000000 1.0
C      1  0.5174820000000  0.5179030000000  0.3923620000000 1.0
C      1  0.5267280000000  0.5058770000000  0.6061840000000 1.0
C      1  0.5047470000000  0.4889970000000  0.3860260000000 1.0
C      1  0.4966200000000  0.4188690000000  0.5324260000000 1.0
C      1  0.4354350000000  0.4423220000000  0.4588690000000 1.0
C      1  0.4301770000000  0.5336900000000  0.5415830000000 1.0
C      1  0.5016650000000  0.5822390000000  0.4697090000000 1.0
C      1  0.5688090000000  0.5531090000000  0.5389860000000 1.0
C      1  0.5747410000000  0.4649270000000  0.4622430000000 1.0
C      1  0.4791310000000  0.4862800000000  0.4679830000000 1.0
C      1  0.4624810000000  0.4913360000000  0.5351300000000 1.0
C      1  0.4820110000000  0.5376110000000  0.4682690000000 1.0
C      1  0.5221680000000  0.5148170000000  0.5257500000000 1.0
C      1  0.5258960000000  0.4982640000000  0.4661650000000 1.0
C      1  0.5181880000000  0.4634830000000  0.5392920000000 1.0
C      1  0.5317670000000  0.5609370000000  0.5507680000000 1.0
C      1  0.5729650000000  0.5123950000000  0.4489210000000 1.0
C      1  0.5451870000000  0.4309700000000  0.5585340000000 1.0
C      1  0.4834400000000  0.4437290000000  0.4554700000000 1.0
C      1  0.4213770000000  0.4789440000000  0.5651800000000 1.0
C      1  0.4367350000000  0.5539130000000  0.4429430000000 1.0
C      1  0.5850650000000  0.5543380000000  0.4801670000000 1.0
C      1  0.5683760000000  0.4495350000000  0.5113720000000 1.0
C      1  0.4899010000000  0.3944860000000  0.5016340000000 1.0
C      1  0.4195560000000  0.4481110000000  0.5045660000000 1.0
C      1  0.4099530000000  0.5437150000000  0.4893520000000 1.0
C      1  0.4617300000000  0.6186270000000  0.4979900000000 1.0
C      1  0.4513420000000  0.6420610000000  0.5042850000000 1.0
C      1  0.6089270000000  0.5659380000000  0.4749750000000 1.0
C      1  0.5684190000000  0.4272130000000  0.5261990000000 1.0
C      1  0.4656860000000  0.4004540000000  0.4995340000000 1.0
C      1  0.3996180000000  0.4516420000000  0.5247330000000 1.0
C      1  0.3923340000000  0.5595370000000  0.5029130000000 1.0
C      1  0.5127870000000  0.4521450000000  0.5684940000000 1.0
C      1  0.4686560000000  0.4759160000000  0.4370860000000 1.0
C      1  0.4563390000000  0.5099650000000  0.5622090000000 1.0
C      1  0.4876770000000  0.5452230000000  0.4384990000000 1.0
C      1  0.5465080000000  0.5265910000000  0.5872440000000 1.0
C      1  0.5607890000000  0.4756820000000  0.4125950000000 1.0
C      1  0.4524810000000  0.4948560000000  0.4170010000000 1.0
C      1  0.4803200000000  0.5327980000000  0.5544480000000 1.0
C      1  0.5205180000000  0.5381310000000  0.4448660000000 1.0
C      1  0.5613920000000  0.4960860000000  0.5897570000000 1.0
C      1  0.5364280000000  0.4606530000000  0.4095270000000 1.0
C      1  0.4851340000000  0.4554220000000  0.5843340000000 1.0
C      1  0.4960400000000  0.5392710000000  0.5824190000000 1.0
C      1  0.5308060000000  0.5183990000000  0.4188970000000 1.0
C      1  0.5424070000000  0.4764690000000  0.6035170000000 1.0
C      1  0.5093620000000  0.4671460000000  0.4027360000000 1.0
C      1  0.4762970000000  0.4788290000000  0.5967230000000 1.0
C      1  0.4649560000000  0.5171030000000  0.4046270000000 1.0
C      1  0.5328730000000  0.5286070000000  0.4755710000000 1.0
C      1  0.5251400000000  0.4852930000000  0.5146680000000 1.0
C      1  0.5080470000000  0.4823770000000  0.4852000000000 1.0
C      1  0.4504910000000  0.4663830000000  0.5220910000000 1.0
C      1  0.4639100000000  0.5129520000000  0.4761880000000 1.0
C      1  0.4964400000000  0.5288420000000  0.5270620000000 1.0
C      1  0.5779770000000  0.5267980000000  0.4761950000000 1.0
C      1  0.5348000000000  0.4128780000000  0.5421110000000 1.0
C      1  0.5042400000000  0.4350370000000  0.4706720000000 1.0
C      1  0.4085310000000  0.4901370000000  0.5433380000000 1.0
C      1  0.4242770000000  0.5540100000000  0.4674270000000 1.0
C      1  0.5237930000000  0.5683860000000  0.5209780000000 1.0
C      1  0.5111270000000  0.4514200000000  0.4924330000000 1.0
C      1  0.4399260000000  0.4718070000000  0.4931640000000 1.0
C      1  0.4600470000000  0.5339870000000  0.5014530000000 1.0
C      1  0.5013010000000  0.5536560000000  0.5116050000000 1.0
C      1  0.5578480000000  0.5179850000000  0.4964620000000 1.0
C      1  0.5477610000000  0.4707230000000  0.4937520000000 1.0
C      1  0.4518570000000  0.4394640000000  0.5264740000000 1.0
C      1  0.4329600000000  0.4996400000000  0.4809740000000 1.0
C      1  0.4583560000000  0.5609660000000  0.5112420000000 1.0
C      1  0.5381400000000  0.5602240000000  0.4739550000000 1.0
C      1  0.5701670000000  0.5030560000000  0.5184210000000 1.0
C      1  0.5471480000000  0.4408970000000  0.4786480000000 1.0
C      1  0.4150000000000  0.5171960000000  0.4985030000000 1.0
C      1  0.4621950000000  0.5863690000000  0.5013280000000 1.0
C      1  0.5610400000000  0.5681410000000  0.4894870000000 1.0
C      1  0.5830230000000  0.4796720000000  0.5102720000000 1.0
C      1  0.5355540000000  0.4195120000000  0.4910490000000 1.0
C      1  0.4434990000000  0.4199330000000  0.5045640000000 1.0
C      1  0.4515400000000  0.5179180000000  0.5234460000000 1.0
C      1  0.4945900000000  0.5561860000000  0.4849650000000 1.0
C      1  0.5413710000000  0.5341600000000  0.5317210000000 1.0
C      1  0.5571200000000  0.4904260000000  0.4675100000000 1.0
C      1  0.5102840000000  0.4436200000000  0.5187070000000 1.0
C      1  0.4612390000000  0.4585730000000  0.4721590000000 1.0
C      1  0.4272140000000  0.5041330000000  0.4274030000000 1.0
C      1  0.4818500000000  0.5672540000000  0.5564220000000 1.0
C      1  0.5491110000000  0.5551140000000  0.4361270000000 1.0
C      1  0.5713770000000  0.4847720000000  0.5651330000000 1.0
C      1  0.5359620000000  0.4376570000000  0.4270120000000 1.0
C      1  0.4633000000000  0.4408370000000  0.5743420000000 1.0
C      1  0.4908130000000  0.4899550000000  0.5343230000000 1.0
C      1  0.5157340000000  0.4988580000000  0.4395380000000 1.0
END
