TITL C-2782233-7966-403 0.00272992265787724 125000 -951.911148985895 0 0 162 (C1) n - 1
REM
REM in /home/nfs/bkarasulu/CARBON/AIRSS/Generating-Clusters/REBO/Higher-Symm/SD-CG/HFTN-CG
REM
REM
REM
REM
REM
REM ./C.cell (12c818d87b63d06a65506943cc24bca4)
REM
REM compiler GCC version 9.2.1 20190827 (Red Hat 9.2.1-1)
REM options -cpp -mtune=generic -march=x86-64 -g -O0 -fpre-include=/usr/include/finclude/math-vector-fortran.h
REM seed 2124645177 236226055 -1169194061 -2046594121 -1368765145 -913918111 2037945353 535167516 -1545201852 393098419 2008739223 511256259 773214961 1317883838 -932646007 -585259770 -620577163 -1674313331 1177345210 205932899 -336875516 -2112040460 971224231 -745447229 -1968443206 -1490324466 -864568729 -1100395616 380729589 755898850 1594551142 1921733187 2059508692
REM
CELL 1.54180   50.00000   50.00000   50.00000   90.00000   90.00000   90.00000
LATT -1
SFAC C  
C      1  0.4782920000000  0.4649330000000  0.5089780000000 1.0
C      1  0.5235590000000  0.5320660000000  0.5155950000000 1.0
C      1  0.5201790000000  0.4733800000000  0.5076610000000 1.0
C      1  0.4844190000000  0.5283980000000  0.5092730000000 1.0
C      1  0.5433690000000  0.4446280000000  0.4632760000000 1.0
C      1  0.4609560000000  0.5609150000000  0.4648790000000 1.0
C      1  0.4484180000000  0.4448970000000  0.4645260000000 1.0
C      1  0.5527200000000  0.5569610000000  0.4642650000000 1.0
C      1  0.5264410000000  0.4516000000000  0.4188410000000 1.0
C      1  0.4721570000000  0.5482620000000  0.4192230000000 1.0
C      1  0.4743270000000  0.4552690000000  0.4200890000000 1.0
C      1  0.5244220000000  0.5437730000000  0.4229010000000 1.0
C      1  0.4547900000000  0.5167270000000  0.4365580000000 1.0
C      1  0.5441110000000  0.4826210000000  0.4364410000000 1.0
C      1  0.5421440000000  0.5141530000000  0.4428210000000 1.0
C      1  0.4559960000000  0.4848320000000  0.4414060000000 1.0
C      1  0.4569810000000  0.4296250000000  0.5306960000000 1.0
C      1  0.5416710000000  0.5790050000000  0.5286760000000 1.0
C      1  0.5535510000000  0.4382200000000  0.5257520000000 1.0
C      1  0.4570150000000  0.5707680000000  0.5258760000000 1.0
C      1  0.4430240000000  0.5134020000000  0.5386050000000 1.0
C      1  0.5558330000000  0.4836820000000  0.5359410000000 1.0
C      1  0.5576820000000  0.5130100000000  0.5466620000000 1.0
C      1  0.4417390000000  0.4817070000000  0.5414580000000 1.0
C      1  0.5588270000000  0.4502110000000  0.4182360000000 1.0
C      1  0.4400160000000  0.5501650000000  0.4205910000000 1.0
C      1  0.4427260000000  0.4571290000000  0.4162050000000 1.0
C      1  0.5565250000000  0.5417110000000  0.4179960000000 1.0
C      1  0.5218680000000  0.5632830000000  0.4580440000000 1.0
C      1  0.4811700000000  0.4390530000000  0.4607300000000 1.0
C      1  0.4923070000000  0.5652880000000  0.4571780000000 1.0
C      1  0.5111870000000  0.4344770000000  0.4569900000000 1.0
C      1  0.4820890000000  0.6092000000000  0.4970520000000 1.0
C      1  0.5169870000000  0.3941540000000  0.4973930000000 1.0
C      1  0.5146650000000  0.6113270000000  0.4935520000000 1.0
C      1  0.4851280000000  0.3945500000000  0.5001840000000 1.0
C      1  0.5322820000000  0.5231600000000  0.5651060000000 1.0
C      1  0.4645740000000  0.4664500000000  0.5604340000000 1.0
C      1  0.4654960000000  0.5257370000000  0.5586480000000 1.0
C      1  0.5314010000000  0.4688450000000  0.5531890000000 1.0
C      1  0.4856060000000  0.5566980000000  0.5225970000000 1.0
C      1  0.5217150000000  0.4440270000000  0.5202130000000 1.0
C      1  0.5173380000000  0.5592080000000  0.5313740000000 1.0
C      1  0.4892290000000  0.4393810000000  0.5251460000000 1.0
C      1  0.5931280000000  0.5522330000000  0.4946700000000 1.0
C      1  0.4035920000000  0.4458280000000  0.4932140000000 1.0
C      1  0.4053210000000  0.5364670000000  0.5105600000000 1.0
C      1  0.5903020000000  0.4315830000000  0.5028660000000 1.0
C      1  0.4030600000000  0.4757520000000  0.4949280000000 1.0
C      1  0.5904980000000  0.5214850000000  0.4972410000000 1.0
C      1  0.5883260000000  0.4875070000000  0.4985970000000 1.0
C      1  0.4018050000000  0.5078730000000  0.4959840000000 1.0
C      1  0.5962220000000  0.5385170000000  0.4504450000000 1.0
C      1  0.4034880000000  0.4585220000000  0.4484320000000 1.0
C      1  0.4114260000000  0.5485520000000  0.4635210000000 1.0
C      1  0.5917480000000  0.4511710000000  0.4580430000000 1.0
C      1  0.5170460000000  0.4411860000000  0.5537870000000 1.0
C      1  0.4859280000000  0.5472580000000  0.5528400000000 1.0
C      1  0.4860180000000  0.4429970000000  0.5573910000000 1.0
C      1  0.5151410000000  0.5498010000000  0.5627100000000 1.0
C      1  0.4341650000000  0.4499120000000  0.5184800000000 1.0
C      1  0.5613720000000  0.5547690000000  0.5184210000000 1.0
C      1  0.5787530000000  0.4589620000000  0.5144700000000 1.0
C      1  0.4369370000000  0.5496490000000  0.5139440000000 1.0
C      1  0.4366440000000  0.5405820000000  0.5671250000000 1.0
C      1  0.5586230000000  0.4703280000000  0.5733720000000 1.0
C      1  0.5578070000000  0.5458260000000  0.5694120000000 1.0
C      1  0.4336760000000  0.4569490000000  0.5715240000000 1.0
C      1  0.4491690000000  0.4291850000000  0.5620520000000 1.0
C      1  0.5451540000000  0.5755080000000  0.5623590000000 1.0
C      1  0.5565030000000  0.4385780000000  0.5597260000000 1.0
C      1  0.4533850000000  0.5690600000000  0.5588610000000 1.0
C      1  0.4835490000000  0.5776930000000  0.4270130000000 1.0
C      1  0.5157370000000  0.4215890000000  0.4261810000000 1.0
C      1  0.5167540000000  0.5765960000000  0.4278110000000 1.0
C      1  0.4833270000000  0.4240000000000  0.4304550000000 1.0
C      1  0.4836820000000  0.5718410000000  0.5741200000000 1.0
C      1  0.5316330000000  0.4292320000000  0.5794260000000 1.0
C      1  0.5170770000000  0.5763700000000  0.5813910000000 1.0
C      1  0.4737370000000  0.4239320000000  0.5799260000000 1.0
C      1  0.5346530000000  0.4873570000000  0.6142140000000 1.0
C      1  0.4663240000000  0.5109120000000  0.6045560000000 1.0
C      1  0.4689400000000  0.4795610000000  0.6068170000000 1.0
C      1  0.5364490000000  0.5185040000000  0.6138090000000 1.0
C      1  0.4047720000000  0.4855990000000  0.4631070000000 1.0
C      1  0.5925390000000  0.5123100000000  0.4660040000000 1.0
C      1  0.5917910000000  0.4791150000000  0.4666480000000 1.0
C      1  0.4067810000000  0.5193630000000  0.4651800000000 1.0
C      1  0.5409860000000  0.4154360000000  0.4739390000000 1.0
C      1  0.4475640000000  0.5888500000000  0.4720620000000 1.0
C      1  0.4497850000000  0.4142040000000  0.4722470000000 1.0
C      1  0.5511100000000  0.5882990000000  0.4688920000000 1.0
C      1  0.6022160000000  0.4333970000000  0.4773180000000 1.0
C      1  0.4079370000000  0.5608220000000  0.4890070000000 1.0
C      1  0.3914790000000  0.4400620000000  0.4671950000000 1.0
C      1  0.6084450000000  0.5562340000000  0.4699160000000 1.0
C      1  0.5678220000000  0.4444390000000  0.4444450000000 1.0
C      1  0.4333310000000  0.5566570000000  0.4475110000000 1.0
C      1  0.4295650000000  0.4507130000000  0.4404240000000 1.0
C      1  0.5710380000000  0.5480600000000  0.4413390000000 1.0
C      1  0.4886640000000  0.3871680000000  0.4702250000000 1.0
C      1  0.5152530000000  0.6178000000000  0.4616960000000 1.0
C      1  0.5184250000000  0.3832960000000  0.4669580000000 1.0
C      1  0.4858290000000  0.6137030000000  0.4663470000000 1.0
C      1  0.4846760000000  0.5309880000000  0.6107290000000 1.0
C      1  0.5186260000000  0.4648600000000  0.6158320000000 1.0
C      1  0.5153050000000  0.5368150000000  0.6181250000000 1.0
C      1  0.4878550000000  0.4597700000000  0.6133200000000 1.0
C      1  0.5186170000000  0.5324870000000  0.4832380000000 1.0
C      1  0.4748430000000  0.4740590000000  0.4775820000000 1.0
C      1  0.4852030000000  0.5313850000000  0.4766390000000 1.0
C      1  0.5080400000000  0.4755520000000  0.4776040000000 1.0
C      1  0.5780010000000  0.4616400000000  0.5467820000000 1.0
C      1  0.4195190000000  0.5352840000000  0.5396940000000 1.0
C      1  0.4164200000000  0.4615140000000  0.5430120000000 1.0
C      1  0.5734870000000  0.5402690000000  0.5410030000000 1.0
C      1  0.4803220000000  0.5178430000000  0.4059430000000 1.0
C      1  0.5178810000000  0.4821200000000  0.4060640000000 1.0
C      1  0.5112060000000  0.5155250000000  0.4088640000000 1.0
C      1  0.4866750000000  0.4841710000000  0.4063360000000 1.0
C      1  0.5504960000000  0.4854200000000  0.5036210000000 1.0
C      1  0.4550600000000  0.5146150000000  0.5085050000000 1.0
C      1  0.4518060000000  0.4850350000000  0.5119650000000 1.0
C      1  0.5525400000000  0.5161770000000  0.5131770000000 1.0
C      1  0.4865050000000  0.4294440000000  0.6044930000000 1.0
C      1  0.5182370000000  0.5678370000000  0.6128420000000 1.0
C      1  0.5178390000000  0.4354120000000  0.6036190000000 1.0
C      1  0.4877650000000  0.5614550000000  0.6038480000000 1.0
C      1  0.5436040000000  0.4119650000000  0.5059960000000 1.0
C      1  0.4548050000000  0.5946900000000  0.5049090000000 1.0
C      1  0.4585000000000  0.4086690000000  0.5047090000000 1.0
C      1  0.5410170000000  0.5959680000000  0.5005970000000 1.0
C      1  0.5446190000000  0.5116650000000  0.4090810000000 1.0
C      1  0.4530800000000  0.4885910000000  0.4081920000000 1.0
C      1  0.4464790000000  0.5215250000000  0.4045330000000 1.0
C      1  0.5515280000000  0.4789920000000  0.4040900000000 1.0
C      1  0.4294920000000  0.4254470000000  0.4972420000000 1.0
C      1  0.5689890000000  0.5762370000000  0.4952700000000 1.0
C      1  0.5758130000000  0.4092540000000  0.5098030000000 1.0
C      1  0.4241360000000  0.5838140000000  0.4939890000000 1.0
C      1  0.5315430000000  0.4015070000000  0.4475280000000 1.0
C      1  0.4691290000000  0.5970760000000  0.4500130000000 1.0
C      1  0.4706250000000  0.4016840000000  0.4529830000000 1.0
C      1  0.5323110000000  0.5999590000000  0.4471900000000 1.0
C      1  0.4823380000000  0.5285450000000  0.4449970000000 1.0
C      1  0.5163480000000  0.4718600000000  0.4446030000000 1.0
C      1  0.5143310000000  0.5252670000000  0.4502310000000 1.0
C      1  0.4852400000000  0.4751860000000  0.4451870000000 1.0
C      1  0.5147680000000  0.5153560000000  0.5397830000000 1.0
C      1  0.4816980000000  0.4794160000000  0.5377560000000 1.0
C      1  0.4828290000000  0.5107330000000  0.5370150000000 1.0
C      1  0.5127540000000  0.4846680000000  0.5352800000000 1.0
C      1  0.5572620000000  0.4917040000000  0.5932960000000 1.0
C      1  0.4402890000000  0.5145960000000  0.5872450000000 1.0
C      1  0.4426060000000  0.4828860000000  0.5893930000000 1.0
C      1  0.5601450000000  0.5234490000000  0.5933260000000 1.0
C      1  0.4440890000000  0.4634340000000  0.4887600000000 1.0
C      1  0.5518040000000  0.5399930000000  0.4891990000000 1.0
C      1  0.5417950000000  0.4721770000000  0.4751980000000 1.0
C      1  0.4535280000000  0.5396270000000  0.4871730000000 1.0
C      1  0.5666690000000  0.4964800000000  0.4549980000000 1.0
C      1  0.4315450000000  0.5018630000000  0.4540590000000 1.0
END
