TITL C-2782235-7892-954 -0.0751055420513373 125000 -922.162720076227 0 0 155 (C1) n - 1
REM
REM in /home/nfs/bkarasulu/CARBON/AIRSS/Generating-Clusters/REBO/Higher-Symm/SD-CG/HFTN-CG
REM
REM
REM
REM
REM
REM ./C.cell (12c818d87b63d06a65506943cc24bca4)
REM
REM compiler GCC version 9.2.1 20190827 (Red Hat 9.2.1-1)
REM options -cpp -mtune=generic -march=x86-64 -g -O0 -fpre-include=/usr/include/finclude/math-vector-fortran.h
REM seed 901430670 1357470084 -1938705290 1225338484 122549172 124402936 920365328 -943352327 -788440708 -2067155686 -544806837 1080520806 -1573487207 -66400379 1165338507 -1722349123 1608318759 1506030324 -173323469 1901482651 882280357 -1411834129 -390669558 1775299057 -996189977 2023744211 1774804226 3753688 -125575129 -559237437 8485121 -1188513486 1606831867
REM
CELL 1.54180   50.00000   50.00000   50.00000   90.00000   90.00000   90.00000
LATT -1
SFAC C  
C      1  0.5682550000000  0.4671520000000  0.4308310000000 1.0
C      1  0.4319480000000  0.5246200000000  0.4423560000000 1.0
C      1  0.5785790000000  0.5621690000000  0.4796730000000 1.0
C      1  0.4372220000000  0.5593350000000  0.5280870000000 1.0
C      1  0.5664260000000  0.5240120000000  0.5539090000000 1.0
C      1  0.4324770000000  0.4779820000000  0.5573600000000 1.0
C      1  0.5726720000000  0.4458990000000  0.5284600000000 1.0
C      1  0.4253370000000  0.4376750000000  0.4787690000000 1.0
C      1  0.5830760000000  0.5086080000000  0.5388810000000 1.0
C      1  0.4091290000000  0.4836640000000  0.5445000000000 1.0
C      1  0.5959130000000  0.4548890000000  0.5167460000000 1.0
C      1  0.4042800000000  0.4551310000000  0.4792880000000 1.0
C      1  0.5929900000000  0.4753700000000  0.4379640000000 1.0
C      1  0.4077350000000  0.5267600000000  0.4546150000000 1.0
C      1  0.5985940000000  0.5447290000000  0.4835330000000 1.0
C      1  0.4108110000000  0.5492040000000  0.5243550000000 1.0
C      1  0.4321280000000  0.4800000000000  0.3710960000000 1.0
C      1  0.5793640000000  0.5349270000000  0.4300240000000 1.0
C      1  0.4321410000000  0.5646980000000  0.4806820000000 1.0
C      1  0.5692920000000  0.6103300000000  0.5780010000000 1.0
C      1  0.4377770000000  0.5173610000000  0.6403450000000 1.0
C      1  0.5667800000000  0.4351130000000  0.6082390000000 1.0
C      1  0.4484520000000  0.3593650000000  0.5237750000000 1.0
C      1  0.5729300000000  0.4297830000000  0.4630510000000 1.0
C      1  0.4910660000000  0.4575180000000  0.3996690000000 1.0
C      1  0.5132240000000  0.5508270000000  0.3975310000000 1.0
C      1  0.4918910000000  0.6041970000000  0.4652410000000 1.0
C      1  0.5063660000000  0.6011380000000  0.5468020000000 1.0
C      1  0.4779930000000  0.5481510000000  0.5908170000000 1.0
C      1  0.5025960000000  0.4600630000000  0.5998940000000 1.0
C      1  0.4995960000000  0.4013120000000  0.5433450000000 1.0
C      1  0.5037410000000  0.4002310000000  0.4576160000000 1.0
C      1  0.5284960000000  0.4455270000000  0.5455690000000 1.0
C      1  0.4722260000000  0.4233480000000  0.4936210000000 1.0
C      1  0.5247090000000  0.4491580000000  0.4390690000000 1.0
C      1  0.4715010000000  0.5077850000000  0.4289330000000 1.0
C      1  0.5343880000000  0.5597460000000  0.4598510000000 1.0
C      1  0.4717340000000  0.5809570000000  0.5131380000000 1.0
C      1  0.5280390000000  0.5506870000000  0.5646200000000 1.0
C      1  0.4661680000000  0.4881060000000  0.5797590000000 1.0
C      1  0.4626860000000  0.4570390000000  0.4028530000000 1.0
C      1  0.5392630000000  0.5403370000000  0.4005100000000 1.0
C      1  0.4659440000000  0.5928330000000  0.4586250000000 1.0
C      1  0.5346970000000  0.6015500000000  0.5434560000000 1.0
C      1  0.4512500000000  0.5354180000000  0.5963160000000 1.0
C      1  0.5305300000000  0.4671260000000  0.5968430000000 1.0
C      1  0.4709840000000  0.3990170000000  0.5436400000000 1.0
C      1  0.5319720000000  0.3977620000000  0.4642760000000 1.0
C      1  0.4496240000000  0.4807410000000  0.3917760000000 1.0
C      1  0.5583830000000  0.5535190000000  0.4181210000000 1.0
C      1  0.4435200000000  0.5926110000000  0.4789400000000 1.0
C      1  0.5493440000000  0.5950470000000  0.5678520000000 1.0
C      1  0.4469820000000  0.5138120000000  0.6150990000000 1.0
C      1  0.5476900000000  0.4440410000000  0.5911810000000 1.0
C      1  0.4604030000000  0.3835420000000  0.5212070000000 1.0
C      1  0.5538320000000  0.4132220000000  0.4473680000000 1.0
C      1  0.4425940000000  0.5382970000000  0.4199800000000 1.0
C      1  0.5623370000000  0.5878590000000  0.4746410000000 1.0
C      1  0.4450670000000  0.5623390000000  0.5558450000000 1.0
C      1  0.5586860000000  0.5257490000000  0.5818500000000 1.0
C      1  0.4390530000000  0.4582390000000  0.5766380000000 1.0
C      1  0.5629300000000  0.4190900000000  0.5290940000000 1.0
C      1  0.4344950000000  0.4183180000000  0.4594210000000 1.0
C      1  0.5567590000000  0.4655360000000  0.4047470000000 1.0
C      1  0.5654780000000  0.4747410000000  0.5002560000000 1.0
C      1  0.4284150000000  0.4860410000000  0.5099000000000 1.0
C      1  0.5781110000000  0.4493130000000  0.4813920000000 1.0
C      1  0.4294280000000  0.5018090000000  0.4795500000000 1.0
C      1  0.5766790000000  0.5093260000000  0.4512520000000 1.0
C      1  0.4245350000000  0.5340100000000  0.4900940000000 1.0
C      1  0.5683110000000  0.5012730000000  0.4814790000000 1.0
C      1  0.4410780000000  0.5173200000000  0.5142450000000 1.0
C      1  0.4961460000000  0.4361640000000  0.5077480000000 1.0
C      1  0.5007700000000  0.4494560000000  0.4578670000000 1.0
C      1  0.4995500000000  0.4949180000000  0.4323320000000 1.0
C      1  0.5128190000000  0.5418170000000  0.4547300000000 1.0
C      1  0.4965910000000  0.5674910000000  0.4968530000000 1.0
C      1  0.5027090000000  0.5510010000000  0.5447620000000 1.0
C      1  0.4900310000000  0.5057790000000  0.5696070000000 1.0
C      1  0.5019020000000  0.4594590000000  0.5520240000000 1.0
C      1  0.6027850000000  0.4912600000000  0.4639320000000 1.0
C      1  0.3941440000000  0.5192450000000  0.4838030000000 1.0
C      1  0.5982750000000  0.5145680000000  0.4880660000000 1.0
C      1  0.3945760000000  0.5293090000000  0.5160040000000 1.0
C      1  0.5899840000000  0.4947100000000  0.5141430000000 1.0
C      1  0.3968630000000  0.4966170000000  0.5166280000000 1.0
C      1  0.6031560000000  0.4711480000000  0.4890680000000 1.0
C      1  0.3995290000000  0.4855680000000  0.4842850000000 1.0
C      1  0.4524780000000  0.4728640000000  0.4478910000000 1.0
C      1  0.5511160000000  0.5160240000000  0.4299490000000 1.0
C      1  0.4584750000000  0.5463110000000  0.4734080000000 1.0
C      1  0.5443710000000  0.5592170000000  0.5170150000000 1.0
C      1  0.4480780000000  0.5243650000000  0.5440600000000 1.0
C      1  0.5431380000000  0.4896930000000  0.5507380000000 1.0
C      1  0.4576320000000  0.4420410000000  0.5253610000000 1.0
C      1  0.5383160000000  0.4447100000000  0.4762150000000 1.0
C      1  0.4908800000000  0.5439340000000  0.4749160000000 1.0
C      1  0.5128460000000  0.5512820000000  0.5166050000000 1.0
C      1  0.4805410000000  0.5285490000000  0.5510230000000 1.0
C      1  0.5097960000000  0.4893600000000  0.5550340000000 1.0
C      1  0.4844730000000  0.4584370000000  0.5276370000000 1.0
C      1  0.5113770000000  0.4546040000000  0.4889030000000 1.0
C      1  0.4846160000000  0.4757420000000  0.4552590000000 1.0
C      1  0.5209500000000  0.5151510000000  0.4423480000000 1.0
C      1  0.5420750000000  0.4175340000000  0.4852540000000 1.0
C      1  0.4534260000000  0.4494770000000  0.4288720000000 1.0
C      1  0.5424420000000  0.5103640000000  0.3999580000000 1.0
C      1  0.4673440000000  0.5656470000000  0.4486360000000 1.0
C      1  0.5441050000000  0.5903380000000  0.5190940000000 1.0
C      1  0.4354660000000  0.5380380000000  0.5719140000000 1.0
C      1  0.5376450000000  0.4918280000000  0.5834650000000 1.0
C      1  0.4576260000000  0.4244680000000  0.5483040000000 1.0
C      1  0.5455710000000  0.4666820000000  0.5266490000000 1.0
C      1  0.4502260000000  0.4467620000000  0.4932790000000 1.0
C      1  0.5465000000000  0.4671320000000  0.4522170000000 1.0
C      1  0.4553300000000  0.5056370000000  0.4585530000000 1.0
C      1  0.5489720000000  0.5519400000000  0.4858380000000 1.0
C      1  0.4617180000000  0.5506470000000  0.5070240000000 1.0
C      1  0.5417000000000  0.5359670000000  0.5395170000000 1.0
C      1  0.4581920000000  0.4946530000000  0.5482290000000 1.0
C      1  0.4646350000000  0.3974640000000  0.4967550000000 1.0
C      1  0.5373450000000  0.4273960000000  0.4279970000000 1.0
C      1  0.4576200000000  0.5040800000000  0.4058230000000 1.0
C      1  0.5474760000000  0.5712040000000  0.4376570000000 1.0
C      1  0.4544810000000  0.6002440000000  0.5044140000000 1.0
C      1  0.5407550000000  0.5700430000000  0.5784250000000 1.0
C      1  0.4544140000000  0.4888960000000  0.6037940000000 1.0
C      1  0.5420240000000  0.4329000000000  0.5656210000000 1.0
C      1  0.5013120000000  0.5284950000000  0.5887320000000 1.0
C      1  0.4876200000000  0.4506240000000  0.5775030000000 1.0
C      1  0.5133020000000  0.4157430000000  0.5232790000000 1.0
C      1  0.4856470000000  0.4223750000000  0.4538590000000 1.0
C      1  0.5091160000000  0.4773730000000  0.4083370000000 1.0
C      1  0.4879080000000  0.5552800000000  0.4055770000000 1.0
C      1  0.5110110000000  0.5913470000000  0.4825240000000 1.0
C      1  0.4912550000000  0.5785260000000  0.5529920000000 1.0
C      1  0.5216620000000  0.4782450000000  0.5050870000000 1.0
C      1  0.4610760000000  0.4724990000000  0.4801880000000 1.0
C      1  0.5360550000000  0.4940930000000  0.4595600000000 1.0
C      1  0.4811610000000  0.5140000000000  0.4795990000000 1.0
C      1  0.5275870000000  0.5287950000000  0.4976010000000 1.0
C      1  0.4794650000000  0.5296280000000  0.5193110000000 1.0
C      1  0.5238090000000  0.5110770000000  0.5331960000000 1.0
C      1  0.4777980000000  0.4874470000000  0.5255280000000 1.0
C      1  0.5297300000000  0.5209860000000  0.5915910000000 1.0
C      1  0.4610030000000  0.4401810000000  0.5728680000000 1.0
C      1  0.5398110000000  0.4126320000000  0.5136060000000 1.0
C      1  0.4581350000000  0.4251410000000  0.4439970000000 1.0
C      1  0.5351520000000  0.4831970000000  0.3977510000000 1.0
C      1  0.4655650000000  0.5547800000000  0.4225210000000 1.0
C      1  0.5389480000000  0.5953460000000  0.4902400000000 1.0
C      1  0.4701530000000  0.5697070000000  0.5700630000000 1.0
C      1  0.5366850000000  0.5009920000000  0.4895420000000 1.0
C      1  0.4635670000000  0.4965840000000  0.4993180000000 1.0
C      1  0.5013630000000  0.5063210000000  0.5074500000000 1.0
END
