TITL C-2782225-7408-673 -0.000944851287541308 125000 -526.025770246127 0 0 93 (C1) n - 1
REM
REM in /home/nfs/bkarasulu/CARBON/AIRSS/Generating-Clusters/REBO/Higher-Symm/SD-CG/HFTN-CG
REM
REM
REM
REM
REM
REM ./C.cell (12c818d87b63d06a65506943cc24bca4)
REM
REM compiler GCC version 9.2.1 20190827 (Red Hat 9.2.1-1)
REM options -cpp -mtune=generic -march=x86-64 -g -O0 -fpre-include=/usr/include/finclude/math-vector-fortran.h
REM seed 425301952 -1650154951 1912047416 -724141616 1256758471 1374487925 -509039144 1219478091 -1006913159 -68832289 -1609735988 -610770464 -588761383 -28525914 662059578 -1836503693 -1644089468 -1080796566 527479115 878511355 1042627464 -889802324 -843037217 -1959149565 1521907183 -1635124458 -1002318929 2084111459 369635463 1565792158 -805804365 235677735 480418861
REM
CELL 1.54180   50.00000   50.00000   50.00000   90.00000   90.00000   90.00000
LATT -1
SFAC C  
C      1  0.4460390000000  0.5327510000000  0.4552400000000 1.0
C      1  0.4981690000000  0.5163970000000  0.6009050000000 1.0
C      1  0.5825150000000  0.5147780000000  0.4770510000000 1.0
C      1  0.5522600000000  0.5229500000000  0.5853250000000 1.0
C      1  0.4374800000000  0.4261710000000  0.5185500000000 1.0
C      1  0.4745570000000  0.4479350000000  0.4774940000000 1.0
C      1  0.5187550000000  0.4300850000000  0.4746500000000 1.0
C      1  0.5531680000000  0.4643050000000  0.4482750000000 1.0
C      1  0.5609610000000  0.5685710000000  0.5059270000000 1.0
C      1  0.4354420000000  0.4155340000000  0.4913770000000 1.0
C      1  0.5849360000000  0.5427950000000  0.4876640000000 1.0
C      1  0.5239400000000  0.4325090000000  0.5221800000000 1.0
C      1  0.5004650000000  0.4488060000000  0.4581900000000 1.0
C      1  0.4412970000000  0.4750540000000  0.4745200000000 1.0
C      1  0.4881500000000  0.4540420000000  0.5268310000000 1.0
C      1  0.5892930000000  0.4413310000000  0.5413910000000 1.0
C      1  0.5112660000000  0.4779840000000  0.5218800000000 1.0
C      1  0.4044980000000  0.5166960000000  0.4880870000000 1.0
C      1  0.5287390000000  0.5056190000000  0.4448390000000 1.0
C      1  0.4862770000000  0.5708200000000  0.4929000000000 1.0
C      1  0.4715920000000  0.5435350000000  0.4375130000000 1.0
C      1  0.5069620000000  0.5010360000000  0.5452470000000 1.0
C      1  0.5066300000000  0.5232830000000  0.5225330000000 1.0
C      1  0.4659430000000  0.4282520000000  0.5245160000000 1.0
C      1  0.5388240000000  0.5822750000000  0.4643730000000 1.0
C      1  0.4903330000000  0.4917400000000  0.4738450000000 1.0
C      1  0.4688480000000  0.4616020000000  0.5028480000000 1.0
C      1  0.5189190000000  0.4405660000000  0.5500930000000 1.0
C      1  0.5186620000000  0.4898440000000  0.4929130000000 1.0
C      1  0.5446580000000  0.4718510000000  0.4865150000000 1.0
C      1  0.5561370000000  0.5129010000000  0.4554590000000 1.0
C      1  0.5818910000000  0.5415740000000  0.5429580000000 1.0
C      1  0.3982910000000  0.5228890000000  0.5140710000000 1.0
C      1  0.5578010000000  0.5242340000000  0.5520800000000 1.0
C      1  0.4209660000000  0.4509920000000  0.5228580000000 1.0
C      1  0.5632770000000  0.5636510000000  0.4732330000000 1.0
C      1  0.4693240000000  0.5139880000000  0.5121250000000 1.0
C      1  0.4986280000000  0.4966290000000  0.4054710000000 1.0
C      1  0.5001980000000  0.4701240000000  0.4244120000000 1.0
C      1  0.5854580000000  0.5511900000000  0.5179170000000 1.0
C      1  0.5546940000000  0.5037790000000  0.5287970000000 1.0
C      1  0.5736940000000  0.4577090000000  0.5257080000000 1.0
C      1  0.4232470000000  0.5242250000000  0.5302640000000 1.0
C      1  0.4669460000000  0.5654060000000  0.4168570000000 1.0
C      1  0.5089200000000  0.5162610000000  0.4645800000000 1.0
C      1  0.4378560000000  0.5195530000000  0.4833600000000 1.0
C      1  0.5475470000000  0.5341720000000  0.4765180000000 1.0
C      1  0.4159170000000  0.4682930000000  0.4944300000000 1.0
C      1  0.5160650000000  0.5453750000000  0.4778680000000 1.0
C      1  0.4383740000000  0.5388290000000  0.5084690000000 1.0
C      1  0.4123960000000  0.4918370000000  0.4700130000000 1.0
C      1  0.4822910000000  0.4918990000000  0.4413580000000 1.0
C      1  0.5228550000000  0.5252910000000  0.5906430000000 1.0
C      1  0.4877920000000  0.5211070000000  0.4274730000000 1.0
C      1  0.4934680000000  0.4565900000000  0.5584110000000 1.0
C      1  0.5671240000000  0.4854020000000  0.4686170000000 1.0
C      1  0.4612760000000  0.4190890000000  0.4773110000000 1.0
C      1  0.5243810000000  0.4732420000000  0.4448020000000 1.0
C      1  0.4479670000000  0.4570340000000  0.4478180000000 1.0
C      1  0.4856790000000  0.5700550000000  0.5270100000000 1.0
C      1  0.5106470000000  0.5517970000000  0.5378210000000 1.0
C      1  0.4532020000000  0.4843440000000  0.4376900000000 1.0
C      1  0.5201620000000  0.5184030000000  0.4173570000000 1.0
C      1  0.5500040000000  0.4479760000000  0.5103650000000 1.0
C      1  0.5651110000000  0.4434910000000  0.4374740000000 1.0
C      1  0.5411700000000  0.4583450000000  0.5559910000000 1.0
C      1  0.5393440000000  0.4791120000000  0.5383870000000 1.0
C      1  0.4330260000000  0.4982900000000  0.5377400000000 1.0
C      1  0.4626460000000  0.5250520000000  0.5371070000000 1.0
C      1  0.5306130000000  0.5815910000000  0.5110160000000 1.0
C      1  0.4794690000000  0.5023860000000  0.5839020000000 1.0
C      1  0.5783780000000  0.4853350000000  0.5203120000000 1.0
C      1  0.5157900000000  0.5763440000000  0.4830170000000 1.0
C      1  0.4809710000000  0.4166650000000  0.5015460000000 1.0
C      1  0.4673540000000  0.5554220000000  0.4691390000000 1.0
C      1  0.5368210000000  0.5490720000000  0.5177360000000 1.0
C      1  0.4913480000000  0.4394350000000  0.4273550000000 1.0
C      1  0.4537070000000  0.5485320000000  0.5679400000000 1.0
C      1  0.5444860000000  0.4400920000000  0.4786970000000 1.0
C      1  0.4928320000000  0.4839040000000  0.5663140000000 1.0
C      1  0.5107460000000  0.5909120000000  0.5296080000000 1.0
C      1  0.5924060000000  0.4934630000000  0.4985370000000 1.0
C      1  0.4429430000000  0.4756430000000  0.5142690000000 1.0
C      1  0.4621160000000  0.5572710000000  0.5399420000000 1.0
C      1  0.4556290000000  0.5596490000000  0.5007080000000 1.0
C      1  0.4601750000000  0.5185010000000  0.5698670000000 1.0
C      1  0.5358890000000  0.5176820000000  0.5040510000000 1.0
C      1  0.4205850000000  0.4729460000000  0.5471010000000 1.0
C      1  0.4941050000000  0.5262480000000  0.4936070000000 1.0
C      1  0.5242480000000  0.5276570000000  0.5576970000000 1.0
C      1  0.5083030000000  0.4221550000000  0.5003260000000 1.0
C      1  0.4340460000000  0.5033900000000  0.4472390000000 1.0
C      1  0.4616900000000  0.4964580000000  0.4855790000000 1.0
END
