TITL C-2782229-3092-1142 -0.00341462249179892 125000 -621.831370419197 0 0 108 (C1) n - 1
REM
REM in /home/nfs/bkarasulu/CARBON/AIRSS/Generating-Clusters/REBO/Higher-Symm/SD-CG/HFTN-CG
REM
REM
REM
REM
REM
REM ./C.cell (12c818d87b63d06a65506943cc24bca4)
REM
REM compiler GCC version 9.2.1 20190827 (Red Hat 9.2.1-1)
REM options -cpp -mtune=generic -march=x86-64 -g -O0 -fpre-include=/usr/include/finclude/math-vector-fortran.h
REM seed -1928756910 557175021 1929645683 -337980593 1072914697 1132798555 -562159680 1032185433 -825373953 -885053076 1888141165 -1332932718 -461669152 460184071 1633046425 1533033491 1837351206 -53267749 1430127665 1885649 1609663990 -625491002 -64672849 -1344078212 1745324477 -892558916 -1713791633 -1331695506 -986921503 -1552541781 338107756 255995850 -807812894
REM
CELL 1.54180   50.00000   50.00000   50.00000   90.00000   90.00000   90.00000
LATT -1
SFAC C  
C      1  0.4513420000000  0.4660770000000  0.4909980000000 1.0
C      1  0.5210160000000  0.5899740000000  0.5016610000000 1.0
C      1  0.5767270000000  0.5434930000000  0.5414700000000 1.0
C      1  0.5346810000000  0.4428940000000  0.4306200000000 1.0
C      1  0.5684610000000  0.4307010000000  0.4919510000000 1.0
C      1  0.4709550000000  0.4899950000000  0.4857540000000 1.0
C      1  0.5115990000000  0.5227310000000  0.4399600000000 1.0
C      1  0.4432530000000  0.5341430000000  0.5379440000000 1.0
C      1  0.4894510000000  0.4706470000000  0.5032510000000 1.0
C      1  0.4333350000000  0.5016010000000  0.4938010000000 1.0
C      1  0.5316020000000  0.5038100000000  0.5552530000000 1.0
C      1  0.5294690000000  0.5589790000000  0.5310280000000 1.0
C      1  0.4830020000000  0.3995050000000  0.4656930000000 1.0
C      1  0.5167180000000  0.5172990000000  0.4085270000000 1.0
C      1  0.4197360000000  0.4939130000000  0.5477950000000 1.0
C      1  0.4611720000000  0.5636830000000  0.5730620000000 1.0
C      1  0.4818460000000  0.4888190000000  0.5644510000000 1.0
C      1  0.5252600000000  0.4399660000000  0.5502880000000 1.0
C      1  0.5780580000000  0.4952060000000  0.4967120000000 1.0
C      1  0.4896680000000  0.4392670000000  0.5883580000000 1.0
C      1  0.4627970000000  0.5126700000000  0.5060640000000 1.0
C      1  0.4661200000000  0.5825840000000  0.5278410000000 1.0
C      1  0.4337840000000  0.5793980000000  0.5258790000000 1.0
C      1  0.4867300000000  0.4597410000000  0.4649440000000 1.0
C      1  0.5620910000000  0.4495600000000  0.4351720000000 1.0
C      1  0.5776510000000  0.5252090000000  0.4831840000000 1.0
C      1  0.5650690000000  0.5188100000000  0.4458220000000 1.0
C      1  0.5026940000000  0.5810210000000  0.4489090000000 1.0
C      1  0.4488650000000  0.5392160000000  0.5678630000000 1.0
C      1  0.4271930000000  0.4767570000000  0.5649760000000 1.0
C      1  0.4664180000000  0.4839130000000  0.5937810000000 1.0
C      1  0.5085090000000  0.5651170000000  0.5543820000000 1.0
C      1  0.4444950000000  0.4182130000000  0.5310440000000 1.0
C      1  0.4722710000000  0.5664370000000  0.4440060000000 1.0
C      1  0.4483620000000  0.5232350000000  0.4359580000000 1.0
C      1  0.5603960000000  0.4722620000000  0.5238630000000 1.0
C      1  0.5872170000000  0.5052170000000  0.4595070000000 1.0
C      1  0.5197010000000  0.4679710000000  0.4249280000000 1.0
C      1  0.5192580000000  0.4662880000000  0.4906480000000 1.0
C      1  0.4628290000000  0.4660990000000  0.4527790000000 1.0
C      1  0.5192030000000  0.4120790000000  0.5066370000000 1.0
C      1  0.5270450000000  0.5463420000000  0.4239080000000 1.0
C      1  0.4231480000000  0.4765070000000  0.5068540000000 1.0
C      1  0.4798710000000  0.4361580000000  0.5601520000000 1.0
C      1  0.5391300000000  0.4162810000000  0.4839010000000 1.0
C      1  0.4864370000000  0.5001880000000  0.4611680000000 1.0
C      1  0.5309410000000  0.5261430000000  0.5749850000000 1.0
C      1  0.4865250000000  0.5561400000000  0.4711490000000 1.0
C      1  0.5404160000000  0.4860080000000  0.4630730000000 1.0
C      1  0.5562250000000  0.5601550000000  0.5351810000000 1.0
C      1  0.4744940000000  0.4583350000000  0.6035980000000 1.0
C      1  0.4278240000000  0.5359640000000  0.4599450000000 1.0
C      1  0.4900350000000  0.4393120000000  0.4919750000000 1.0
C      1  0.5606630000000  0.4944760000000  0.5475730000000 1.0
C      1  0.4546210000000  0.4096180000000  0.5072910000000 1.0
C      1  0.4441210000000  0.5037350000000  0.5318520000000 1.0
C      1  0.4972540000000  0.5860670000000  0.4813520000000 1.0
C      1  0.4480940000000  0.5543320000000  0.4394370000000 1.0
C      1  0.5279530000000  0.5313170000000  0.4865670000000 1.0
C      1  0.5038300000000  0.3890660000000  0.4223900000000 1.0
C      1  0.5899400000000  0.4749140000000  0.4721630000000 1.0
C      1  0.5114110000000  0.5106100000000  0.5319250000000 1.0
C      1  0.5165320000000  0.4324880000000  0.5754160000000 1.0
C      1  0.4526330000000  0.5633980000000  0.4929600000000 1.0
C      1  0.5475730000000  0.4811000000000  0.4942900000000 1.0
C      1  0.4578030000000  0.5136280000000  0.5840240000000 1.0
C      1  0.5032690000000  0.4026380000000  0.4464430000000 1.0
C      1  0.5071560000000  0.4380180000000  0.5214910000000 1.0
C      1  0.4557390000000  0.4674970000000  0.5580300000000 1.0
C      1  0.5189780000000  0.5367370000000  0.5137680000000 1.0
C      1  0.5359610000000  0.5159720000000  0.4585200000000 1.0
C      1  0.4832970000000  0.6008040000000  0.5075470000000 1.0
C      1  0.5103400000000  0.4778640000000  0.4535380000000 1.0
C      1  0.5247770000000  0.4218640000000  0.4533920000000 1.0
C      1  0.4871860000000  0.5290000000000  0.5166370000000 1.0
C      1  0.5002380000000  0.5298390000000  0.4694020000000 1.0
C      1  0.4264270000000  0.5492490000000  0.4872390000000 1.0
C      1  0.5804030000000  0.5172170000000  0.5467290000000 1.0
C      1  0.4795410000000  0.5788090000000  0.5553890000000 1.0
C      1  0.5313560000000  0.4903040000000  0.4083920000000 1.0
C      1  0.4245610000000  0.5533370000000  0.5191360000000 1.0
C      1  0.4432950000000  0.4360400000000  0.4776080000000 1.0
C      1  0.5629340000000  0.4792900000000  0.4402360000000 1.0
C      1  0.4910020000000  0.4578960000000  0.5409860000000 1.0
C      1  0.5721230000000  0.4496560000000  0.4651170000000 1.0
C      1  0.5298000000000  0.5690760000000  0.4421950000000 1.0
C      1  0.4709810000000  0.5077890000000  0.4345810000000 1.0
C      1  0.4584010000000  0.5896540000000  0.4892660000000 1.0
C      1  0.5520250000000  0.5332190000000  0.5910980000000 1.0
C      1  0.5587860000000  0.4932430000000  0.4157620000000 1.0
C      1  0.5420830000000  0.4658800000000  0.5496750000000 1.0
C      1  0.4512280000000  0.4341310000000  0.5529480000000 1.0
C      1  0.5491770000000  0.5692820000000  0.4661760000000 1.0
C      1  0.4215820000000  0.4464100000000  0.4977940000000 1.0
C      1  0.4747130000000  0.4138930000000  0.4881990000000 1.0
C      1  0.5066150000000  0.5397340000000  0.5709370000000 1.0
C      1  0.4859040000000  0.5102020000000  0.4119890000000 1.0
C      1  0.5108360000000  0.4779270000000  0.5556600000000 1.0
C      1  0.5386250000000  0.4471550000000  0.4716760000000 1.0
C      1  0.5566530000000  0.5433970000000  0.4785970000000 1.0
C      1  0.4301830000000  0.5047430000000  0.4661230000000 1.0
C      1  0.5445400000000  0.5887270000000  0.4874550000000 1.0
C      1  0.5809090000000  0.4607320000000  0.5021310000000 1.0
C      1  0.4423420000000  0.4842190000000  0.4509020000000 1.0
C      1  0.4679150000000  0.4793830000000  0.5282690000000 1.0
C      1  0.4849550000000  0.5223860000000  0.5685280000000 1.0
C      1  0.5052280000000  0.5896990000000  0.5311220000000 1.0
C      1  0.4644200000000  0.5503040000000  0.5194220000000 1.0
END
