TITL C-2782235-7892-1386 0.00150089595220216 125000 -671.050326772957 0 0 112 (C1) n - 1
REM
REM in /home/nfs/bkarasulu/CARBON/AIRSS/Generating-Clusters/REBO/Higher-Symm/SD-CG/HFTN-CG
REM
REM
REM
REM
REM
REM ./C.cell (12c818d87b63d06a65506943cc24bca4)
REM
REM compiler GCC version 9.2.1 20190827 (Red Hat 9.2.1-1)
REM options -cpp -mtune=generic -march=x86-64 -g -O0 -fpre-include=/usr/include/finclude/math-vector-fortran.h
REM seed -1321759288 -410239616 -1033384704 1600913182 -1441550194 2096036215 -237733243 -624595997 1337821155 1977024099 -302048960 1673965903 1383939072 2091594769 1102084801 -1159676702 -1164549514 276127328 952721189 -1669544629 772928400 -370090006 -1977261420 -1276108245 625835127 214986980 -2100799588 916709609 -2083592095 -881892782 -1107284597 -1878862606 773812969
REM
CELL 1.54180   50.00000   50.00000   50.00000   90.00000   90.00000   90.00000
LATT -1
SFAC C  
C      1  0.4898210000000  0.5468980000000  0.4196140000000 1.0
C      1  0.5333440000000  0.4111250000000  0.4810420000000 1.0
C      1  0.4219350000000  0.4768420000000  0.5391130000000 1.0
C      1  0.4878020000000  0.4546610000000  0.5769180000000 1.0
C      1  0.5224430000000  0.5466730000000  0.5828200000000 1.0
C      1  0.5128660000000  0.4555210000000  0.4192080000000 1.0
C      1  0.5396140000000  0.5905390000000  0.5192280000000 1.0
C      1  0.4572110000000  0.4058970000000  0.5215730000000 1.0
C      1  0.4537500000000  0.5835180000000  0.4796630000000 1.0
C      1  0.4254660000000  0.5103640000000  0.4546560000000 1.0
C      1  0.5776780000000  0.4740300000000  0.4635530000000 1.0
C      1  0.5787820000000  0.5244370000000  0.5366380000000 1.0
C      1  0.4822150000000  0.4040470000000  0.5430800000000 1.0
C      1  0.5402180000000  0.4751270000000  0.4203830000000 1.0
C      1  0.4210830000000  0.5359740000000  0.4766640000000 1.0
C      1  0.4797760000000  0.5891650000000  0.4604860000000 1.0
C      1  0.5162960000000  0.5895850000000  0.5409080000000 1.0
C      1  0.5084920000000  0.4138440000000  0.4594640000000 1.0
C      1  0.5441950000000  0.5222710000000  0.5817460000000 1.0
C      1  0.4647670000000  0.5246260000000  0.4139160000000 1.0
C      1  0.4613250000000  0.4759600000000  0.5794510000000 1.0
C      1  0.4256760000000  0.4562220000000  0.5123040000000 1.0
C      1  0.5742760000000  0.4539600000000  0.4898420000000 1.0
C      1  0.5761620000000  0.5446550000000  0.5097000000000 1.0
C      1  0.4612700000000  0.5204760000000  0.4989930000000 1.0
C      1  0.5196290000000  0.5006790000000  0.4592860000000 1.0
C      1  0.4962920000000  0.4573930000000  0.5249860000000 1.0
C      1  0.4595250000000  0.4806260000000  0.4994050000000 1.0
C      1  0.5397390000000  0.5268070000000  0.5008470000000 1.0
C      1  0.5395510000000  0.4748380000000  0.4997430000000 1.0
C      1  0.5215800000000  0.5017280000000  0.5432120000000 1.0
C      1  0.4818310000000  0.5003910000000  0.5444270000000 1.0
C      1  0.4802470000000  0.5021980000000  0.4537710000000 1.0
C      1  0.4969140000000  0.5471580000000  0.4743620000000 1.0
C      1  0.5003040000000  0.4552360000000  0.4735620000000 1.0
C      1  0.5003540000000  0.5457630000000  0.5255500000000 1.0
C      1  0.4623500000000  0.4994900000000  0.5236400000000 1.0
C      1  0.5186150000000  0.4548490000000  0.4995740000000 1.0
C      1  0.4993920000000  0.5269240000000  0.4545340000000 1.0
C      1  0.4594010000000  0.5023750000000  0.4736630000000 1.0
C      1  0.5395550000000  0.5017390000000  0.5205510000000 1.0
C      1  0.5382880000000  0.4998780000000  0.4808880000000 1.0
C      1  0.5189530000000  0.5474220000000  0.5006390000000 1.0
C      1  0.4793340000000  0.5429170000000  0.4998130000000 1.0
C      1  0.4791230000000  0.4599940000000  0.4993210000000 1.0
C      1  0.5002830000000  0.4759710000000  0.5457650000000 1.0
C      1  0.5023410000000  0.4757780000000  0.4540260000000 1.0
C      1  0.5024270000000  0.5259890000000  0.5457020000000 1.0
C      1  0.4175430000000  0.4555380000000  0.5617410000000 1.0
C      1  0.4629740000000  0.5636650000000  0.4208440000000 1.0
C      1  0.5576310000000  0.4132420000000  0.4621750000000 1.0
C      1  0.4212200000000  0.5360700000000  0.4368910000000 1.0
C      1  0.5813740000000  0.4520770000000  0.4409450000000 1.0
C      1  0.5819830000000  0.5464740000000  0.5588820000000 1.0
C      1  0.4627970000000  0.4362610000000  0.5775000000000 1.0
C      1  0.5425030000000  0.5708480000000  0.5805110000000 1.0
C      1  0.5358910000000  0.4356010000000  0.4215530000000 1.0
C      1  0.5646280000000  0.5878350000000  0.5367330000000 1.0
C      1  0.4344800000000  0.4130980000000  0.5417140000000 1.0
C      1  0.4315190000000  0.5821290000000  0.4567270000000 1.0
C      1  0.4145970000000  0.5590970000000  0.4561140000000 1.0
C      1  0.4591350000000  0.4135900000000  0.5605830000000 1.0
C      1  0.5620460000000  0.4519590000000  0.4198520000000 1.0
C      1  0.4198850000000  0.4372250000000  0.5369970000000 1.0
C      1  0.5766180000000  0.4343260000000  0.4657050000000 1.0
C      1  0.5803130000000  0.5641020000000  0.5338050000000 1.0
C      1  0.4577770000000  0.5839240000000  0.4401130000000 1.0
C      1  0.5418830000000  0.5892490000000  0.5588200000000 1.0
C      1  0.5340390000000  0.4155920000000  0.4416680000000 1.0
C      1  0.5621420000000  0.5472310000000  0.5795550000000 1.0
C      1  0.4401470000000  0.5429350000000  0.4164200000000 1.0
C      1  0.4382050000000  0.4543700000000  0.5816480000000 1.0
C      1  0.5407370000000  0.5796420000000  0.4915470000000 1.0
C      1  0.5697160000000  0.4988940000000  0.5464050000000 1.0
C      1  0.4934190000000  0.5522410000000  0.5741770000000 1.0
C      1  0.5377050000000  0.4211180000000  0.5088850000000 1.0
C      1  0.4487320000000  0.5682590000000  0.5033490000000 1.0
C      1  0.4536820000000  0.4177550000000  0.4963940000000 1.0
C      1  0.5678580000000  0.4994560000000  0.4541930000000 1.0
C      1  0.4420680000000  0.4827260000000  0.4435630000000 1.0
C      1  0.4316850000000  0.5024870000000  0.5487080000000 1.0
C      1  0.4819640000000  0.4505930000000  0.4306800000000 1.0
C      1  0.5191660000000  0.5550810000000  0.4344890000000 1.0
C      1  0.5179010000000  0.4453500000000  0.5642610000000 1.0
C      1  0.5516880000000  0.4979220000000  0.5690260000000 1.0
C      1  0.5610110000000  0.5547790000000  0.4820300000000 1.0
C      1  0.4905440000000  0.5760750000000  0.5494550000000 1.0
C      1  0.5489170000000  0.4999270000000  0.4322880000000 1.0
C      1  0.4518490000000  0.5023010000000  0.5703860000000 1.0
C      1  0.4593360000000  0.4977750000000  0.4201430000000 1.0
C      1  0.5595800000000  0.4452290000000  0.5175050000000 1.0
C      1  0.4399510000000  0.4459900000000  0.4831120000000 1.0
C      1  0.4306570000000  0.5456250000000  0.5024530000000 1.0
C      1  0.4805900000000  0.4278040000000  0.4522570000000 1.0
C      1  0.5100500000000  0.4162290000000  0.5485160000000 1.0
C      1  0.5087840000000  0.5813280000000  0.4520850000000 1.0
C      1  0.4733330000000  0.5663650000000  0.5240870000000 1.0
C      1  0.5634440000000  0.5223670000000  0.4766300000000 1.0
C      1  0.4772530000000  0.4321350000000  0.4833930000000 1.0
C      1  0.5100780000000  0.5759560000000  0.4839300000000 1.0
C      1  0.5081640000000  0.4282710000000  0.5188510000000 1.0
C      1  0.5634100000000  0.4773930000000  0.5237320000000 1.0
C      1  0.4372390000000  0.5224610000000  0.5236770000000 1.0
C      1  0.4355540000000  0.4783280000000  0.4760870000000 1.0
C      1  0.5267880000000  0.5230680000000  0.4345630000000 1.0
C      1  0.4768030000000  0.5244940000000  0.5682130000000 1.0
C      1  0.5277610000000  0.4768610000000  0.5658510000000 1.0
C      1  0.4847670000000  0.4820060000000  0.4266030000000 1.0
C      1  0.5397350000000  0.5679630000000  0.4587810000000 1.0
C      1  0.5401470000000  0.4315630000000  0.5420360000000 1.0
C      1  0.4757380000000  0.5807740000000  0.5797310000000 1.0
C      1  0.4559340000000  0.4527620000000  0.4534150000000 1.0
END
