TITL C-2782226-7400-704 0.00221603938267358 125000 -1085.97933733924 0 0 185 (C1) n - 1
REM
REM in /home/nfs/bkarasulu/CARBON/AIRSS/Generating-Clusters/REBO/Higher-Symm/SD-CG/HFTN-CG
REM
REM
REM
REM
REM
REM ./C.cell (12c818d87b63d06a65506943cc24bca4)
REM
REM compiler GCC version 9.2.1 20190827 (Red Hat 9.2.1-1)
REM options -cpp -mtune=generic -march=x86-64 -g -O0 -fpre-include=/usr/include/finclude/math-vector-fortran.h
REM seed -538626285 1137871495 33364970 -59834128 -1128367400 -1789385524 1427998671 -1600092782 -1937459416 1243325237 -1551333802 -1891338044 574572404 1779736377 1224868370 -457601198 -1168550116 -965397578 -1370037178 188060291 -1278461724 -852843952 -533026172 1168559478 -1426221993 884250109 -1187685923 -784435611 734233659 -479908257 1006816968 -470987153 -1005291969
REM
CELL 1.54180   50.00000   50.00000   50.00000   90.00000   90.00000   90.00000
LATT -1
SFAC C  
C      1  0.4512570000000  0.4960660000000  0.4374790000000 1.0
C      1  0.5146280000000  0.5153650000000  0.4237470000000 1.0
C      1  0.5586130000000  0.5120130000000  0.4503570000000 1.0
C      1  0.5642410000000  0.5175860000000  0.5185910000000 1.0
C      1  0.4952640000000  0.5130630000000  0.5736660000000 1.0
C      1  0.4491160000000  0.5101280000000  0.5446330000000 1.0
C      1  0.4250600000000  0.5079590000000  0.4997950000000 1.0
C      1  0.5513460000000  0.4517540000000  0.5618030000000 1.0
C      1  0.4909600000000  0.4661870000000  0.5646430000000 1.0
C      1  0.4249320000000  0.4347000000000  0.5522440000000 1.0
C      1  0.4281170000000  0.4342300000000  0.4645710000000 1.0
C      1  0.4616220000000  0.4441640000000  0.3957360000000 1.0
C      1  0.5498960000000  0.4663290000000  0.4156950000000 1.0
C      1  0.5749320000000  0.4403690000000  0.4802260000000 1.0
C      1  0.4146220000000  0.5112460000000  0.5746610000000 1.0
C      1  0.4019330000000  0.5157740000000  0.4787840000000 1.0
C      1  0.4487280000000  0.5135830000000  0.4128790000000 1.0
C      1  0.5573480000000  0.5347160000000  0.3811230000000 1.0
C      1  0.6090320000000  0.5182530000000  0.4841790000000 1.0
C      1  0.5940190000000  0.5182010000000  0.5746600000000 1.0
C      1  0.4947060000000  0.5212130000000  0.6129910000000 1.0
C      1  0.5599080000000  0.4813210000000  0.3944300000000 1.0
C      1  0.5985640000000  0.4570760000000  0.4865770000000 1.0
C      1  0.5710490000000  0.4626020000000  0.5815200000000 1.0
C      1  0.4741940000000  0.4761290000000  0.5925530000000 1.0
C      1  0.4033200000000  0.4559830000000  0.5664260000000 1.0
C      1  0.4117840000000  0.4552140000000  0.4723050000000 1.0
C      1  0.4594780000000  0.4702790000000  0.3865470000000 1.0
C      1  0.4799190000000  0.5221030000000  0.4740670000000 1.0
C      1  0.5038570000000  0.5331410000000  0.4579190000000 1.0
C      1  0.5296860000000  0.5317620000000  0.4785410000000 1.0
C      1  0.5379920000000  0.5347730000000  0.5097750000000 1.0
C      1  0.5156210000000  0.5196560000000  0.5255530000000 1.0
C      1  0.4892360000000  0.5349330000000  0.5283890000000 1.0
C      1  0.4727350000000  0.5406310000000  0.4990550000000 1.0
C      1  0.5294010000000  0.4533700000000  0.4924280000000 1.0
C      1  0.5175970000000  0.4654650000000  0.5222480000000 1.0
C      1  0.4867710000000  0.4734150000000  0.5335520000000 1.0
C      1  0.4636650000000  0.4550090000000  0.5196330000000 1.0
C      1  0.4667120000000  0.4417990000000  0.4889740000000 1.0
C      1  0.4934140000000  0.4464150000000  0.4673740000000 1.0
C      1  0.5196460000000  0.4677330000000  0.4629080000000 1.0
C      1  0.5135030000000  0.4206970000000  0.4011010000000 1.0
C      1  0.5532580000000  0.4415020000000  0.4467320000000 1.0
C      1  0.5704720000000  0.4399600000000  0.5292600000000 1.0
C      1  0.5233570000000  0.4475850000000  0.6003760000000 1.0
C      1  0.4497240000000  0.4320550000000  0.5855480000000 1.0
C      1  0.4379270000000  0.3814850000000  0.5466990000000 1.0
C      1  0.4537690000000  0.4346060000000  0.4238920000000 1.0
C      1  0.4308270000000  0.5640230000000  0.4575200000000 1.0
C      1  0.4869750000000  0.5577440000000  0.4126660000000 1.0
C      1  0.5705040000000  0.5623080000000  0.4363200000000 1.0
C      1  0.5842170000000  0.5625630000000  0.5148630000000 1.0
C      1  0.5422800000000  0.5658850000000  0.5750960000000 1.0
C      1  0.4864190000000  0.5422040000000  0.5746820000000 1.0
C      1  0.4158420000000  0.5428330000000  0.5312660000000 1.0
C      1  0.3988450000000  0.5451480000000  0.4893020000000 1.0
C      1  0.4432820000000  0.5406840000000  0.4200150000000 1.0
C      1  0.5481310000000  0.5587290000000  0.3927090000000 1.0
C      1  0.5961220000000  0.5405570000000  0.4727920000000 1.0
C      1  0.5840620000000  0.5404860000000  0.5589700000000 1.0
C      1  0.5092180000000  0.5449530000000  0.6073910000000 1.0
C      1  0.4227810000000  0.5384050000000  0.5766650000000 1.0
C      1  0.4650560000000  0.5112050000000  0.5080400000000 1.0
C      1  0.4748950000000  0.4906930000000  0.4854400000000 1.0
C      1  0.5006550000000  0.5010370000000  0.4471720000000 1.0
C      1  0.5220100000000  0.5006240000000  0.4719530000000 1.0
C      1  0.5385280000000  0.4841890000000  0.4939920000000 1.0
C      1  0.5324190000000  0.4939940000000  0.5239230000000 1.0
C      1  0.4793910000000  0.5027700000000  0.5345950000000 1.0
C      1  0.5191020000000  0.6107390000000  0.5724340000000 1.0
C      1  0.4578700000000  0.5991520000000  0.5628890000000 1.0
C      1  0.4237100000000  0.5861220000000  0.5262840000000 1.0
C      1  0.4515030000000  0.6060660000000  0.4401670000000 1.0
C      1  0.5154190000000  0.6083080000000  0.4332520000000 1.0
C      1  0.5631340000000  0.5961100000000  0.4563610000000 1.0
C      1  0.5600650000000  0.6070890000000  0.5290530000000 1.0
C      1  0.4572540000000  0.5795780000000  0.4486450000000 1.0
C      1  0.5198310000000  0.5778830000000  0.4320260000000 1.0
C      1  0.5613910000000  0.5753370000000  0.4744730000000 1.0
C      1  0.5614390000000  0.5761000000000  0.5304050000000 1.0
C      1  0.5182220000000  0.5836970000000  0.5650890000000 1.0
C      1  0.4579590000000  0.5700510000000  0.5533010000000 1.0
C      1  0.4358920000000  0.5760610000000  0.5034840000000 1.0
C      1  0.4633060000000  0.5603060000000  0.4245910000000 1.0
C      1  0.5495840000000  0.5691450000000  0.4212000000000 1.0
C      1  0.5842020000000  0.5623490000000  0.4869760000000 1.0
C      1  0.5644720000000  0.5624710000000  0.5588370000000 1.0
C      1  0.5026650000000  0.5647640000000  0.5839000000000 1.0
C      1  0.4268150000000  0.5566390000000  0.5530910000000 1.0
C      1  0.4205580000000  0.5632800000000  0.4833000000000 1.0
C      1  0.5004400000000  0.5313940000000  0.4059690000000 1.0
C      1  0.5433650000000  0.5140420000000  0.4223570000000 1.0
C      1  0.5756010000000  0.5003330000000  0.4957610000000 1.0
C      1  0.5555630000000  0.5083980000000  0.5718160000000 1.0
C      1  0.4642790000000  0.5092080000000  0.5710130000000 1.0
C      1  0.4299200000000  0.5184600000000  0.5255340000000 1.0
C      1  0.4330480000000  0.4991040000000  0.4603940000000 1.0
C      1  0.5344620000000  0.6311500000000  0.4932640000000 1.0
C      1  0.5365100000000  0.6199290000000  0.5193720000000 1.0
C      1  0.5117140000000  0.6101280000000  0.5297180000000 1.0
C      1  0.4874050000000  0.6208310000000  0.5202970000000 1.0
C      1  0.4766730000000  0.6082750000000  0.4974900000000 1.0
C      1  0.4926540000000  0.6110260000000  0.4725650000000 1.0
C      1  0.5160760000000  0.6260760000000  0.4735050000000 1.0
C      1  0.4556410000000  0.5473570000000  0.5786280000000 1.0
C      1  0.3908890000000  0.5437680000000  0.5167600000000 1.0
C      1  0.4229000000000  0.5444050000000  0.4392020000000 1.0
C      1  0.5164400000000  0.5671380000000  0.3995770000000 1.0
C      1  0.5814900000000  0.5363870000000  0.4476020000000 1.0
C      1  0.5879070000000  0.5362850000000  0.5290490000000 1.0
C      1  0.5367780000000  0.5474730000000  0.5952950000000 1.0
C      1  0.5264150000000  0.4670420000000  0.4317140000000 1.0
C      1  0.5605520000000  0.4903030000000  0.4699640000000 1.0
C      1  0.5572690000000  0.4961120000000  0.5422010000000 1.0
C      1  0.5095560000000  0.4884410000000  0.5790750000000 1.0
C      1  0.4363430000000  0.4668060000000  0.5473880000000 1.0
C      1  0.4440040000000  0.4838680000000  0.4889110000000 1.0
C      1  0.4795480000000  0.4811970000000  0.4361230000000 1.0
C      1  0.4327290000000  0.4751470000000  0.6008090000000 1.0
C      1  0.4018460000000  0.4783420000000  0.5159720000000 1.0
C      1  0.4208690000000  0.4750940000000  0.4222580000000 1.0
C      1  0.5076850000000  0.4879950000000  0.3921790000000 1.0
C      1  0.5950400000000  0.4698880000000  0.4378780000000 1.0
C      1  0.6030130000000  0.4753640000000  0.5449940000000 1.0
C      1  0.5361480000000  0.4883040000000  0.6229600000000 1.0
C      1  0.4401570000000  0.4070960000000  0.5461620000000 1.0
C      1  0.4492310000000  0.4217010000000  0.4490050000000 1.0
C      1  0.5071160000000  0.4198690000000  0.4257950000000 1.0
C      1  0.5394900000000  0.4215420000000  0.4491280000000 1.0
C      1  0.5625490000000  0.4225950000000  0.5137900000000 1.0
C      1  0.5217610000000  0.4313170000000  0.5786100000000 1.0
C      1  0.4715930000000  0.4187350000000  0.5763160000000 1.0
C      1  0.4963470000000  0.3674300000000  0.4724910000000 1.0
C      1  0.5177850000000  0.3803550000000  0.4860920000000 1.0
C      1  0.5173340000000  0.3771500000000  0.5142540000000 1.0
C      1  0.4943960000000  0.3741440000000  0.5292100000000 1.0
C      1  0.4680350000000  0.3738370000000  0.5215860000000 1.0
C      1  0.4561480000000  0.3767780000000  0.4968890000000 1.0
C      1  0.4709710000000  0.3807850000000  0.4728360000000 1.0
C      1  0.5971690000000  0.4894560000000  0.4222110000000 1.0
C      1  0.6156690000000  0.4930560000000  0.5327520000000 1.0
C      1  0.5527920000000  0.5097070000000  0.6197190000000 1.0
C      1  0.4362240000000  0.5001490000000  0.6109160000000 1.0
C      1  0.3811010000000  0.4953690000000  0.5198250000000 1.0
C      1  0.4070440000000  0.4944190000000  0.4289460000000 1.0
C      1  0.5152660000000  0.5090010000000  0.3763660000000 1.0
C      1  0.5228670000000  0.4759620000000  0.6013800000000 1.0
C      1  0.4407420000000  0.4582030000000  0.5801840000000 1.0
C      1  0.4292840000000  0.4724980000000  0.5173750000000 1.0
C      1  0.4509580000000  0.4648220000000  0.4281130000000 1.0
C      1  0.5037400000000  0.4751720000000  0.4169400000000 1.0
C      1  0.5720710000000  0.4646230000000  0.4576060000000 1.0
C      1  0.5731140000000  0.4691610000000  0.5422560000000 1.0
C      1  0.5339700000000  0.5648880000000  0.4838920000000 1.0
C      1  0.5343250000000  0.5662130000000  0.5179000000000 1.0
C      1  0.5106700000000  0.5790390000000  0.5346300000000 1.0
C      1  0.4805540000000  0.5660210000000  0.5298460000000 1.0
C      1  0.4669390000000  0.5782660000000  0.5015020000000 1.0
C      1  0.4807020000000  0.5796580000000  0.4700610000000 1.0
C      1  0.5093940000000  0.5646800000000  0.4601650000000 1.0
C      1  0.5799950000000  0.5124740000000  0.4248560000000 1.0
C      1  0.6038450000000  0.5133500000000  0.5149750000000 1.0
C      1  0.5512110000000  0.5235540000000  0.5950930000000 1.0
C      1  0.4507720000000  0.5189290000000  0.5968140000000 1.0
C      1  0.3735390000000  0.5216150000000  0.5224580000000 1.0
C      1  0.4095800000000  0.5195390000000  0.4482100000000 1.0
C      1  0.5161200000000  0.5387930000000  0.3798910000000 1.0
C      1  0.5802220000000  0.4896200000000  0.5780230000000 1.0
C      1  0.4824370000000  0.4973000000000  0.6080960000000 1.0
C      1  0.4140130000000  0.4845580000000  0.5667340000000 1.0
C      1  0.4073620000000  0.4821440000000  0.4734310000000 1.0
C      1  0.4542250000000  0.4971250000000  0.3901660000000 1.0
C      1  0.5548270000000  0.5096710000000  0.3941600000000 1.0
C      1  0.6031130000000  0.4851680000000  0.4865580000000 1.0
C      1  0.4894250000000  0.4350500000000  0.5558030000000 1.0
C      1  0.4592730000000  0.4334570000000  0.5412540000000 1.0
C      1  0.4708430000000  0.4053360000000  0.4586760000000 1.0
C      1  0.4993940000000  0.4188700000000  0.4555820000000 1.0
C      1  0.5247960000000  0.4062090000000  0.4735940000000 1.0
C      1  0.5447870000000  0.4277950000000  0.4882360000000 1.0
C      1  0.5209150000000  0.4456620000000  0.5479130000000 1.0
C      1  0.4933400000000  0.4688530000000  0.4929350000000 1.0
C      1  0.5103010000000  0.4197350000000  0.5193660000000 1.0
C      1  0.4955230000000  0.4368910000000  0.5055760000000 1.0
END
