TITL C-2782237-5345-1294 -0.00134062172407677 125000 -432.302175014991 0 0 76 (C1) n - 1
REM
REM in /home/nfs/bkarasulu/CARBON/AIRSS/Generating-Clusters/REBO/Higher-Symm/SD-CG/HFTN-CG
REM
REM
REM
REM
REM
REM ./C.cell (12c818d87b63d06a65506943cc24bca4)
REM
REM compiler GCC version 9.2.1 20190827 (Red Hat 9.2.1-1)
REM options -cpp -mtune=generic -march=x86-64 -g -O0 -fpre-include=/usr/include/finclude/math-vector-fortran.h
REM seed -2055812927 -1320997046 116428615 1759606366 163880545 1929288351 646739066 -1133785549 -1178518846 994242256 -729733016 -1298910358 1038115785 -1656290637 -1927383088 -26428131 -1880433764 -635186317 1992817539 -287612392 1716896636 1383490616 95882619 -264855904 -16736712 -952146651 1949728412 -1368789533 803842704 308874371 78081644 232001998 1299741827
REM
CELL 1.54180   50.00000   50.00000   50.00000   90.00000   90.00000   90.00000
LATT -1
SFAC C  
C      1  0.4509770000000  0.4472240000000  0.4824650000000 1.0
C      1  0.5099580000000  0.4296340000000  0.4834390000000 1.0
C      1  0.5600750000000  0.4654540000000  0.4823440000000 1.0
C      1  0.5625440000000  0.5267980000000  0.4848340000000 1.0
C      1  0.5173050000000  0.5665750000000  0.4809640000000 1.0
C      1  0.4578900000000  0.5566840000000  0.4811230000000 1.0
C      1  0.4280790000000  0.5040500000000  0.4810340000000 1.0
C      1  0.5649770000000  0.4579650000000  0.5358350000000 1.0
C      1  0.5765830000000  0.5213180000000  0.5417270000000 1.0
C      1  0.5275660000000  0.5727640000000  0.5389440000000 1.0
C      1  0.4626570000000  0.5620850000000  0.5430290000000 1.0
C      1  0.4242750000000  0.5126000000000  0.5358560000000 1.0
C      1  0.4446560000000  0.4477720000000  0.5364960000000 1.0
C      1  0.5085490000000  0.4245560000000  0.5379360000000 1.0
C      1  0.4661460000000  0.4805310000000  0.4326960000000 1.0
C      1  0.4941160000000  0.4616450000000  0.4345980000000 1.0
C      1  0.5261730000000  0.4720640000000  0.4338260000000 1.0
C      1  0.5381430000000  0.5037080000000  0.4329020000000 1.0
C      1  0.5213350000000  0.5320420000000  0.4311510000000 1.0
C      1  0.4881910000000  0.5368990000000  0.4301430000000 1.0
C      1  0.4636670000000  0.5140840000000  0.4306340000000 1.0
C      1  0.5195850000000  0.5282760000000  0.5652490000000 1.0
C      1  0.4916020000000  0.5303120000000  0.5762910000000 1.0
C      1  0.4684010000000  0.5160710000000  0.5587330000000 1.0
C      1  0.4689930000000  0.4842610000000  0.5576710000000 1.0
C      1  0.4946510000000  0.4671910000000  0.5589120000000 1.0
C      1  0.5246300000000  0.4759960000000  0.5601340000000 1.0
C      1  0.5370090000000  0.5017100000000  0.5680400000000 1.0
C      1  0.5466420000000  0.4552910000000  0.5529120000000 1.0
C      1  0.5633050000000  0.5064590000000  0.5607210000000 1.0
C      1  0.5318320000000  0.5572810000000  0.5581440000000 1.0
C      1  0.4748900000000  0.5552030000000  0.5634120000000 1.0
C      1  0.4371160000000  0.5218130000000  0.5557290000000 1.0
C      1  0.4453200000000  0.4654490000000  0.5547080000000 1.0
C      1  0.4946510000000  0.4367780000000  0.5551030000000 1.0
C      1  0.5063010000000  0.5496040000000  0.4556690000000 1.0
C      1  0.4642770000000  0.5385400000000  0.4542810000000 1.0
C      1  0.4451210000000  0.4973570000000  0.4534950000000 1.0
C      1  0.4673290000000  0.4547420000000  0.4543400000000 1.0
C      1  0.5163580000000  0.4483440000000  0.4560420000000 1.0
C      1  0.5485330000000  0.4828390000000  0.4566720000000 1.0
C      1  0.5424260000000  0.5270930000000  0.4573900000000 1.0
C      1  0.4631100000000  0.4851130000000  0.4799190000000 1.0
C      1  0.4877260000000  0.4626250000000  0.4805760000000 1.0
C      1  0.5202800000000  0.4682000000000  0.4830040000000 1.0
C      1  0.5357410000000  0.4971110000000  0.4844310000000 1.0
C      1  0.5226500000000  0.5271160000000  0.4844080000000 1.0
C      1  0.4919260000000  0.5358540000000  0.4829940000000 1.0
C      1  0.4655870000000  0.5176130000000  0.4811240000000 1.0
C      1  0.4656670000000  0.4480040000000  0.5134500000000 1.0
C      1  0.5231850000000  0.4383110000000  0.5136050000000 1.0
C      1  0.5628990000000  0.4794240000000  0.5132450000000 1.0
C      1  0.5611340000000  0.5372260000000  0.5173920000000 1.0
C      1  0.5103770000000  0.5645780000000  0.5143470000000 1.0
C      1  0.4577190000000  0.5487400000000  0.5144990000000 1.0
C      1  0.4390120000000  0.4975080000000  0.5129970000000 1.0
C      1  0.4335480000000  0.4721900000000  0.4916990000000 1.0
C      1  0.4795640000000  0.4300630000000  0.4886030000000 1.0
C      1  0.5417850000000  0.4412070000000  0.4860670000000 1.0
C      1  0.5704840000000  0.4972980000000  0.4866830000000 1.0
C      1  0.5429400000000  0.5525390000000  0.4945190000000 1.0
C      1  0.4854720000000  0.5680690000000  0.4930040000000 1.0
C      1  0.4374770000000  0.5324610000000  0.4936740000000 1.0
C      1  0.4846560000000  0.4705900000000  0.5237850000000 1.0
C      1  0.5162850000000  0.4665640000000  0.5258230000000 1.0
C      1  0.5372170000000  0.4920960000000  0.5258460000000 1.0
C      1  0.5373400000000  0.5247020000000  0.5356530000000 1.0
C      1  0.5072830000000  0.5363880000000  0.5269220000000 1.0
C      1  0.4773110000000  0.5277220000000  0.5288760000000 1.0
C      1  0.4680980000000  0.4975110000000  0.5235990000000 1.0
C      1  0.4994160000000  0.5005160000000  0.4422820000000 1.0
C      1  0.5001840000000  0.5014220000000  0.4160970000000 1.0
C      1  0.4893440000000  0.5267350000000  0.6063140000000 1.0
C      1  0.5082390000000  0.5048920000000  0.5181500000000 1.0
C      1  0.4987900000000  0.4991370000000  0.4686930000000 1.0
C      1  0.4973240000000  0.4982880000000  0.4954440000000 1.0
END
