TITL C-2782233-7966-360 7.37366890924263e-05 125000 -271.277963427136 0 0 49 (C1) n - 1
REM
REM in /home/nfs/bkarasulu/CARBON/AIRSS/Generating-Clusters/REBO/Higher-Symm/SD-CG/HFTN-CG
REM
REM
REM
REM
REM
REM ./C.cell (12c818d87b63d06a65506943cc24bca4)
REM
REM compiler GCC version 9.2.1 20190827 (Red Hat 9.2.1-1)
REM options -cpp -mtune=generic -march=x86-64 -g -O0 -fpre-include=/usr/include/finclude/math-vector-fortran.h
REM seed 1778524066 -386918022 -1178554179 -1498403603 -877903094 -1834834342 -1667900059 -974372447 881872386 -667773563 48261990 -1426508917 1019679038 950710835 1932415132 1811768389 1806237057 -1606391103 -2128910132 -1935900625 1163133921 1517769188 -1601274950 -733331303 -1893882750 -566992500 1163087555 -1548399015 -1169590136 1751447871 1716868936 1291738637 -28866448
REM
CELL 1.54180   50.00000   50.00000   50.00000   90.00000   90.00000   90.00000
LATT -1
SFAC C  
C      1  0.5434040000000  0.5298790000000  0.5380260000000 1.0
C      1  0.5357410000000  0.5424900000000  0.4866620000000 1.0
C      1  0.5385960000000  0.4983400000000  0.4568710000000 1.0
C      1  0.5342150000000  0.4548860000000  0.4875810000000 1.0
C      1  0.5364260000000  0.4799000000000  0.5479430000000 1.0
C      1  0.4575660000000  0.5318660000000  0.5358890000000 1.0
C      1  0.4600190000000  0.5431890000000  0.4834160000000 1.0
C      1  0.4548500000000  0.4984920000000  0.4540070000000 1.0
C      1  0.4681310000000  0.4572430000000  0.4873100000000 1.0
C      1  0.4592360000000  0.4812300000000  0.5491150000000 1.0
C      1  0.4791180000000  0.5178000000000  0.4412420000000 1.0
C      1  0.4838470000000  0.4531490000000  0.4606130000000 1.0
C      1  0.4770640000000  0.4615680000000  0.5363110000000 1.0
C      1  0.4855630000000  0.5297720000000  0.5539800000000 1.0
C      1  0.4792900000000  0.5640350000000  0.4956340000000 1.0
C      1  0.5121680000000  0.5158780000000  0.4492290000000 1.0
C      1  0.5173760000000  0.4486570000000  0.4622620000000 1.0
C      1  0.5240750000000  0.4562870000000  0.5370890000000 1.0
C      1  0.5193380000000  0.5323610000000  0.5595730000000 1.0
C      1  0.5128360000000  0.5599770000000  0.5001730000000 1.0
C      1  0.4471850000000  0.4688750000000  0.4631610000000 1.0
C      1  0.4367110000000  0.4686710000000  0.4939220000000 1.0
C      1  0.4429810000000  0.5024980000000  0.5348880000000 1.0
C      1  0.4411710000000  0.5304020000000  0.5070930000000 1.0
C      1  0.4420290000000  0.5150790000000  0.4764330000000 1.0
C      1  0.5508730000000  0.4699230000000  0.4620620000000 1.0
C      1  0.5650090000000  0.4686570000000  0.4915840000000 1.0
C      1  0.5547540000000  0.4996580000000  0.5345050000000 1.0
C      1  0.5573400000000  0.5295300000000  0.5085430000000 1.0
C      1  0.5531150000000  0.5147380000000  0.4779240000000 1.0
C      1  0.5144110000000  0.5034160000000  0.5456560000000 1.0
C      1  0.5155800000000  0.5335850000000  0.5198310000000 1.0
C      1  0.5136620000000  0.5178280000000  0.4831780000000 1.0
C      1  0.5144490000000  0.4762990000000  0.4461680000000 1.0
C      1  0.5172510000000  0.4674090000000  0.5085210000000 1.0
C      1  0.4828650000000  0.5010940000000  0.5369180000000 1.0
C      1  0.4837850000000  0.5367030000000  0.5147560000000 1.0
C      1  0.4814930000000  0.5204310000000  0.4742100000000 1.0
C      1  0.4798590000000  0.4781620000000  0.4426290000000 1.0
C      1  0.4849200000000  0.4719540000000  0.5077620000000 1.0
C      1  0.4979140000000  0.5482780000000  0.5774600000000 1.0
C      1  0.4990010000000  0.4477500000000  0.5483410000000 1.0
C      1  0.4977240000000  0.4245970000000  0.4532820000000 1.0
C      1  0.4994210000000  0.5891540000000  0.4963800000000 1.0
C      1  0.4997490000000  0.4973120000000  0.4235470000000 1.0
C      1  0.5180700000000  0.5003970000000  0.5115020000000 1.0
C      1  0.4791770000000  0.5044430000000  0.5041530000000 1.0
C      1  0.4330290000000  0.4972030000000  0.5040370000000 1.0
C      1  0.5659560000000  0.4966450000000  0.5037890000000 1.0
END
