TITL C-2782228-2999-681 -0.00263796430130474 125000 -1125.32899619682 0 0 196 (C1) n - 1
REM
REM in /home/nfs/bkarasulu/CARBON/AIRSS/Generating-Clusters/REBO/Higher-Symm/SD-CG/HFTN-CG
REM
REM
REM
REM
REM
REM ./C.cell (12c818d87b63d06a65506943cc24bca4)
REM
REM compiler GCC version 9.2.1 20190827 (Red Hat 9.2.1-1)
REM options -cpp -mtune=generic -march=x86-64 -g -O0 -fpre-include=/usr/include/finclude/math-vector-fortran.h
REM seed -407762519 -1691916187 -739893986 1268345978 -1966511809 -1796006941 1024069419 -1902758553 -1434074430 -1712172007 -763181774 -37798153 633525790 -1199545925 260302052 1221321571 1076258215 -942906352 -262004775 501326410 -708317847 -1078209498 -1187038606 -1781701856 1904605483 657666234 1498245504 1836552625 1078917407 2071278150 -652148961 -519838588 -642973206
REM
CELL 1.54180   50.00000   50.00000   50.00000   90.00000   90.00000   90.00000
LATT -1
SFAC C  
C      1  0.3979100000000  0.4932760000000  0.5413790000000 1.0
C      1  0.5281980000000  0.4389000000000  0.4039810000000 1.0
C      1  0.5661560000000  0.5115380000000  0.6139650000000 1.0
C      1  0.5231810000000  0.5778890000000  0.4301580000000 1.0
C      1  0.4833320000000  0.5564530000000  0.4644100000000 1.0
C      1  0.4989400000000  0.4642700000000  0.5492980000000 1.0
C      1  0.4068900000000  0.4386570000000  0.5141070000000 1.0
C      1  0.3972010000000  0.5441700000000  0.5286620000000 1.0
C      1  0.4944240000000  0.4424710000000  0.4606310000000 1.0
C      1  0.6013740000000  0.5458670000000  0.4653010000000 1.0
C      1  0.5414760000000  0.5993320000000  0.5513170000000 1.0
C      1  0.4382040000000  0.4972010000000  0.3770290000000 1.0
C      1  0.5843990000000  0.4715540000000  0.5622830000000 1.0
C      1  0.3968990000000  0.5163620000000  0.5162200000000 1.0
C      1  0.6181580000000  0.4942110000000  0.4912470000000 1.0
C      1  0.5930260000000  0.4623540000000  0.4327960000000 1.0
C      1  0.5425590000000  0.5968850000000  0.4755150000000 1.0
C      1  0.4616050000000  0.5627350000000  0.5438520000000 1.0
C      1  0.4717770000000  0.4537510000000  0.5914150000000 1.0
C      1  0.5028010000000  0.4212920000000  0.4933390000000 1.0
C      1  0.4596490000000  0.4837820000000  0.5033600000000 1.0
C      1  0.4800790000000  0.4574390000000  0.4131680000000 1.0
C      1  0.5796000000000  0.5226760000000  0.4607190000000 1.0
C      1  0.5137720000000  0.5553720000000  0.5973880000000 1.0
C      1  0.5450470000000  0.4820810000000  0.5059580000000 1.0
C      1  0.4225120000000  0.4846320000000  0.4325220000000 1.0
C      1  0.5536330000000  0.5691570000000  0.4308130000000 1.0
C      1  0.5113570000000  0.4870620000000  0.4982830000000 1.0
C      1  0.4322010000000  0.5382950000000  0.4153720000000 1.0
C      1  0.4261530000000  0.4225020000000  0.4835720000000 1.0
C      1  0.4518040000000  0.4445250000000  0.5407540000000 1.0
C      1  0.4380250000000  0.5151020000000  0.5063440000000 1.0
C      1  0.5188500000000  0.5700470000000  0.5663310000000 1.0
C      1  0.4827310000000  0.5204620000000  0.3764050000000 1.0
C      1  0.4179350000000  0.5342980000000  0.5733990000000 1.0
C      1  0.4805170000000  0.5475020000000  0.4360010000000 1.0
C      1  0.4535530000000  0.5239510000000  0.5477340000000 1.0
C      1  0.4580830000000  0.4107460000000  0.4456460000000 1.0
C      1  0.4935900000000  0.3869100000000  0.4746690000000 1.0
C      1  0.5703970000000  0.5722040000000  0.5466950000000 1.0
C      1  0.5071430000000  0.6059410000000  0.4320160000000 1.0
C      1  0.4117750000000  0.5546280000000  0.5549130000000 1.0
C      1  0.5923320000000  0.4879050000000  0.4195030000000 1.0
C      1  0.5154410000000  0.6067910000000  0.5299970000000 1.0
C      1  0.5533430000000  0.4952880000000  0.5704450000000 1.0
C      1  0.4116720000000  0.5211690000000  0.4856400000000 1.0
C      1  0.5704430000000  0.4447770000000  0.4286750000000 1.0
C      1  0.5036500000000  0.5073750000000  0.3946950000000 1.0
C      1  0.4478990000000  0.5306220000000  0.5810530000000 1.0
C      1  0.4502840000000  0.4054310000000  0.5331750000000 1.0
C      1  0.4658810000000  0.4798260000000  0.4740940000000 1.0
C      1  0.5770520000000  0.5787800000000  0.5138760000000 1.0
C      1  0.5059250000000  0.4118520000000  0.5593990000000 1.0
C      1  0.4920750000000  0.4654630000000  0.4815550000000 1.0
C      1  0.4989190000000  0.4993150000000  0.4464530000000 1.0
C      1  0.5637710000000  0.4286320000000  0.4528150000000 1.0
C      1  0.5415300000000  0.5400000000000  0.4910200000000 1.0
C      1  0.4324760000000  0.4645480000000  0.5882530000000 1.0
C      1  0.5239420000000  0.5315600000000  0.3956890000000 1.0
C      1  0.4518740000000  0.5927510000000  0.4458840000000 1.0
C      1  0.5243760000000  0.4949070000000  0.5701420000000 1.0
C      1  0.5154750000000  0.4900100000000  0.5315930000000 1.0
C      1  0.4701450000000  0.5238160000000  0.4989170000000 1.0
C      1  0.4481090000000  0.4725960000000  0.5524170000000 1.0
C      1  0.4190730000000  0.4811360000000  0.5651880000000 1.0
C      1  0.4644030000000  0.5123140000000  0.5994340000000 1.0
C      1  0.5120240000000  0.5204610000000  0.5726670000000 1.0
C      1  0.5969480000000  0.4907780000000  0.4726350000000 1.0
C      1  0.4119570000000  0.5114060000000  0.4446890000000 1.0
C      1  0.4303400000000  0.5738400000000  0.4737390000000 1.0
C      1  0.4897750000000  0.5744470000000  0.5822130000000 1.0
C      1  0.5806760000000  0.5215800000000  0.5181650000000 1.0
C      1  0.5495340000000  0.5565890000000  0.5323880000000 1.0
C      1  0.4748310000000  0.4093230000000  0.5019100000000 1.0
C      1  0.5451690000000  0.5072640000000  0.4824930000000 1.0
C      1  0.4367720000000  0.5063370000000  0.4673930000000 1.0
C      1  0.4043810000000  0.5098580000000  0.5697850000000 1.0
C      1  0.5517220000000  0.4499490000000  0.4973160000000 1.0
C      1  0.4421820000000  0.4486120000000  0.4983180000000 1.0
C      1  0.5555460000000  0.4308470000000  0.5219960000000 1.0
C      1  0.4349280000000  0.4900240000000  0.4024810000000 1.0
C      1  0.4646100000000  0.5560960000000  0.4913040000000 1.0
C      1  0.5427480000000  0.4067330000000  0.4595490000000 1.0
C      1  0.4870470000000  0.5023700000000  0.5472420000000 1.0
C      1  0.5498280000000  0.4855780000000  0.3994060000000 1.0
C      1  0.4805580000000  0.3874000000000  0.5244110000000 1.0
C      1  0.5393300000000  0.4663100000000  0.5368380000000 1.0
C      1  0.5168720000000  0.5923460000000  0.4595710000000 1.0
C      1  0.4517880000000  0.4730630000000  0.4458670000000 1.0
C      1  0.5374160000000  0.4918680000000  0.3757780000000 1.0
C      1  0.4659690000000  0.3983180000000  0.4718090000000 1.0
C      1  0.4625200000000  0.4402040000000  0.4723100000000 1.0
C      1  0.5907460000000  0.5287130000000  0.5676170000000 1.0
C      1  0.5969080000000  0.4632210000000  0.4610770000000 1.0
C      1  0.4752210000000  0.5397530000000  0.5261850000000 1.0
C      1  0.4667630000000  0.4367890000000  0.5142550000000 1.0
C      1  0.5226560000000  0.5657130000000  0.5160290000000 1.0
C      1  0.4140730000000  0.4826140000000  0.4743330000000 1.0
C      1  0.5658480000000  0.5808640000000  0.4607510000000 1.0
C      1  0.4834330000000  0.5285970000000  0.5634060000000 1.0
C      1  0.5248700000000  0.4390350000000  0.4861290000000 1.0
C      1  0.5320210000000  0.4189180000000  0.4308920000000 1.0
C      1  0.5672600000000  0.5013080000000  0.4152810000000 1.0
C      1  0.4977120000000  0.4383140000000  0.4012230000000 1.0
C      1  0.4938640000000  0.3869780000000  0.5511130000000 1.0
C      1  0.5962360000000  0.4673500000000  0.5227150000000 1.0
C      1  0.5437120000000  0.5473520000000  0.4066040000000 1.0
C      1  0.5124580000000  0.5415170000000  0.4751860000000 1.0
C      1  0.4519070000000  0.5961920000000  0.5223520000000 1.0
C      1  0.4983510000000  0.5919590000000  0.5542550000000 1.0
C      1  0.5287550000000  0.4967440000000  0.4544830000000 1.0
C      1  0.5244820000000  0.4551700000000  0.5904500000000 1.0
C      1  0.5067900000000  0.5403330000000  0.5274200000000 1.0
C      1  0.5747800000000  0.4904920000000  0.5202260000000 1.0
C      1  0.4145100000000  0.5573890000000  0.4341970000000 1.0
C      1  0.4115010000000  0.4604160000000  0.4500360000000 1.0
C      1  0.4777040000000  0.4788290000000  0.5265190000000 1.0
C      1  0.4835010000000  0.5961460000000  0.5240790000000 1.0
C      1  0.5356370000000  0.6097540000000  0.5031400000000 1.0
C      1  0.4810560000000  0.4257970000000  0.5779220000000 1.0
C      1  0.4549910000000  0.5265160000000  0.4373860000000 1.0
C      1  0.5578710000000  0.5271860000000  0.5686090000000 1.0
C      1  0.5493280000000  0.5728170000000  0.4962190000000 1.0
C      1  0.5189910000000  0.4464040000000  0.5197840000000 1.0
C      1  0.4594660000000  0.4959000000000  0.4230980000000 1.0
C      1  0.4337210000000  0.5762880000000  0.5402260000000 1.0
C      1  0.4399430000000  0.4985220000000  0.5346220000000 1.0
C      1  0.5633050000000  0.4828530000000  0.4688420000000 1.0
C      1  0.3950060000000  0.4633690000000  0.5254130000000 1.0
C      1  0.4868430000000  0.4174000000000  0.4435300000000 1.0
C      1  0.6011690000000  0.5320540000000  0.5392880000000 1.0
C      1  0.5545010000000  0.5131790000000  0.4401960000000 1.0
C      1  0.4826080000000  0.5824510000000  0.4960130000000 1.0
C      1  0.4759060000000  0.4791540000000  0.5690980000000 1.0
C      1  0.4590740000000  0.5108460000000  0.3658800000000 1.0
C      1  0.4614720000000  0.5550110000000  0.4101170000000 1.0
C      1  0.4295890000000  0.4762750000000  0.5105900000000 1.0
C      1  0.4702420000000  0.5076070000000  0.4605130000000 1.0
C      1  0.4376590000000  0.5466300000000  0.5018810000000 1.0
C      1  0.5108980000000  0.5750510000000  0.4862930000000 1.0
C      1  0.6198880000000  0.4758040000000  0.5120100000000 1.0
C      1  0.5811720000000  0.4998570000000  0.5517310000000 1.0
C      1  0.5251450000000  0.3932390000000  0.4758810000000 1.0
C      1  0.5728900000000  0.5360860000000  0.5960440000000 1.0
C      1  0.5076140000000  0.4436970000000  0.5689580000000 1.0
C      1  0.5891050000000  0.4101490000000  0.5266640000000 1.0
C      1  0.5264800000000  0.5190380000000  0.5311380000000 1.0
C      1  0.4979490000000  0.5148660000000  0.4883860000000 1.0
C      1  0.4058720000000  0.4500090000000  0.4819760000000 1.0
C      1  0.5346290000000  0.3965420000000  0.5180440000000 1.0
C      1  0.4912800000000  0.4550820000000  0.5111900000000 1.0
C      1  0.5646480000000  0.3975490000000  0.5153090000000 1.0
C      1  0.4330520000000  0.4389720000000  0.4549770000000 1.0
C      1  0.5844400000000  0.4420530000000  0.5353480000000 1.0
C      1  0.4907390000000  0.4894840000000  0.4162990000000 1.0
C      1  0.4535820000000  0.4214780000000  0.5630080000000 1.0
C      1  0.5683060000000  0.4295090000000  0.5996020000000 1.0
C      1  0.5722240000000  0.4486850000000  0.4747560000000 1.0
C      1  0.4679570000000  0.5560330000000  0.5732630000000 1.0
C      1  0.5022810000000  0.4143290000000  0.4204630000000 1.0
C      1  0.5465840000000  0.4602090000000  0.4146570000000 1.0
C      1  0.4088390000000  0.5481450000000  0.4665090000000 1.0
C      1  0.4953290000000  0.5270300000000  0.6014230000000 1.0
C      1  0.5551040000000  0.4532760000000  0.5857840000000 1.0
C      1  0.4683220000000  0.5867170000000  0.4661900000000 1.0
C      1  0.4358330000000  0.6209560000000  0.5054740000000 1.0
C      1  0.4416780000000  0.5454640000000  0.4607960000000 1.0
C      1  0.5864670000000  0.5665550000000  0.4835390000000 1.0
C      1  0.5424950000000  0.4673460000000  0.4466280000000 1.0
C      1  0.5733350000000  0.5359380000000  0.4915410000000 1.0
C      1  0.4377810000000  0.5927530000000  0.4912730000000 1.0
C      1  0.4918180000000  0.5451190000000  0.3979970000000 1.0
C      1  0.4399760000000  0.5750440000000  0.4272970000000 1.0
C      1  0.5162180000000  0.4783130000000  0.6055420000000 1.0
C      1  0.5593370000000  0.5488190000000  0.4563690000000 1.0
C      1  0.5294340000000  0.5358290000000  0.4461960000000 1.0
C      1  0.5264430000000  0.4206560000000  0.5370660000000 1.0
C      1  0.3999050000000  0.4869270000000  0.5023380000000 1.0
C      1  0.5316380000000  0.5413130000000  0.5647350000000 1.0
C      1  0.4543450000000  0.4799780000000  0.6026280000000 1.0
C      1  0.5263990000000  0.4427260000000  0.4546520000000 1.0
C      1  0.4293620000000  0.4157050000000  0.5167970000000 1.0
C      1  0.4187940000000  0.5611310000000  0.5165140000000 1.0
C      1  0.5094460000000  0.5509890000000  0.4268800000000 1.0
C      1  0.4582430000000  0.4430920000000  0.4329730000000 1.0
C      1  0.5081000000000  0.3836110000000  0.5044760000000 1.0
C      1  0.5563610000000  0.5822550000000  0.5716120000000 1.0
C      1  0.4926610000000  0.4936900000000  0.5952060000000 1.0
C      1  0.5544990000000  0.6010220000000  0.5242760000000 1.0
C      1  0.5520870000000  0.5290110000000  0.5291320000000 1.0
C      1  0.5644740000000  0.4816690000000  0.5976780000000 1.0
C      1  0.5601830000000  0.4537020000000  0.5544530000000 1.0
C      1  0.3909560000000  0.5254450000000  0.4389110000000 1.0
C      1  0.5474400000000  0.5582820000000  0.5914090000000 1.0
C      1  0.4342770000000  0.4374270000000  0.5835680000000 1.0
C      1  0.5387670000000  0.4926770000000  0.6158080000000 1.0
END
