TITL C-2782240-8521-286 0.00307423177785262 125000 -582.693479833625 0 0 97 (C1) n - 1
REM
REM in /home/nfs/bkarasulu/CARBON/AIRSS/Generating-Clusters/REBO/Higher-Symm/SD-CG/HFTN-CG
REM
REM
REM
REM
REM
REM ./C.cell (12c818d87b63d06a65506943cc24bca4)
REM
REM compiler GCC version 9.2.1 20190827 (Red Hat 9.2.1-1)
REM options -cpp -mtune=generic -march=x86-64 -g -O0 -fpre-include=/usr/include/finclude/math-vector-fortran.h
REM seed -757617769 -2101105319 1945901063 458741931 1937087664 -645329357 -488349941 1893480739 -651172058 662876791 1287570452 -27033748 -1119451552 257451684 -1854537354 -1094246328 -544598337 1546615580 -640367147 -1068556542 -25094232 1513823425 -330718888 1308117399 488944846 1173760374 272469727 -295225625 -1178719987 -1045232395 -141323204 -75832902 1217329611
REM
CELL 1.54180   50.00000   50.00000   50.00000   90.00000   90.00000   90.00000
LATT -1
SFAC C  
C      1  0.4545690000000  0.5411190000000  0.4438650000000 1.0
C      1  0.4845600000000  0.4364660000000  0.4438370000000 1.0
C      1  0.5627570000000  0.5207290000000  0.4421560000000 1.0
C      1  0.5460580000000  0.5442910000000  0.5588490000000 1.0
C      1  0.5148900000000  0.4364040000000  0.5589950000000 1.0
C      1  0.4419150000000  0.5153450000000  0.5514740000000 1.0
C      1  0.5147310000000  0.5687990000000  0.4464300000000 1.0
C      1  0.4259850000000  0.4810980000000  0.4495840000000 1.0
C      1  0.5506480000000  0.4531570000000  0.4479880000000 1.0
C      1  0.4845230000000  0.5678320000000  0.5509200000000 1.0
C      1  0.5655510000000  0.4799820000000  0.5509060000000 1.0
C      1  0.4487970000000  0.4511320000000  0.5513130000000 1.0
C      1  0.4604670000000  0.5028490000000  0.5697860000000 1.0
C      1  0.5162160000000  0.4635800000000  0.5719520000000 1.0
C      1  0.5225570000000  0.5322530000000  0.5728630000000 1.0
C      1  0.5420210000000  0.5039490000000  0.4292100000000 1.0
C      1  0.4829700000000  0.4634150000000  0.4316550000000 1.0
C      1  0.4769490000000  0.5310020000000  0.4279580000000 1.0
C      1  0.4751390000000  0.5901260000000  0.4737470000000 1.0
C      1  0.4328580000000  0.4374310000000  0.4778600000000 1.0
C      1  0.5861650000000  0.4762630000000  0.4759000000000 1.0
C      1  0.5210020000000  0.5874830000000  0.5216030000000 1.0
C      1  0.5653350000000  0.4375280000000  0.5226250000000 1.0
C      1  0.4169420000000  0.4748660000000  0.5182340000000 1.0
C      1  0.5129690000000  0.4045220000000  0.4957000000000 1.0
C      1  0.5768340000000  0.5583520000000  0.4968330000000 1.0
C      1  0.4104010000000  0.5388840000000  0.4958830000000 1.0
C      1  0.4867450000000  0.4028220000000  0.5028460000000 1.0
C      1  0.4223270000000  0.5611520000000  0.5060120000000 1.0
C      1  0.5907060000000  0.5365250000000  0.5054720000000 1.0
C      1  0.4289950000000  0.5295210000000  0.4440960000000 1.0
C      1  0.5088220000000  0.4239650000000  0.4463330000000 1.0
C      1  0.5615090000000  0.5481860000000  0.4436990000000 1.0
C      1  0.5687500000000  0.5295660000000  0.5542090000000 1.0
C      1  0.4917660000000  0.4220720000000  0.5549760000000 1.0
C      1  0.4411860000000  0.5427340000000  0.5509320000000 1.0
C      1  0.5767190000000  0.4517710000000  0.4586000000000 1.0
C      1  0.5022320000000  0.5916290000000  0.4573320000000 1.0
C      1  0.4151150000000  0.4583170000000  0.4618760000000 1.0
C      1  0.4234390000000  0.4518970000000  0.5390840000000 1.0
C      1  0.4956870000000  0.5914260000000  0.5398360000000 1.0
C      1  0.5807670000000  0.4590330000000  0.5396790000000 1.0
C      1  0.5088360000000  0.4649900000000  0.4702460000000 1.0
C      1  0.5296630000000  0.5306580000000  0.4801710000000 1.0
C      1  0.4809410000000  0.5113520000000  0.4814460000000 1.0
C      1  0.4901520000000  0.4610970000000  0.5297660000000 1.0
C      1  0.4776940000000  0.5262850000000  0.5186620000000 1.0
C      1  0.5317700000000  0.5099270000000  0.5221060000000 1.0
C      1  0.5075890000000  0.4767010000000  0.4321190000000 1.0
C      1  0.5137530000000  0.5177450000000  0.4359870000000 1.0
C      1  0.4772260000000  0.5026920000000  0.4313640000000 1.0
C      1  0.4916450000000  0.4781780000000  0.5660630000000 1.0
C      1  0.4856410000000  0.5177760000000  0.5691410000000 1.0
C      1  0.5227060000000  0.5028890000000  0.5698900000000 1.0
C      1  0.5016800000000  0.5305020000000  0.4648270000000 1.0
C      1  0.4761680000000  0.4880830000000  0.4623770000000 1.0
C      1  0.5190170000000  0.4937230000000  0.4600770000000 1.0
C      1  0.4996930000000  0.5236890000000  0.5412770000000 1.0
C      1  0.5209470000000  0.4882340000000  0.5409310000000 1.0
C      1  0.4787350000000  0.4881210000000  0.5363060000000 1.0
C      1  0.5014770000000  0.6106650000000  0.5122870000000 1.0
C      1  0.4006430000000  0.4478210000000  0.5144580000000 1.0
C      1  0.5951350000000  0.4433450000000  0.5131010000000 1.0
C      1  0.4962890000000  0.6114500000000  0.4843590000000 1.0
C      1  0.5976570000000  0.4481130000000  0.4851740000000 1.0
C      1  0.4022310000000  0.4398220000000  0.4869380000000 1.0
C      1  0.4711270000000  0.4364990000000  0.5355000000000 1.0
C      1  0.5635060000000  0.5059750000000  0.5337340000000 1.0
C      1  0.4638610000000  0.5540900000000  0.5323570000000 1.0
C      1  0.5284830000000  0.4402730000000  0.4650110000000 1.0
C      1  0.4199530000000  0.5073370000000  0.4595500000000 1.0
C      1  0.5385970000000  0.5583220000000  0.4628200000000 1.0
C      1  0.4773890000000  0.4553380000000  0.4703520000000 1.0
C      1  0.5490280000000  0.5073200000000  0.4685300000000 1.0
C      1  0.4701240000000  0.5418380000000  0.4704760000000 1.0
C      1  0.5216510000000  0.4561110000000  0.5331140000000 1.0
C      1  0.4535630000000  0.5048220000000  0.5241060000000 1.0
C      1  0.5269620000000  0.5409270000000  0.5337290000000 1.0
C      1  0.4498340000000  0.5668370000000  0.5085710000000 1.0
C      1  0.4678020000000  0.4228740000000  0.5086880000000 1.0
C      1  0.5800620000000  0.5106370000000  0.5087610000000 1.0
C      1  0.5495260000000  0.5631400000000  0.4922390000000 1.0
C      1  0.5307520000000  0.4259880000000  0.4916740000000 1.0
C      1  0.4175400000000  0.5127050000000  0.4877870000000 1.0
C      1  0.5394540000000  0.4743230000000  0.4318000000000 1.0
C      1  0.5029390000000  0.5485910000000  0.4294770000000 1.0
C      1  0.4537220000000  0.4790630000000  0.4383090000000 1.0
C      1  0.4599510000000  0.4720430000000  0.5676790000000 1.0
C      1  0.4957570000000  0.5495740000000  0.5710410000000 1.0
C      1  0.5445110000000  0.4780840000000  0.5711120000000 1.0
C      1  0.5391590000000  0.4403930000000  0.5143730000000 1.0
C      1  0.5321900000000  0.5634640000000  0.5144150000000 1.0
C      1  0.4300220000000  0.4963950000000  0.5077470000000 1.0
C      1  0.4587510000000  0.4387780000000  0.4870620000000 1.0
C      1  0.4644980000000  0.5671950000000  0.4847830000000 1.0
C      1  0.5716820000000  0.4974080000000  0.4855110000000 1.0
C      1  0.5068110000000  0.5188130000000  0.5024440000000 1.0
END
