TITL C-2782240-8521-847 0.00216725645446814 125000 -732.421678876914 0 0 126 (C1) n - 1
REM
REM in /home/nfs/bkarasulu/CARBON/AIRSS/Generating-Clusters/REBO/Higher-Symm/SD-CG/HFTN-CG
REM
REM
REM
REM
REM
REM ./C.cell (12c818d87b63d06a65506943cc24bca4)
REM
REM compiler GCC version 9.2.1 20190827 (Red Hat 9.2.1-1)
REM options -cpp -mtune=generic -march=x86-64 -g -O0 -fpre-include=/usr/include/finclude/math-vector-fortran.h
REM seed -1597083016 -859184528 214692307 1671938628 465092224 1578256850 -284792724 -1536839448 1677357344 -1771251167 479973858 87285390 -1224315587 360770543 60452217 979529553 345450764 -565418567 -1551787589 63612197 -1904184556 1784435354 -878111687 1113309131 -1325728319 -1059200623 10459171 800159483 -1858122216 -1899572453 -758905554 -1199023831 -71019863
REM
CELL 1.54180   50.00000   50.00000   50.00000   90.00000   90.00000   90.00000
LATT -1
SFAC C  
C      1  0.4763700000000  0.5039980000000  0.4693430000000 1.0
C      1  0.4783170000000  0.4740140000000  0.5112400000000 1.0
C      1  0.4861710000000  0.5053950000000  0.5204650000000 1.0
C      1  0.4836730000000  0.5316600000000  0.4989210000000 1.0
C      1  0.5074040000000  0.5079870000000  0.4723000000000 1.0
C      1  0.5304100000000  0.4946870000000  0.4902690000000 1.0
C      1  0.5174960000000  0.5036140000000  0.5269750000000 1.0
C      1  0.5155450000000  0.5282280000000  0.5057970000000 1.0
C      1  0.4673020000000  0.4693890000000  0.5475220000000 1.0
C      1  0.4938370000000  0.5602900000000  0.5145650000000 1.0
C      1  0.4834110000000  0.5279240000000  0.4477520000000 1.0
C      1  0.4869780000000  0.4669370000000  0.4797550000000 1.0
C      1  0.5272130000000  0.4747270000000  0.5417840000000 1.0
C      1  0.5277510000000  0.5574420000000  0.5175420000000 1.0
C      1  0.5165100000000  0.5326820000000  0.4518710000000 1.0
C      1  0.5159390000000  0.4691220000000  0.4755150000000 1.0
C      1  0.4408570000000  0.5045960000000  0.5433630000000 1.0
C      1  0.4460300000000  0.5467750000000  0.4932640000000 1.0
C      1  0.4419940000000  0.4878570000000  0.4567980000000 1.0
C      1  0.4421170000000  0.4499780000000  0.5083460000000 1.0
C      1  0.5535740000000  0.5047270000000  0.5436060000000 1.0
C      1  0.5610370000000  0.5422190000000  0.4943090000000 1.0
C      1  0.5554860000000  0.4979590000000  0.4518730000000 1.0
C      1  0.5406490000000  0.4457950000000  0.5112930000000 1.0
C      1  0.5310090000000  0.4432410000000  0.4829640000000 1.0
C      1  0.5563800000000  0.4733950000000  0.5573760000000 1.0
C      1  0.5578820000000  0.5494250000000  0.5274640000000 1.0
C      1  0.5696290000000  0.5249920000000  0.4395210000000 1.0
C      1  0.4588350000000  0.4512020000000  0.4848060000000 1.0
C      1  0.4355880000000  0.4721660000000  0.5514570000000 1.0
C      1  0.4613710000000  0.5580850000000  0.5180250000000 1.0
C      1  0.4330160000000  0.5177650000000  0.4442810000000 1.0
C      1  0.4596360000000  0.4364930000000  0.4344970000000 1.0
C      1  0.4644420000000  0.4376910000000  0.5719270000000 1.0
C      1  0.4649840000000  0.5634700000000  0.5658970000000 1.0
C      1  0.4581210000000  0.5580760000000  0.4260700000000 1.0
C      1  0.5390370000000  0.4494570000000  0.4369700000000 1.0
C      1  0.5343160000000  0.4345050000000  0.5772600000000 1.0
C      1  0.5287180000000  0.5613520000000  0.5732270000000 1.0
C      1  0.5358770000000  0.5609780000000  0.4313250000000 1.0
C      1  0.4076120000000  0.4810720000000  0.5395220000000 1.0
C      1  0.4193690000000  0.5553100000000  0.5336920000000 1.0
C      1  0.4145690000000  0.5134380000000  0.4704380000000 1.0
C      1  0.4129380000000  0.4510320000000  0.4810400000000 1.0
C      1  0.5832380000000  0.4782900000000  0.5399330000000 1.0
C      1  0.5905330000000  0.5460080000000  0.5208420000000 1.0
C      1  0.5929030000000  0.5214920000000  0.4600450000000 1.0
C      1  0.5770860000000  0.4570990000000  0.4764780000000 1.0
C      1  0.5266760000000  0.5231040000000  0.4228130000000 1.0
C      1  0.5165060000000  0.4205790000000  0.4674490000000 1.0
C      1  0.5203770000000  0.4805550000000  0.5747450000000 1.0
C      1  0.5243340000000  0.5863960000000  0.5321600000000 1.0
C      1  0.4792500000000  0.5176800000000  0.4163300000000 1.0
C      1  0.4849550000000  0.3957720000000  0.4444340000000 1.0
C      1  0.4810580000000  0.4869450000000  0.5713590000000 1.0
C      1  0.4847870000000  0.5887180000000  0.5279940000000 1.0
C      1  0.4827910000000  0.5481580000000  0.4134220000000 1.0
C      1  0.4852990000000  0.4223350000000  0.4308040000000 1.0
C      1  0.4843690000000  0.4557600000000  0.5810220000000 1.0
C      1  0.4848540000000  0.5845630000000  0.5578250000000 1.0
C      1  0.5111920000000  0.5514220000000  0.4169460000000 1.0
C      1  0.5138370000000  0.4335240000000  0.4393980000000 1.0
C      1  0.5126090000000  0.4517280000000  0.5841100000000 1.0
C      1  0.5140970000000  0.5827600000000  0.5590660000000 1.0
C      1  0.5982570000000  0.5625540000000  0.5006690000000 1.0
C      1  0.5939340000000  0.4935110000000  0.4432650000000 1.0
C      1  0.5865450000000  0.4406020000000  0.4979120000000 1.0
C      1  0.5910390000000  0.5053910000000  0.5553640000000 1.0
C      1  0.4104950000000  0.5725120000000  0.5118270000000 1.0
C      1  0.4031750000000  0.4918130000000  0.4490470000000 1.0
C      1  0.4130690000000  0.4266410000000  0.4939950000000 1.0
C      1  0.4015820000000  0.5079420000000  0.5480900000000 1.0
C      1  0.4247950000000  0.4747240000000  0.4326080000000 1.0
C      1  0.4339590000000  0.4212380000000  0.5154230000000 1.0
C      1  0.4261010000000  0.5240770000000  0.5653250000000 1.0
C      1  0.4279050000000  0.5723030000000  0.4887770000000 1.0
C      1  0.5724020000000  0.4850220000000  0.4230690000000 1.0
C      1  0.5677700000000  0.4302400000000  0.5166030000000 1.0
C      1  0.5650150000000  0.5199710000000  0.5717520000000 1.0
C      1  0.5759360000000  0.5692480000000  0.4828010000000 1.0
C      1  0.5240410000000  0.5102260000000  0.5590250000000 1.0
C      1  0.5323110000000  0.5409150000000  0.4803640000000 1.0
C      1  0.5267270000000  0.4902160000000  0.4509480000000 1.0
C      1  0.5172750000000  0.4464180000000  0.5325580000000 1.0
C      1  0.4711090000000  0.5090940000000  0.5475450000000 1.0
C      1  0.4690310000000  0.5432050000000  0.4716760000000 1.0
C      1  0.4706000000000  0.4762870000000  0.4529130000000 1.0
C      1  0.4873780000000  0.4485090000000  0.5301030000000 1.0
C      1  0.4201910000000  0.4711250000000  0.5146870000000 1.0
C      1  0.4191870000000  0.5251180000000  0.5261190000000 1.0
C      1  0.4238710000000  0.5238710000000  0.4950580000000 1.0
C      1  0.4303000000000  0.4795580000000  0.4843890000000 1.0
C      1  0.5628770000000  0.4705630000000  0.5180940000000 1.0
C      1  0.5797820000000  0.5149000000000  0.5244170000000 1.0
C      1  0.5807500000000  0.5161970000000  0.4908210000000 1.0
C      1  0.5792890000000  0.4868830000000  0.4735010000000 1.0
C      1  0.5105380000000  0.5339560000000  0.5744730000000 1.0
C      1  0.5349710000000  0.5674070000000  0.4592650000000 1.0
C      1  0.5197710000000  0.4924090000000  0.4184890000000 1.0
C      1  0.5317240000000  0.4239340000000  0.5503940000000 1.0
C      1  0.4797050000000  0.5334630000000  0.5696230000000 1.0
C      1  0.4602050000000  0.5682620000000  0.4530950000000 1.0
C      1  0.4746000000000  0.4715850000000  0.4228330000000 1.0
C      1  0.4711260000000  0.4263260000000  0.5463630000000 1.0
C      1  0.4456560000000  0.4592260000000  0.4183190000000 1.0
C      1  0.4523840000000  0.4096110000000  0.5331510000000 1.0
C      1  0.4469260000000  0.5381080000000  0.5788860000000 1.0
C      1  0.4398050000000  0.5842520000000  0.4656100000000 1.0
C      1  0.5449120000000  0.4721230000000  0.4203710000000 1.0
C      1  0.5558240000000  0.4139040000000  0.5379410000000 1.0
C      1  0.5434730000000  0.5329990000000  0.5853200000000 1.0
C      1  0.5570130000000  0.5837310000000  0.4679680000000 1.0
C      1  0.5593420000000  0.5460960000000  0.4248020000000 1.0
C      1  0.5542620000000  0.4475170000000  0.4623550000000 1.0
C      1  0.5582590000000  0.4507920000000  0.5780830000000 1.0
C      1  0.5571240000000  0.5576050000000  0.5574740000000 1.0
C      1  0.4374980000000  0.5378700000000  0.4257410000000 1.0
C      1  0.4510180000000  0.4366470000000  0.4618260000000 1.0
C      1  0.4379920000000  0.4486270000000  0.5721370000000 1.0
C      1  0.4460590000000  0.5616910000000  0.5412590000000 1.0
C      1  0.5074680000000  0.6074120000000  0.5170820000000 1.0
C      1  0.4901850000000  0.4920670000000  0.4118550000000 1.0
C      1  0.5013570000000  0.3964770000000  0.4672960000000 1.0
C      1  0.5010840000000  0.5018080000000  0.5926470000000 1.0
C      1  0.4591510000000  0.4924890000000  0.4924850000000 1.0
C      1  0.5517260000000  0.4932850000000  0.5053510000000 1.0
END
