TITL C-2782235-7892-525 0.00749066919864443 125000 -1167.26782350469 0 0 199 (C1) n - 1
REM
REM in /home/nfs/bkarasulu/CARBON/AIRSS/Generating-Clusters/REBO/Higher-Symm/SD-CG/HFTN-CG
REM
REM
REM
REM
REM
REM ./C.cell (12c818d87b63d06a65506943cc24bca4)
REM
REM compiler GCC version 9.2.1 20190827 (Red Hat 9.2.1-1)
REM options -cpp -mtune=generic -march=x86-64 -g -O0 -fpre-include=/usr/include/finclude/math-vector-fortran.h
REM seed -1168366282 -1785448261 1911021203 113520642 -1385504127 1102197654 -2091752563 50176284 413943493 902109308 -681427139 -915859295 1070383603 -149845026 -344871559 1157317075 -843383151 -2140011989 -1189088226 1155946995 -1178461592 1552988795 312237037 1401006699 -679581728 -1368912640 211241331 1554680801 -1128521027 1975247888 -1820661513 934729523 -1250677897
REM
CELL 1.54180   50.00000   50.00000   50.00000   90.00000   90.00000   90.00000
LATT -1
SFAC C  
C      1  0.4127840000000  0.5071270000000  0.4187050000000 1.0
C      1  0.4125990000000  0.4917970000000  0.5901990000000 1.0
C      1  0.5034350000000  0.4099370000000  0.5809520000000 1.0
C      1  0.5096410000000  0.5885080000000  0.4285670000000 1.0
C      1  0.4495590000000  0.5407830000000  0.4112160000000 1.0
C      1  0.4499870000000  0.4590540000000  0.5903610000000 1.0
C      1  0.5596440000000  0.5575660000000  0.4468340000000 1.0
C      1  0.5616230000000  0.4407580000000  0.5484520000000 1.0
C      1  0.5281930000000  0.4722470000000  0.4804650000000 1.0
C      1  0.5144990000000  0.5346480000000  0.5116110000000 1.0
C      1  0.5092860000000  0.4190870000000  0.4824540000000 1.0
C      1  0.5068360000000  0.5803870000000  0.5163770000000 1.0
C      1  0.3823680000000  0.5382710000000  0.4777100000000 1.0
C      1  0.3761520000000  0.4392400000000  0.5477220000000 1.0
C      1  0.5506640000000  0.5651930000000  0.5717400000000 1.0
C      1  0.5509650000000  0.4224100000000  0.4236900000000 1.0
C      1  0.5154890000000  0.4363700000000  0.5535190000000 1.0
C      1  0.5145580000000  0.5526610000000  0.4449220000000 1.0
C      1  0.5239420000000  0.4338260000000  0.5868520000000 1.0
C      1  0.5245080000000  0.5641470000000  0.4143780000000 1.0
C      1  0.4481680000000  0.4346180000000  0.5166350000000 1.0
C      1  0.4465450000000  0.5523470000000  0.4878170000000 1.0
C      1  0.5644540000000  0.4689180000000  0.5155390000000 1.0
C      1  0.5749660000000  0.5431650000000  0.5086860000000 1.0
C      1  0.5341610000000  0.5502740000000  0.5552310000000 1.0
C      1  0.5397070000000  0.4367480000000  0.4429210000000 1.0
C      1  0.4220420000000  0.5449840000000  0.4513080000000 1.0
C      1  0.4213630000000  0.4631410000000  0.5525580000000 1.0
C      1  0.5488310000000  0.5053840000000  0.4729800000000 1.0
C      1  0.5425790000000  0.5030020000000  0.5256190000000 1.0
C      1  0.4456000000000  0.4733250000000  0.5416140000000 1.0
C      1  0.4512890000000  0.5332870000000  0.4530640000000 1.0
C      1  0.4691670000000  0.5086950000000  0.5156510000000 1.0
C      1  0.4696040000000  0.4956830000000  0.4786290000000 1.0
C      1  0.4634600000000  0.5067620000000  0.4525610000000 1.0
C      1  0.4584050000000  0.4986780000000  0.5419270000000 1.0
C      1  0.4281200000000  0.5381360000000  0.5727920000000 1.0
C      1  0.4282020000000  0.4600530000000  0.4322480000000 1.0
C      1  0.5457900000000  0.4460810000000  0.4747210000000 1.0
C      1  0.5348920000000  0.5517360000000  0.5273720000000 1.0
C      1  0.5745080000000  0.4924350000000  0.4026090000000 1.0
C      1  0.5698670000000  0.5045980000000  0.5959340000000 1.0
C      1  0.5066750000000  0.4803040000000  0.4225180000000 1.0
C      1  0.4929810000000  0.5138070000000  0.5729840000000 1.0
C      1  0.4748130000000  0.5795220000000  0.5685550000000 1.0
C      1  0.4776590000000  0.4184170000000  0.4333090000000 1.0
C      1  0.4993040000000  0.4759130000000  0.3904160000000 1.0
C      1  0.4989820000000  0.5308850000000  0.6084260000000 1.0
C      1  0.5347310000000  0.5186560000000  0.3853560000000 1.0
C      1  0.5251980000000  0.4815200000000  0.6061150000000 1.0
C      1  0.4779080000000  0.5818090000000  0.4997860000000 1.0
C      1  0.4793360000000  0.4169540000000  0.4990290000000 1.0
C      1  0.5570620000000  0.4726580000000  0.5476960000000 1.0
C      1  0.5579850000000  0.5274680000000  0.4487910000000 1.0
C      1  0.4410130000000  0.5678330000000  0.5171230000000 1.0
C      1  0.4377230000000  0.4352140000000  0.4870370000000 1.0
C      1  0.4579190000000  0.4433920000000  0.4320940000000 1.0
C      1  0.4561810000000  0.5549830000000  0.5758440000000 1.0
C      1  0.4786770000000  0.4495170000000  0.4969920000000 1.0
C      1  0.4846110000000  0.5499110000000  0.5038500000000 1.0
C      1  0.4026390000000  0.5610530000000  0.5246990000000 1.0
C      1  0.3992780000000  0.4472040000000  0.4803250000000 1.0
C      1  0.5148920000000  0.4538660000000  0.4328640000000 1.0
C      1  0.5092410000000  0.5374550000000  0.5701520000000 1.0
C      1  0.5728460000000  0.5363070000000  0.5832630000000 1.0
C      1  0.5548670000000  0.4713720000000  0.4303070000000 1.0
C      1  0.5974870000000  0.4689060000000  0.5171670000000 1.0
C      1  0.5963440000000  0.5384360000000  0.4869090000000 1.0
C      1  0.4737470000000  0.5988120000000  0.5472780000000 1.0
C      1  0.4744140000000  0.3985160000000  0.4538810000000 1.0
C      1  0.4988190000000  0.4818150000000  0.5760570000000 1.0
C      1  0.5043780000000  0.5128800000000  0.4105200000000 1.0
C      1  0.4958280000000  0.5368690000000  0.4765220000000 1.0
C      1  0.4908940000000  0.4646160000000  0.5210100000000 1.0
C      1  0.5105400000000  0.4565220000000  0.6045670000000 1.0
C      1  0.5133860000000  0.5425610000000  0.3944690000000 1.0
C      1  0.5917990000000  0.5104070000000  0.5391870000000 1.0
C      1  0.5916520000000  0.4901300000000  0.4656790000000 1.0
C      1  0.4210440000000  0.5101980000000  0.5293470000000 1.0
C      1  0.4192990000000  0.4976510000000  0.4731860000000 1.0
C      1  0.5378580000000  0.4181620000000  0.5234890000000 1.0
C      1  0.5269670000000  0.6095270000000  0.4678950000000 1.0
C      1  0.5546920000000  0.4769280000000  0.5897370000000 1.0
C      1  0.5628540000000  0.5226430000000  0.4042010000000 1.0
C      1  0.4448360000000  0.4886470000000  0.4903720000000 1.0
C      1  0.4434660000000  0.5216100000000  0.5129120000000 1.0
C      1  0.4401440000000  0.4317760000000  0.4588590000000 1.0
C      1  0.4404550000000  0.5711730000000  0.5501830000000 1.0
C      1  0.5249850000000  0.4820520000000  0.5100690000000 1.0
C      1  0.5266950000000  0.5162070000000  0.4899240000000 1.0
C      1  0.5038240000000  0.6132350000000  0.5105050000000 1.0
C      1  0.5043420000000  0.3868900000000  0.4906790000000 1.0
C      1  0.4888130000000  0.4538270000000  0.5593230000000 1.0
C      1  0.5003030000000  0.5269530000000  0.4383460000000 1.0
C      1  0.4594300000000  0.4309440000000  0.5734340000000 1.0
C      1  0.4621610000000  0.5687390000000  0.4254570000000 1.0
C      1  0.5502140000000  0.4743790000000  0.3996700000000 1.0
C      1  0.5429700000000  0.5198600000000  0.5824110000000 1.0
C      1  0.5367700000000  0.5902110000000  0.5106040000000 1.0
C      1  0.5394940000000  0.4069460000000  0.4839030000000 1.0
C      1  0.4580580000000  0.5949110000000  0.5212940000000 1.0
C      1  0.4603140000000  0.4033760000000  0.4784850000000 1.0
C      1  0.4554340000000  0.4893790000000  0.4046580000000 1.0
C      1  0.4560620000000  0.5107550000000  0.6005850000000 1.0
C      1  0.5006700000000  0.3871320000000  0.4600560000000 1.0
C      1  0.4999040000000  0.6104980000000  0.5415290000000 1.0
C      1  0.5663260000000  0.5764720000000  0.4709970000000 1.0
C      1  0.5769140000000  0.4256100000000  0.5256100000000 1.0
C      1  0.4665430000000  0.5157700000000  0.5624740000000 1.0
C      1  0.4759710000000  0.4908880000000  0.4309330000000 1.0
C      1  0.5936640000000  0.5595960000000  0.4672830000000 1.0
C      1  0.5988550000000  0.4443910000000  0.5343540000000 1.0
C      1  0.4139050000000  0.5730040000000  0.4964920000000 1.0
C      1  0.4102360000000  0.4292790000000  0.5070580000000 1.0
C      1  0.5987370000000  0.5580640000000  0.4383810000000 1.0
C      1  0.5995140000000  0.4451980000000  0.5634180000000 1.0
C      1  0.5237110000000  0.3960770000000  0.5328880000000 1.0
C      1  0.5249170000000  0.6086320000000  0.4394470000000 1.0
C      1  0.5197390000000  0.5112360000000  0.6025980000000 1.0
C      1  0.5274030000000  0.4892930000000  0.3870320000000 1.0
C      1  0.4998230000000  0.5650790000000  0.5411510000000 1.0
C      1  0.5053860000000  0.4408250000000  0.4617970000000 1.0
C      1  0.4715390000000  0.5168340000000  0.4011410000000 1.0
C      1  0.4695500000000  0.4861550000000  0.5930630000000 1.0
C      1  0.5699700000000  0.5130690000000  0.5156430000000 1.0
C      1  0.5700080000000  0.4918410000000  0.4911360000000 1.0
C      1  0.4205530000000  0.4139300000000  0.4485800000000 1.0
C      1  0.4241160000000  0.5908060000000  0.5586280000000 1.0
C      1  0.5281450000000  0.5473370000000  0.4746010000000 1.0
C      1  0.5196680000000  0.4533490000000  0.5278430000000 1.0
C      1  0.4027860000000  0.5568620000000  0.4689940000000 1.0
C      1  0.4013280000000  0.4489370000000  0.5337890000000 1.0
C      1  0.4084140000000  0.4542830000000  0.4500510000000 1.0
C      1  0.4115050000000  0.5437650000000  0.5518560000000 1.0
C      1  0.5411870000000  0.4918790000000  0.4445720000000 1.0
C      1  0.5380860000000  0.5074650000000  0.5528240000000 1.0
C      1  0.5218380000000  0.5953140000000  0.5552150000000 1.0
C      1  0.5217090000000  0.3998830000000  0.4425270000000 1.0
C      1  0.5541870000000  0.5670630000000  0.4218320000000 1.0
C      1  0.5509690000000  0.4293940000000  0.5706180000000 1.0
C      1  0.5744890000000  0.4119470000000  0.4541360000000 1.0
C      1  0.5715880000000  0.5811330000000  0.5416890000000 1.0
C      1  0.5018520000000  0.6143240000000  0.4819780000000 1.0
C      1  0.5006250000000  0.3871850000000  0.5187490000000 1.0
C      1  0.6052130000000  0.5102990000000  0.4888070000000 1.0
C      1  0.6062790000000  0.4964920000000  0.5143060000000 1.0
C      1  0.5923560000000  0.5380710000000  0.5553300000000 1.0
C      1  0.5828490000000  0.4633130000000  0.4465650000000 1.0
C      1  0.3947080000000  0.5282250000000  0.5267660000000 1.0
C      1  0.3972520000000  0.4810010000000  0.4776030000000 1.0
C      1  0.4230990000000  0.4868170000000  0.5114890000000 1.0
C      1  0.4287970000000  0.5260780000000  0.4859010000000 1.0
C      1  0.5062240000000  0.4213560000000  0.4273770000000 1.0
C      1  0.5056050000000  0.5714590000000  0.5730730000000 1.0
C      1  0.4354930000000  0.5789910000000  0.4705560000000 1.0
C      1  0.4275290000000  0.4188390000000  0.5345800000000 1.0
C      1  0.5295270000000  0.4797840000000  0.5666630000000 1.0
C      1  0.5363040000000  0.5161940000000  0.4247640000000 1.0
C      1  0.5455530000000  0.5928740000000  0.4833110000000 1.0
C      1  0.5619760000000  0.4116670000000  0.5033510000000 1.0
C      1  0.5821500000000  0.4616340000000  0.5766780000000 1.0
C      1  0.5864130000000  0.5383620000000  0.4230720000000 1.0
C      1  0.4754590000000  0.4046980000000  0.5288130000000 1.0
C      1  0.4786570000000  0.5949190000000  0.4708530000000 1.0
C      1  0.4820060000000  0.5492420000000  0.4053220000000 1.0
C      1  0.4824550000000  0.4487300000000  0.5914560000000 1.0
C      1  0.4543270000000  0.5853200000000  0.4487050000000 1.0
C      1  0.4534120000000  0.4150360000000  0.5509000000000 1.0
C      1  0.4717200000000  0.5353860000000  0.5989240000000 1.0
C      1  0.4736960000000  0.4628220000000  0.4090510000000 1.0
C      1  0.4656290000000  0.4518030000000  0.5348330000000 1.0
C      1  0.4713100000000  0.5537370000000  0.4663350000000 1.0
C      1  0.5812990000000  0.4896180000000  0.5607380000000 1.0
C      1  0.5870570000000  0.5130000000000  0.4431780000000 1.0
C      1  0.4221610000000  0.4668040000000  0.5807320000000 1.0
C      1  0.4239910000000  0.5325780000000  0.4239070000000 1.0
C      1  0.5444980000000  0.4472920000000  0.5069270000000 1.0
C      1  0.5473530000000  0.5536150000000  0.4990150000000 1.0
C      1  0.3968400000000  0.5220710000000  0.4955090000000 1.0
C      1  0.3986060000000  0.4671490000000  0.5081370000000 1.0
C      1  0.5055470000000  0.4806190000000  0.4645970000000 1.0
C      1  0.5033190000000  0.5159780000000  0.5346650000000 1.0
C      1  0.4844080000000  0.4594910000000  0.4711420000000 1.0
C      1  0.4840390000000  0.5402070000000  0.5362330000000 1.0
C      1  0.5025030000000  0.5078530000000  0.4598080000000 1.0
C      1  0.4972860000000  0.4905420000000  0.5374060000000 1.0
C      1  0.5454910000000  0.5913150000000  0.5383940000000 1.0
C      1  0.5480110000000  0.4002080000000  0.4568180000000 1.0
C      1  0.4345820000000  0.3954530000000  0.4842480000000 1.0
C      1  0.4433410000000  0.6199310000000  0.5121430000000 1.0
C      1  0.4922180000000  0.5741610000000  0.4508600000000 1.0
C      1  0.4931080000000  0.4111040000000  0.5537020000000 1.0
C      1  0.5838160000000  0.5579810000000  0.5346340000000 1.0
C      1  0.5748240000000  0.4386410000000  0.4617230000000 1.0
C      1  0.4291500000000  0.5148560000000  0.5897500000000 1.0
C      1  0.4281420000000  0.4835800000000  0.4162200000000 1.0
C      1  0.5975910000000  0.5133470000000  0.5784530000000 1.0
C      1  0.5910560000000  0.4873350000000  0.4258270000000 1.0
C      1  0.4974010000000  0.4999160000000  0.4985580000000 1.0
END
