TITL C-2782233-7966-132 -0.0374917100664829 125000 -454.206543365854 0 0 81 (C1) n - 1
REM
REM in /home/nfs/bkarasulu/CARBON/AIRSS/Generating-Clusters/REBO/Higher-Symm/SD-CG/HFTN-CG
REM
REM
REM
REM
REM
REM ./C.cell (12c818d87b63d06a65506943cc24bca4)
REM
REM compiler GCC version 9.2.1 20190827 (Red Hat 9.2.1-1)
REM options -cpp -mtune=generic -march=x86-64 -g -O0 -fpre-include=/usr/include/finclude/math-vector-fortran.h
REM seed 485725618 -1681435092 -2082378381 373664663 -2037895272 -330092262 1845136990 311875805 -591546282 336481735 505757181 -2059528765 -300284187 1993954084 1977401329 323584236 -1988652572 -833624299 -880185023 -1200157125 1102472358 -1213321958 1975063814 -709038525 -1843720025 -633016252 -1962876044 507987281 599900294 -1812297603 1671566232 -1327018590 1099496892
REM
CELL 1.54180   50.00000   50.00000   50.00000   90.00000   90.00000   90.00000
LATT -1
SFAC C  
C      1  0.5727460000000  0.5070040000000  0.5710020000000 1.0
C      1  0.5727360000000  0.4921690000000  0.4290380000000 1.0
C      1  0.5771750000000  0.5192980000000  0.4284420000000 1.0
C      1  0.5766840000000  0.4797780000000  0.5717130000000 1.0
C      1  0.4844480000000  0.5643180000000  0.4504680000000 1.0
C      1  0.4843150000000  0.4369990000000  0.5489330000000 1.0
C      1  0.4846700000000  0.5705180000000  0.5431970000000 1.0
C      1  0.4827130000000  0.4305420000000  0.4563030000000 1.0
C      1  0.5176040000000  0.4774910000000  0.4830040000000 1.0
C      1  0.5179310000000  0.5236400000000  0.5162490000000 1.0
C      1  0.5185250000000  0.4733180000000  0.5126000000000 1.0
C      1  0.5185390000000  0.5275460000000  0.4865960000000 1.0
C      1  0.5063140000000  0.4270100000000  0.4702090000000 1.0
C      1  0.5086450000000  0.5736370000000  0.5298200000000 1.0
C      1  0.5111920000000  0.4291890000000  0.5383030000000 1.0
C      1  0.5109100000000  0.5723880000000  0.4620210000000 1.0
C      1  0.4312290000000  0.4448210000000  0.4904780000000 1.0
C      1  0.4323700000000  0.5579790000000  0.5103430000000 1.0
C      1  0.4332220000000  0.4432970000000  0.5157830000000 1.0
C      1  0.4326880000000  0.5575640000000  0.4850140000000 1.0
C      1  0.5471600000000  0.4695210000000  0.5283940000000 1.0
C      1  0.5472830000000  0.5308320000000  0.4710960000000 1.0
C      1  0.5452740000000  0.4695640000000  0.4688150000000 1.0
C      1  0.5455020000000  0.5290960000000  0.5307940000000 1.0
C      1  0.4836960000000  0.4484040000000  0.4344970000000 1.0
C      1  0.4847260000000  0.5526010000000  0.5648810000000 1.0
C      1  0.4750700000000  0.4556530000000  0.5732980000000 1.0
C      1  0.4771930000000  0.5469960000000  0.4244410000000 1.0
C      1  0.5192120000000  0.5072340000000  0.5991270000000 1.0
C      1  0.5194600000000  0.4928300000000  0.4004870000000 1.0
C      1  0.5215000000000  0.5176410000000  0.4011960000000 1.0
C      1  0.5208470000000  0.4823810000000  0.5983240000000 1.0
C      1  0.4423910000000  0.4853610000000  0.5256410000000 1.0
C      1  0.4415630000000  0.5160870000000  0.4747570000000 1.0
C      1  0.4395540000000  0.4852450000000  0.4748920000000 1.0
C      1  0.4407010000000  0.5168200000000  0.5255640000000 1.0
C      1  0.4540440000000  0.5915100000000  0.5088840000000 1.0
C      1  0.4665010000000  0.4101900000000  0.4866530000000 1.0
C      1  0.4553830000000  0.5904350000000  0.4838400000000 1.0
C      1  0.4678390000000  0.4099860000000  0.5117580000000 1.0
C      1  0.4144190000000  0.4900160000000  0.5382650000000 1.0
C      1  0.4127520000000  0.5121350000000  0.4635240000000 1.0
C      1  0.4101820000000  0.4812200000000  0.4635310000000 1.0
C      1  0.4118830000000  0.5207670000000  0.5384990000000 1.0
C      1  0.4971610000000  0.4710150000000  0.5566350000000 1.0
C      1  0.4977000000000  0.5306490000000  0.4424190000000 1.0
C      1  0.4959260000000  0.4725050000000  0.4402280000000 1.0
C      1  0.4963610000000  0.5281810000000  0.5592340000000 1.0
C      1  0.4904320000000  0.5193220000000  0.5288290000000 1.0
C      1  0.4899280000000  0.4818600000000  0.4705730000000 1.0
C      1  0.4921080000000  0.5214670000000  0.4722460000000 1.0
C      1  0.4922780000000  0.4797040000000  0.5268550000000 1.0
C      1  0.5708500000000  0.4739130000000  0.4854750000000 1.0
C      1  0.5701890000000  0.5259470000000  0.5143070000000 1.0
C      1  0.5715300000000  0.4741410000000  0.5105240000000 1.0
C      1  0.5714070000000  0.5261610000000  0.4892800000000 1.0
C      1  0.5290240000000  0.5581890000000  0.4801400000000 1.0
C      1  0.5286110000000  0.4425410000000  0.5189780000000 1.0
C      1  0.5267530000000  0.5554690000000  0.5140050000000 1.0
C      1  0.5267260000000  0.4454610000000  0.4851050000000 1.0
C      1  0.4609310000000  0.5654280000000  0.5263240000000 1.0
C      1  0.4575950000000  0.4376130000000  0.4729940000000 1.0
C      1  0.4621210000000  0.5626220000000  0.4695500000000 1.0
C      1  0.4630900000000  0.4366130000000  0.5279260000000 1.0
C      1  0.5465950000000  0.4809750000000  0.5558030000000 1.0
C      1  0.5468690000000  0.5186380000000  0.4439750000000 1.0
C      1  0.5445970000000  0.4844820000000  0.4427610000000 1.0
C      1  0.5448070000000  0.5150980000000  0.5570500000000 1.0
C      1  0.4629470000000  0.4681850000000  0.4836840000000 1.0
C      1  0.4638470000000  0.5339250000000  0.5155300000000 1.0
C      1  0.4645820000000  0.4679930000000  0.5150670000000 1.0
C      1  0.4642820000000  0.5331460000000  0.4840920000000 1.0
C      1  0.5295980000000  0.4476970000000  0.4153150000000 1.0
C      1  0.5304320000000  0.5521700000000  0.5844440000000 1.0
C      1  0.5298420000000  0.4398740000000  0.5756900000000 1.0
C      1  0.5319050000000  0.5600610000000  0.4233320000000 1.0
C      1  0.5241520000000  0.4674330000000  0.5714860000000 1.0
C      1  0.5250440000000  0.5328040000000  0.4278720000000 1.0
C      1  0.5226960000000  0.4738840000000  0.4245960000000 1.0
C      1  0.5230160000000  0.5261590000000  0.5750640000000 1.0
C      1  0.4897400000000  0.5007140000000  0.4996510000000 1.0
END
