TITL C-2782237-5345-167 0.0038333538934795 125000 -735.164521567619 0 0 125 (C1) n - 1
REM
REM in /home/nfs/bkarasulu/CARBON/AIRSS/Generating-Clusters/REBO/Higher-Symm/SD-CG/HFTN-CG
REM
REM
REM
REM
REM
REM ./C.cell (12c818d87b63d06a65506943cc24bca4)
REM
REM compiler GCC version 9.2.1 20190827 (Red Hat 9.2.1-1)
REM options -cpp -mtune=generic -march=x86-64 -g -O0 -fpre-include=/usr/include/finclude/math-vector-fortran.h
REM seed 303727811 623451038 838851826 -911349393 1034559449 -937775265 -2046061737 -1476859865 2085194630 -1960437023 -1759923864 -1128947938 1436169705 -1266055623 -824780435 -723397573 -1155940413 -462611008 1353130737 47790277 271843324 980537052 -707435655 -489297182 -1224354342 -1809597466 -1676100227 1285817160 -649441250 -1728280350 -1849160377 26634362 -1254547496
REM
CELL 1.54180   50.00000   50.00000   50.00000   90.00000   90.00000   90.00000
LATT -1
SFAC C  
C      1  0.4625660000000  0.4862420000000  0.5313970000000 1.0
C      1  0.4786770000000  0.4904450000000  0.4661020000000 1.0
C      1  0.5369110000000  0.4858650000000  0.4687820000000 1.0
C      1  0.5305490000000  0.4831010000000  0.5321270000000 1.0
C      1  0.5341280000000  0.5111310000000  0.5247180000000 1.0
C      1  0.5306420000000  0.5139420000000  0.4632580000000 1.0
C      1  0.4693020000000  0.5176630000000  0.4701690000000 1.0
C      1  0.4648250000000  0.5156960000000  0.5393390000000 1.0
C      1  0.4233730000000  0.5527820000000  0.4846740000000 1.0
C      1  0.5111730000000  0.5548940000000  0.4248280000000 1.0
C      1  0.5812160000000  0.5525580000000  0.5177750000000 1.0
C      1  0.4853450000000  0.5529260000000  0.5778070000000 1.0
C      1  0.5750610000000  0.4454800000000  0.4879520000000 1.0
C      1  0.4822070000000  0.4469470000000  0.4190910000000 1.0
C      1  0.4190630000000  0.4477980000000  0.5150580000000 1.0
C      1  0.5159470000000  0.4505520000000  0.5766330000000 1.0
C      1  0.5626350000000  0.4740910000000  0.4499420000000 1.0
C      1  0.5554230000000  0.4761000000000  0.5662070000000 1.0
C      1  0.4293590000000  0.4711030000000  0.5587030000000 1.0
C      1  0.4445050000000  0.4705220000000  0.4359770000000 1.0
C      1  0.4330220000000  0.5242510000000  0.4469660000000 1.0
C      1  0.4446320000000  0.5233510000000  0.5658840000000 1.0
C      1  0.5657260000000  0.5289940000000  0.5568770000000 1.0
C      1  0.5487750000000  0.5263590000000  0.4377040000000 1.0
C      1  0.5344880000000  0.4946750000000  0.5715190000000 1.0
C      1  0.4230300000000  0.4890030000000  0.5354980000000 1.0
C      1  0.4647920000000  0.4894310000000  0.4287820000000 1.0
C      1  0.5758710000000  0.4945060000000  0.4705910000000 1.0
C      1  0.4702570000000  0.5045960000000  0.5771210000000 1.0
C      1  0.5725600000000  0.5108760000000  0.5351780000000 1.0
C      1  0.5283390000000  0.5057040000000  0.4242130000000 1.0
C      1  0.4226340000000  0.5043180000000  0.4679640000000 1.0
C      1  0.5486340000000  0.4418170000000  0.5334460000000 1.0
C      1  0.4655840000000  0.4460790000000  0.5424130000000 1.0
C      1  0.4589450000000  0.4411290000000  0.4675730000000 1.0
C      1  0.5330280000000  0.4363120000000  0.4499640000000 1.0
C      1  0.4516280000000  0.5561430000000  0.5303390000000 1.0
C      1  0.5333560000000  0.5599180000000  0.5410030000000 1.0
C      1  0.5504400000000  0.5643100000000  0.4669040000000 1.0
C      1  0.4661280000000  0.5590720000000  0.4519160000000 1.0
C      1  0.4427180000000  0.5184740000000  0.4913840000000 1.0
C      1  0.5046200000000  0.5202140000000  0.4440110000000 1.0
C      1  0.5573330000000  0.5224670000000  0.5067470000000 1.0
C      1  0.4930190000000  0.5198150000000  0.5563950000000 1.0
C      1  0.5563710000000  0.4803450000000  0.4947700000000 1.0
C      1  0.4946080000000  0.4787690000000  0.4418080000000 1.0
C      1  0.4416360000000  0.4803530000000  0.5106260000000 1.0
C      1  0.5068070000000  0.4841670000000  0.5565810000000 1.0
C      1  0.5694960000000  0.5408890000000  0.4815670000000 1.0
C      1  0.5185190000000  0.5380130000000  0.5616560000000 1.0
C      1  0.4326450000000  0.5327790000000  0.5198100000000 1.0
C      1  0.4774230000000  0.5343910000000  0.4349030000000 1.0
C      1  0.4405550000000  0.4636630000000  0.4854470000000 1.0
C      1  0.4807030000000  0.4658890000000  0.5657740000000 1.0
C      1  0.5657880000000  0.4661480000000  0.5217260000000 1.0
C      1  0.5186690000000  0.4589810000000  0.4296580000000 1.0
C      1  0.5129570000000  0.4669630000000  0.4681920000000 1.0
C      1  0.5299420000000  0.4624400000000  0.5049230000000 1.0
C      1  0.4926110000000  0.4719070000000  0.5282160000000 1.0
C      1  0.4806000000000  0.4732400000000  0.4905720000000 1.0
C      1  0.4956550000000  0.5393290000000  0.4699600000000 1.0
C      1  0.4705360000000  0.5286650000000  0.5083200000000 1.0
C      1  0.5065870000000  0.5267950000000  0.5250980000000 1.0
C      1  0.5310210000000  0.5325240000000  0.4872860000000 1.0
C      1  0.5060950000000  0.4279240000000  0.4307990000000 1.0
C      1  0.5602100000000  0.4296290000000  0.5067670000000 1.0
C      1  0.4919670000000  0.4346010000000  0.5607850000000 1.0
C      1  0.4359290000000  0.4314920000000  0.4912720000000 1.0
C      1  0.4926740000000  0.5709850000000  0.4397570000000 1.0
C      1  0.4378140000000  0.5687290000000  0.5036530000000 1.0
C      1  0.5092620000000  0.5700020000000  0.5632670000000 1.0
C      1  0.5689460000000  0.5717960000000  0.4945410000000 1.0
C      1  0.5717030000000  0.5216630000000  0.4586570000000 1.0
C      1  0.5413660000000  0.5214920000000  0.5704780000000 1.0
C      1  0.4249760000000  0.5164210000000  0.5416000000000 1.0
C      1  0.4563220000000  0.5161170000000  0.4314040000000 1.0
C      1  0.4304680000000  0.4768650000000  0.4597240000000 1.0
C      1  0.4520670000000  0.4782430000000  0.5743790000000 1.0
C      1  0.5714450000000  0.4836970000000  0.5427050000000 1.0
C      1  0.5413360000000  0.4787440000000  0.4272730000000 1.0
C      1  0.4635170000000  0.4205410000000  0.5014530000000 1.0
C      1  0.4993430000000  0.4170130000000  0.4595630000000 1.0
C      1  0.5380740000000  0.4117530000000  0.4945660000000 1.0
C      1  0.5028430000000  0.4172410000000  0.5361660000000 1.0
C      1  0.5401320000000  0.5814500000000  0.5022730000000 1.0
C      1  0.5059950000000  0.5886890000000  0.4613860000000 1.0
C      1  0.4643690000000  0.5848100000000  0.4954700000000 1.0
C      1  0.4973010000000  0.5795690000000  0.5362800000000 1.0
C      1  0.4810740000000  0.3991690000000  0.5188460000000 1.0
C      1  0.4839530000000  0.4008870000000  0.4850110000000 1.0
C      1  0.5160570000000  0.3945430000000  0.4775190000000 1.0
C      1  0.5138080000000  0.3971240000000  0.5114980000000 1.0
C      1  0.5150800000000  0.5987450000000  0.5164120000000 1.0
C      1  0.5237790000000  0.6041190000000  0.4844260000000 1.0
C      1  0.4896750000000  0.6040630000000  0.4855320000000 1.0
C      1  0.4814660000000  0.6019160000000  0.5181920000000 1.0
C      1  0.4587310000000  0.4455510000000  0.4363680000000 1.0
C      1  0.5626880000000  0.4457160000000  0.4618080000000 1.0
C      1  0.5416370000000  0.4504780000000  0.5636120000000 1.0
C      1  0.4340670000000  0.4482500000000  0.5402520000000 1.0
C      1  0.5374320000000  0.5547980000000  0.4371670000000 1.0
C      1  0.4363660000000  0.5498640000000  0.4590180000000 1.0
C      1  0.4613880000000  0.5507090000000  0.5617680000000 1.0
C      1  0.5642620000000  0.5537010000000  0.5415330000000 1.0
C      1  0.5287360000000  0.4397260000000  0.4820470000000 1.0
C      1  0.5153430000000  0.4462050000000  0.5305460000000 1.0
C      1  0.4736060000000  0.4478000000000  0.5118500000000 1.0
C      1  0.4895250000000  0.4434770000000  0.4756430000000 1.0
C      1  0.4702900000000  0.5545100000000  0.4853570000000 1.0
C      1  0.4846080000000  0.5536130000000  0.5274390000000 1.0
C      1  0.5234930000000  0.5544070000000  0.5111250000000 1.0
C      1  0.5188070000000  0.5609840000000  0.4720180000000 1.0
C      1  0.5084310000000  0.4727300000000  0.5946870000000 1.0
C      1  0.4030870000000  0.4717870000000  0.5054830000000 1.0
C      1  0.4900140000000  0.4722700000000  0.4029750000000 1.0
C      1  0.5941350000000  0.4677420000000  0.4939170000000 1.0
C      1  0.4944570000000  0.5308960000000  0.5947250000000 1.0
C      1  0.5967140000000  0.5276670000000  0.5082900000000 1.0
C      1  0.5047860000000  0.5323910000000  0.4061230000000 1.0
C      1  0.4047330000000  0.5308640000000  0.4917480000000 1.0
C      1  0.5008330000000  0.5002010000000  0.4051360000000 1.0
C      1  0.5950660000000  0.4998160000000  0.4977420000000 1.0
C      1  0.4974120000000  0.4994090000000  0.5949360000000 1.0
C      1  0.4035130000000  0.4992470000000  0.4948550000000 1.0
C      1  0.4913070000000  0.5008840000000  0.5079810000000 1.0
END
