TITL C-2782234-8014-72 10.9569063413444 125000 -943.866317076938 0 0 164 (C1) n - 1
REM
REM in /home/nfs/bkarasulu/CARBON/AIRSS/Generating-Clusters/REBO/Higher-Symm/SD-CG/HFTN-CG
REM
REM
REM
REM
REM
REM ./C.cell (12c818d87b63d06a65506943cc24bca4)
REM
REM compiler GCC version 9.2.1 20190827 (Red Hat 9.2.1-1)
REM options -cpp -mtune=generic -march=x86-64 -g -O0 -fpre-include=/usr/include/finclude/math-vector-fortran.h
REM seed -653673730 -1702740276 -471532079 -1584617717 -296763148 903590625 -1483675171 170258279 1681401113 1999548328 814550297 906182483 154272625 -1811343615 1975688809 1734436319 474962555 1874836589 1242624635 1500806331 1425245653 -1240257610 1475835921 -1697464503 1232099619 -270940354 1558369080 -354877496 1632888366 533663742 -970322083 740913407 -2118942376
REM
CELL 1.54180   50.00000   50.00000   50.00000   90.00000   90.00000   90.00000
LATT -1
SFAC C  
C      1  0.5695670000000  0.4416680000000  0.4593500000000 1.0
C      1  0.5704830000000  0.5006230000000  0.4279210000000 1.0
C      1  0.5695660000000  0.5508380000000  0.4541200000000 1.0
C      1  0.5684700000000  0.5666480000000  0.5129470000000 1.0
C      1  0.5701190000000  0.5351490000000  0.5594480000000 1.0
C      1  0.5749840000000  0.4768010000000  0.5730190000000 1.0
C      1  0.5689060000000  0.4329210000000  0.5223230000000 1.0
C      1  0.4927020000000  0.4803700000000  0.5606980000000 1.0
C      1  0.4986940000000  0.4475500000000  0.5248210000000 1.0
C      1  0.5039220000000  0.4505130000000  0.4653450000000 1.0
C      1  0.4977510000000  0.5014780000000  0.4340780000000 1.0
C      1  0.4958770000000  0.5474620000000  0.4617620000000 1.0
C      1  0.4920880000000  0.5631090000000  0.5118310000000 1.0
C      1  0.4918260000000  0.5314000000000  0.5542930000000 1.0
C      1  0.5822960000000  0.5554490000000  0.5350000000000 1.0
C      1  0.5800500000000  0.5052630000000  0.5728720000000 1.0
C      1  0.5744140000000  0.4509270000000  0.5506770000000 1.0
C      1  0.5774850000000  0.4320240000000  0.4911600000000 1.0
C      1  0.5721320000000  0.4682030000000  0.4381160000000 1.0
C      1  0.5825950000000  0.5222930000000  0.4409620000000 1.0
C      1  0.5736690000000  0.5618160000000  0.4861150000000 1.0
C      1  0.5294970000000  0.4675740000000  0.4746610000000 1.0
C      1  0.5417560000000  0.4876180000000  0.4552940000000 1.0
C      1  0.5366510000000  0.5197090000000  0.4612860000000 1.0
C      1  0.5335080000000  0.5405070000000  0.4882350000000 1.0
C      1  0.5385670000000  0.5278910000000  0.5195550000000 1.0
C      1  0.5285920000000  0.5013340000000  0.5323980000000 1.0
C      1  0.5232220000000  0.4678330000000  0.5266800000000 1.0
C      1  0.5823180000000  0.5166280000000  0.5263580000000 1.0
C      1  0.5670250000000  0.4922190000000  0.5376630000000 1.0
C      1  0.5744790000000  0.4710080000000  0.5161660000000 1.0
C      1  0.5716900000000  0.4709120000000  0.4870020000000 1.0
C      1  0.5703350000000  0.4948250000000  0.4672650000000 1.0
C      1  0.5772070000000  0.5225550000000  0.4804130000000 1.0
C      1  0.5670550000000  0.5274520000000  0.5054800000000 1.0
C      1  0.4244160000000  0.5758290000000  0.5080870000000 1.0
C      1  0.4215520000000  0.5399930000000  0.5636970000000 1.0
C      1  0.4234500000000  0.4753620000000  0.5715880000000 1.0
C      1  0.4308190000000  0.4289690000000  0.5255800000000 1.0
C      1  0.4313200000000  0.4375460000000  0.4626560000000 1.0
C      1  0.4306350000000  0.4906110000000  0.4287810000000 1.0
C      1  0.4286030000000  0.5509180000000  0.4480700000000 1.0
C      1  0.4608810000000  0.4386200000000  0.5112470000000 1.0
C      1  0.4605720000000  0.4555320000000  0.4574900000000 1.0
C      1  0.4590180000000  0.5062250000000  0.4403860000000 1.0
C      1  0.4566600000000  0.5513600000000  0.4676520000000 1.0
C      1  0.4528340000000  0.5609390000000  0.5178280000000 1.0
C      1  0.4525760000000  0.5268800000000  0.5602200000000 1.0
C      1  0.4541560000000  0.4709760000000  0.5593170000000 1.0
C      1  0.4764530000000  0.5544700000000  0.5393750000000 1.0
C      1  0.4769750000000  0.5063420000000  0.5681200000000 1.0
C      1  0.4797270000000  0.4531670000000  0.5474190000000 1.0
C      1  0.4867560000000  0.4431770000000  0.4932220000000 1.0
C      1  0.4859480000000  0.4726060000000  0.4463960000000 1.0
C      1  0.4846540000000  0.5264490000000  0.4465610000000 1.0
C      1  0.4814460000000  0.5578840000000  0.4863710000000 1.0
C      1  0.4954280000000  0.5307400000000  0.4065280000000 1.0
C      1  0.4940380000000  0.5932880000000  0.4670360000000 1.0
C      1  0.4963640000000  0.5863770000000  0.5523630000000 1.0
C      1  0.4982970000000  0.5134590000000  0.6008710000000 1.0
C      1  0.5000130000000  0.4294630000000  0.5720970000000 1.0
C      1  0.4967090000000  0.4045920000000  0.4905890000000 1.0
C      1  0.4959910000000  0.4453190000000  0.4156300000000 1.0
C      1  0.4194240000000  0.5645020000000  0.4764920000000 1.0
C      1  0.4176810000000  0.5599690000000  0.5366710000000 1.0
C      1  0.4184570000000  0.5082810000000  0.5705280000000 1.0
C      1  0.4212730000000  0.4503830000000  0.5500180000000 1.0
C      1  0.4235260000000  0.4309150000000  0.4945380000000 1.0
C      1  0.4234990000000  0.4619790000000  0.4439420000000 1.0
C      1  0.4218050000000  0.5206580000000  0.4357490000000 1.0
C      1  0.5443230000000  0.5113370000000  0.4116330000000 1.0
C      1  0.5451340000000  0.5729830000000  0.4494320000000 1.0
C      1  0.5412370000000  0.5788620000000  0.5263750000000 1.0
C      1  0.5427430000000  0.5280960000000  0.5768030000000 1.0
C      1  0.5459430000000  0.4606430000000  0.5766160000000 1.0
C      1  0.5416900000000  0.4229110000000  0.5058300000000 1.0
C      1  0.5452130000000  0.4389890000000  0.4355830000000 1.0
C      1  0.4665970000000  0.4127500000000  0.5321800000000 1.0
C      1  0.4663820000000  0.4223300000000  0.4521320000000 1.0
C      1  0.4664310000000  0.4889370000000  0.4116220000000 1.0
C      1  0.4647820000000  0.5627440000000  0.4364220000000 1.0
C      1  0.4628360000000  0.5928410000000  0.5107590000000 1.0
C      1  0.4656390000000  0.5511630000000  0.5801030000000 1.0
C      1  0.4672420000000  0.4704720000000  0.5907510000000 1.0
C      1  0.4691210000000  0.4391180000000  0.5773940000000 1.0
C      1  0.4676460000000  0.4010700000000  0.5002570000000 1.0
C      1  0.4666700000000  0.4379210000000  0.4224470000000 1.0
C      1  0.4661470000000  0.5214450000000  0.4045010000000 1.0
C      1  0.4646430000000  0.5889220000000  0.4581190000000 1.0
C      1  0.4652090000000  0.5873490000000  0.5443670000000 1.0
C      1  0.4661750000000  0.5213650000000  0.5970070000000 1.0
C      1  0.4059310000000  0.5351900000000  0.4874010000000 1.0
C      1  0.4049760000000  0.5323980000000  0.5210080000000 1.0
C      1  0.4058890000000  0.5038930000000  0.5390610000000 1.0
C      1  0.4083330000000  0.4725230000000  0.5275790000000 1.0
C      1  0.4101210000000  0.4619390000000  0.4968360000000 1.0
C      1  0.4098320000000  0.4788720000000  0.4695240000000 1.0
C      1  0.4080080000000  0.5109440000000  0.4650440000000 1.0
C      1  0.5348230000000  0.4491850000000  0.5467580000000 1.0
C      1  0.5414170000000  0.4383660000000  0.4753660000000 1.0
C      1  0.5413150000000  0.4736170000000  0.4270360000000 1.0
C      1  0.5451420000000  0.5352380000000  0.4362610000000 1.0
C      1  0.5346710000000  0.5688250000000  0.4814910000000 1.0
C      1  0.5436990000000  0.5486540000000  0.5425160000000 1.0
C      1  0.5427660000000  0.4980580000000  0.5607960000000 1.0
C      1  0.4465320000000  0.5390930000000  0.4213250000000 1.0
C      1  0.4447860000000  0.5865010000000  0.4825990000000 1.0
C      1  0.4434470000000  0.5657360000000  0.5585730000000 1.0
C      1  0.4447040000000  0.4961310000000  0.5889110000000 1.0
C      1  0.4479280000000  0.4295920000000  0.5549950000000 1.0
C      1  0.4481000000000  0.4129640000000  0.4792640000000 1.0
C      1  0.4477860000000  0.4623610000000  0.4201050000000 1.0
C      1  0.5259650000000  0.4172960000000  0.5546770000000 1.0
C      1  0.5244720000000  0.4104520000000  0.4720130000000 1.0
C      1  0.5234570000000  0.4608090000000  0.4037200000000 1.0
C      1  0.5237080000000  0.5476240000000  0.4145110000000 1.0
C      1  0.5210530000000  0.5996950000000  0.4859080000000 1.0
C      1  0.5238880000000  0.5688980000000  0.5609690000000 1.0
C      1  0.5248390000000  0.4950270000000  0.5897990000000 1.0
C      1  0.4957940000000  0.4888950000000  0.4717080000000 1.0
C      1  0.5092820000000  0.5120020000000  0.4744580000000 1.0
C      1  0.5051410000000  0.5280030000000  0.4978920000000 1.0
C      1  0.4981230000000  0.5255250000000  0.5234680000000 1.0
C      1  0.4967290000000  0.4963270000000  0.5351280000000 1.0
C      1  0.4771980000000  0.4893600000000  0.5131890000000 1.0
C      1  0.4899550000000  0.4745400000000  0.4940460000000 1.0
C      1  0.4375430000000  0.5361550000000  0.5115570000000 1.0
C      1  0.4377090000000  0.5157180000000  0.5363840000000 1.0
C      1  0.4395840000000  0.4828860000000  0.5357770000000 1.0
C      1  0.4422220000000  0.4632100000000  0.5086520000000 1.0
C      1  0.4429990000000  0.4728440000000  0.4770450000000 1.0
C      1  0.4415800000000  0.5025550000000  0.4653090000000 1.0
C      1  0.4392440000000  0.5301380000000  0.4805100000000 1.0
C      1  0.6119730000000  0.5118950000000  0.5261780000000 1.0
C      1  0.6018210000000  0.4854050000000  0.5406580000000 1.0
C      1  0.6049840000000  0.4600610000000  0.5225130000000 1.0
C      1  0.6037150000000  0.4618270000000  0.4906290000000 1.0
C      1  0.6036760000000  0.4835970000000  0.4678280000000 1.0
C      1  0.6056530000000  0.5121490000000  0.4777660000000 1.0
C      1  0.6230500000000  0.5166700000000  0.5003290000000 1.0
C      1  0.5486830000000  0.4417360000000  0.4043430000000 1.0
C      1  0.5496330000000  0.5416030000000  0.3970720000000 1.0
C      1  0.5500300000000  0.5984800000000  0.4705970000000 1.0
C      1  0.5510690000000  0.5852470000000  0.5583880000000 1.0
C      1  0.5516830000000  0.5081110000000  0.6007290000000 1.0
C      1  0.5543150000000  0.4287410000000  0.5668450000000 1.0
C      1  0.5511160000000  0.3985930000000  0.4838410000000 1.0
C      1  0.5155680000000  0.5032820000000  0.4074120000000 1.0
C      1  0.5128550000000  0.5720290000000  0.4481390000000 1.0
C      1  0.5126030000000  0.5865440000000  0.5225800000000 1.0
C      1  0.5134520000000  0.5354790000000  0.5801360000000 1.0
C      1  0.5124500000000  0.4590340000000  0.5783760000000 1.0
C      1  0.5129070000000  0.4186720000000  0.5147350000000 1.0
C      1  0.5147740000000  0.4329530000000  0.4404020000000 1.0
C      1  0.4954600000000  0.4121350000000  0.5429610000000 1.0
C      1  0.4946650000000  0.4125220000000  0.4576850000000 1.0
C      1  0.4942850000000  0.4769950000000  0.4031360000000 1.0
C      1  0.4935750000000  0.5598430000000  0.4239730000000 1.0
C      1  0.4912550000000  0.6010670000000  0.5002430000000 1.0
C      1  0.4945440000000  0.5635020000000  0.5775140000000 1.0
C      1  0.4962080000000  0.4795400000000  0.6001760000000 1.0
C      1  0.4263210000000  0.4991480000000  0.5019380000000 1.0
C      1  0.5293030000000  0.4781170000000  0.5001790000000 1.0
C      1  0.4539010000000  0.5008930000000  0.5032330000000 1.0
END
