TITL C-2782230-7391-240 0.00329313277969753 125000 -1082.98807794438 0 0 184 (C1) n - 1
REM
REM in /home/nfs/bkarasulu/CARBON/AIRSS/Generating-Clusters/REBO/Higher-Symm/SD-CG/HFTN-CG
REM
REM
REM
REM
REM
REM ./C.cell (12c818d87b63d06a65506943cc24bca4)
REM
REM compiler GCC version 9.2.1 20190827 (Red Hat 9.2.1-1)
REM options -cpp -mtune=generic -march=x86-64 -g -O0 -fpre-include=/usr/include/finclude/math-vector-fortran.h
REM seed 2135025408 1132446904 -85396615 1709399931 1032489256 -1745350336 -2027837444 -695433662 -948375509 -1760313249 1313000630 2068795129 -362621767 -231908335 -1180570294 -2091520716 -247824744 -807754533 -903301321 -696508265 -459332062 -190069197 -1733041645 -875896993 -1877356936 -1408098671 -2087349132 138044899 -1119389974 633008107 1169168862 279613246 331708697
REM
CELL 1.54180   50.00000   50.00000   50.00000   90.00000   90.00000   90.00000
LATT -1
SFAC C  
C      1  0.5047420000000  0.5259200000000  0.5414140000000 1.0
C      1  0.4942630000000  0.4736780000000  0.5486110000000 1.0
C      1  0.5113230000000  0.4712240000000  0.4644380000000 1.0
C      1  0.4939650000000  0.5349970000000  0.4582830000000 1.0
C      1  0.5308910000000  0.5042810000000  0.5435930000000 1.0
C      1  0.4651600000000  0.4879940000000  0.5430920000000 1.0
C      1  0.4698030000000  0.5116560000000  0.4610630000000 1.0
C      1  0.5342040000000  0.4958770000000  0.4605180000000 1.0
C      1  0.5190940000000  0.5867290000000  0.4676510000000 1.0
C      1  0.4801870000000  0.4150180000000  0.4736060000000 1.0
C      1  0.5209040000000  0.4141460000000  0.5301670000000 1.0
C      1  0.4817520000000  0.5844110000000  0.5283640000000 1.0
C      1  0.5861280000000  0.5203360000000  0.4695380000000 1.0
C      1  0.4144650000000  0.4811410000000  0.4716250000000 1.0
C      1  0.4147770000000  0.5204020000000  0.5300830000000 1.0
C      1  0.5859840000000  0.4821610000000  0.5293480000000 1.0
C      1  0.5407420000000  0.5665360000000  0.4847460000000 1.0
C      1  0.4585930000000  0.4353530000000  0.4906250000000 1.0
C      1  0.5418570000000  0.4351470000000  0.5129490000000 1.0
C      1  0.4592900000000  0.5654810000000  0.5107050000000 1.0
C      1  0.5659770000000  0.5426580000000  0.4859800000000 1.0
C      1  0.4331730000000  0.4590200000000  0.4899570000000 1.0
C      1  0.4357330000000  0.5400910000000  0.5116000000000 1.0
C      1  0.5651550000000  0.4608450000000  0.5125370000000 1.0
C      1  0.5625950000000  0.4954430000000  0.6043290000000 1.0
C      1  0.4363350000000  0.5017780000000  0.6064810000000 1.0
C      1  0.5626230000000  0.5053390000000  0.3939840000000 1.0
C      1  0.4400590000000  0.4939650000000  0.3932440000000 1.0
C      1  0.4949760000000  0.5597060000000  0.6032730000000 1.0
C      1  0.5060600000000  0.4369530000000  0.6032090000000 1.0
C      1  0.5048250000000  0.5624360000000  0.3917670000000 1.0
C      1  0.4956220000000  0.4396140000000  0.3944880000000 1.0
C      1  0.4979520000000  0.4162490000000  0.4194350000000 1.0
C      1  0.5002450000000  0.5864210000000  0.4154720000000 1.0
C      1  0.5004130000000  0.5814030000000  0.5783840000000 1.0
C      1  0.5019110000000  0.4121040000000  0.5801480000000 1.0
C      1  0.4163810000000  0.4970340000000  0.4177940000000 1.0
C      1  0.5858100000000  0.5014560000000  0.4185540000000 1.0
C      1  0.5864040000000  0.5017130000000  0.5808470000000 1.0
C      1  0.4129630000000  0.4965350000000  0.5823210000000 1.0
C      1  0.5479340000000  0.4326790000000  0.4282900000000 1.0
C      1  0.4510370000000  0.5683620000000  0.4246570000000 1.0
C      1  0.5447030000000  0.5642090000000  0.5672880000000 1.0
C      1  0.4471690000000  0.4296640000000  0.5702810000000 1.0
C      1  0.4320060000000  0.5480470000000  0.4251690000000 1.0
C      1  0.5678280000000  0.4519470000000  0.4277520000000 1.0
C      1  0.5672890000000  0.5482480000000  0.5701030000000 1.0
C      1  0.4261920000000  0.4479630000000  0.5724920000000 1.0
C      1  0.5330690000000  0.5129770000000  0.5126920000000 1.0
C      1  0.4656100000000  0.4893350000000  0.5110580000000 1.0
C      1  0.5309950000000  0.4911910000000  0.4929170000000 1.0
C      1  0.4674380000000  0.5108420000000  0.4933310000000 1.0
C      1  0.5107990000000  0.5348890000000  0.5105120000000 1.0
C      1  0.4878450000000  0.4678270000000  0.5171210000000 1.0
C      1  0.4898300000000  0.5324600000000  0.4904500000000 1.0
C      1  0.5095020000000  0.4683130000000  0.4974010000000 1.0
C      1  0.4591020000000  0.5151190000000  0.5545350000000 1.0
C      1  0.5415050000000  0.4782200000000  0.5521820000000 1.0
C      1  0.4651440000000  0.4840080000000  0.4497770000000 1.0
C      1  0.5398740000000  0.5218260000000  0.4478850000000 1.0
C      1  0.5226620000000  0.4582780000000  0.5516100000000 1.0
C      1  0.4784530000000  0.5341510000000  0.5529740000000 1.0
C      1  0.4843230000000  0.4644300000000  0.4509580000000 1.0
C      1  0.5202360000000  0.5406180000000  0.4469640000000 1.0
C      1  0.6109340000000  0.5030360000000  0.4852050000000 1.0
C      1  0.3894910000000  0.4990220000000  0.4862600000000 1.0
C      1  0.6112660000000  0.4987210000000  0.5135830000000 1.0
C      1  0.3894130000000  0.5040310000000  0.5144230000000 1.0
C      1  0.5017050000000  0.6108380000000  0.4843260000000 1.0
C      1  0.4980220000000  0.3895830000000  0.4875590000000 1.0
C      1  0.4975130000000  0.6102600000000  0.5127060000000 1.0
C      1  0.5033760000000  0.3887050000000  0.5157670000000 1.0
C      1  0.4359920000000  0.5832520000000  0.4585600000000 1.0
C      1  0.5629200000000  0.4179100000000  0.4622670000000 1.0
C      1  0.4312430000000  0.4184940000000  0.5351280000000 1.0
C      1  0.5643170000000  0.5844960000000  0.5379280000000 1.0
C      1  0.5824850000000  0.4374250000000  0.4619840000000 1.0
C      1  0.4165280000000  0.5635870000000  0.4585720000000 1.0
C      1  0.4114940000000  0.4372660000000  0.5368680000000 1.0
C      1  0.5839010000000  0.5650480000000  0.5378320000000 1.0
C      1  0.4055760000000  0.5371690000000  0.4530430000000 1.0
C      1  0.5940520000000  0.4632900000000  0.4555080000000 1.0
C      1  0.4015970000000  0.4629520000000  0.5449270000000 1.0
C      1  0.5957800000000  0.5392000000000  0.5439740000000 1.0
C      1  0.5367750000000  0.4066460000000  0.4563850000000 1.0
C      1  0.4619380000000  0.5949390000000  0.4523470000000 1.0
C      1  0.4554690000000  0.4068620000000  0.5385920000000 1.0
C      1  0.5381360000000  0.5957050000000  0.5439940000000 1.0
C      1  0.5343000000000  0.5135680000000  0.6100860000000 1.0
C      1  0.4633830000000  0.4820870000000  0.6134560000000 1.0
C      1  0.5342980000000  0.4869730000000  0.3896870000000 1.0
C      1  0.4672870000000  0.5138440000000  0.3882170000000 1.0
C      1  0.5136080000000  0.5321760000000  0.6105770000000 1.0
C      1  0.4855840000000  0.4637080000000  0.6082240000000 1.0
C      1  0.4866200000000  0.5339120000000  0.3873620000000 1.0
C      1  0.5150100000000  0.4672410000000  0.3905840000000 1.0
C      1  0.5584190000000  0.5829600000000  0.4376800000000 1.0
C      1  0.4420750000000  0.4184060000000  0.4426650000000 1.0
C      1  0.5624690000000  0.4174890000000  0.5610400000000 1.0
C      1  0.4407880000000  0.5813590000000  0.5618490000000 1.0
C      1  0.5836930000000  0.5611350000000  0.4361990000000 1.0
C      1  0.4172310000000  0.4396210000000  0.4401230000000 1.0
C      1  0.4194250000000  0.5559360000000  0.5597020000000 1.0
C      1  0.5844870000000  0.4426320000000  0.5588290000000 1.0
C      1  0.4707670000000  0.5920770000000  0.4238210000000 1.0
C      1  0.5272150000000  0.4099120000000  0.4282990000000 1.0
C      1  0.4730820000000  0.4085120000000  0.5669710000000 1.0
C      1  0.5297160000000  0.5905600000000  0.5727180000000 1.0
C      1  0.5913600000000  0.4719910000000  0.4268860000000 1.0
C      1  0.4095530000000  0.5267810000000  0.4252400000000 1.0
C      1  0.4030590000000  0.4682720000000  0.5743390000000 1.0
C      1  0.5928220000000  0.5314140000000  0.5731430000000 1.0
C      1  0.4436700000000  0.4735000000000  0.4344600000000 1.0
C      1  0.5600730000000  0.5296530000000  0.4295670000000 1.0
C      1  0.4396730000000  0.5241880000000  0.5728570000000 1.0
C      1  0.5613470000000  0.4724030000000  0.5713940000000 1.0
C      1  0.4733640000000  0.4424220000000  0.4363840000000 1.0
C      1  0.5272860000000  0.5601160000000  0.4278110000000 1.0
C      1  0.5296160000000  0.4389250000000  0.5709640000000 1.0
C      1  0.4707660000000  0.5562970000000  0.5696160000000 1.0
C      1  0.5586950000000  0.4762170000000  0.4852060000000 1.0
C      1  0.4403670000000  0.5256650000000  0.4840610000000 1.0
C      1  0.5612950000000  0.5277950000000  0.5126380000000 1.0
C      1  0.4385120000000  0.4741050000000  0.5167030000000 1.0
C      1  0.4743980000000  0.5598770000000  0.4826610000000 1.0
C      1  0.5248410000000  0.4413220000000  0.4869950000000 1.0
C      1  0.5262140000000  0.5620080000000  0.5110750000000 1.0
C      1  0.4729370000000  0.4402090000000  0.5178670000000 1.0
C      1  0.4851330000000  0.5868670000000  0.4704560000000 1.0
C      1  0.5141320000000  0.4147090000000  0.4748590000000 1.0
C      1  0.4871650000000  0.4130030000000  0.5293820000000 1.0
C      1  0.5156430000000  0.5870120000000  0.5258470000000 1.0
C      1  0.5858770000000  0.4866370000000  0.4730690000000 1.0
C      1  0.4137110000000  0.5151460000000  0.4722210000000 1.0
C      1  0.4124220000000  0.4864190000000  0.5290400000000 1.0
C      1  0.5872410000000  0.5161110000000  0.5262920000000 1.0
C      1  0.5536190000000  0.4907050000000  0.4241960000000 1.0
C      1  0.4472530000000  0.5113300000000  0.4225210000000 1.0
C      1  0.5537140000000  0.5112550000000  0.5754430000000 1.0
C      1  0.4458780000000  0.4852620000000  0.5779950000000 1.0
C      1  0.4884310000000  0.5545430000000  0.4212090000000 1.0
C      1  0.5111730000000  0.4474570000000  0.4249620000000 1.0
C      1  0.5093180000000  0.5479380000000  0.5742950000000 1.0
C      1  0.4901470000000  0.4438030000000  0.5743660000000 1.0
C      1  0.4423250000000  0.5885310000000  0.5293530000000 1.0
C      1  0.5603390000000  0.4111540000000  0.5286360000000 1.0
C      1  0.4349430000000  0.4236710000000  0.4717920000000 1.0
C      1  0.5648380000000  0.5776130000000  0.4669010000000 1.0
C      1  0.5778530000000  0.4366530000000  0.5298740000000 1.0
C      1  0.4248270000000  0.5629350000000  0.5306900000000 1.0
C      1  0.4096050000000  0.4417690000000  0.4723500000000 1.0
C      1  0.5900250000000  0.5597360000000  0.4687670000000 1.0
C      1  0.5364080000000  0.4452190000000  0.5997420000000 1.0
C      1  0.4643820000000  0.5523560000000  0.5991370000000 1.0
C      1  0.5351950000000  0.5546160000000  0.3994860000000 1.0
C      1  0.4671310000000  0.4457880000000  0.4078640000000 1.0
C      1  0.4455070000000  0.5323460000000  0.6011820000000 1.0
C      1  0.5555700000000  0.4647700000000  0.5999580000000 1.0
C      1  0.5551670000000  0.5356920000000  0.4007070000000 1.0
C      1  0.4477880000000  0.4655130000000  0.4063840000000 1.0
C      1  0.5241780000000  0.5524370000000  0.5438570000000 1.0
C      1  0.4703040000000  0.4417400000000  0.5508770000000 1.0
C      1  0.5272790000000  0.4452180000000  0.4528540000000 1.0
C      1  0.4717790000000  0.5564780000000  0.4485550000000 1.0
C      1  0.5546590000000  0.5272020000000  0.5462400000000 1.0
C      1  0.4408270000000  0.4682420000000  0.5503320000000 1.0
C      1  0.4442190000000  0.5278890000000  0.4499680000000 1.0
C      1  0.5556180000000  0.4731080000000  0.4511050000000 1.0
C      1  0.4743840000000  0.5853690000000  0.5578940000000 1.0
C      1  0.5292910000000  0.4096390000000  0.5600250000000 1.0
C      1  0.4736770000000  0.4117310000000  0.4428770000000 1.0
C      1  0.5262700000000  0.5901420000000  0.4370560000000 1.0
C      1  0.5906260000000  0.4750760000000  0.5601130000000 1.0
C      1  0.4101180000000  0.5240910000000  0.5624400000000 1.0
C      1  0.4134340000000  0.4731570000000  0.4419410000000 1.0
C      1  0.5895420000000  0.5277330000000  0.4398180000000 1.0
C      1  0.4724520000000  0.5033780000000  0.5902110000000 1.0
C      1  0.5272380000000  0.4925500000000  0.5865620000000 1.0
C      1  0.4750030000000  0.4940410000000  0.4124120000000 1.0
C      1  0.5274240000000  0.5092480000000  0.4120960000000 1.0
C      1  0.5027850000000  0.4749620000000  0.5816810000000 1.0
C      1  0.4912500000000  0.5227690000000  0.5890270000000 1.0
C      1  0.4939790000000  0.4746970000000  0.4135540000000 1.0
C      1  0.5077980000000  0.5279840000000  0.4112080000000 1.0
END
