TITL C-2782225-7408-862 1.8323356488355e-07 125000 -51.6947700181913 0 0 9 (D3h) n - 1
REM
REM in /home/nfs/bkarasulu/CARBON/AIRSS/Generating-Clusters/REBO/Higher-Symm/SD-CG/HFTN-CG
REM
REM
REM
REM
REM
REM ./C.cell (12c818d87b63d06a65506943cc24bca4)
REM
REM compiler GCC version 9.2.1 20190827 (Red Hat 9.2.1-1)
REM options -cpp -mtune=generic -march=x86-64 -g -O0 -fpre-include=/usr/include/finclude/math-vector-fortran.h
REM seed -1588004722 -1535427912 496853661 -210267760 -1919396079 1818928405 2066258423 1206556769 575044652 2053467751 972022262 730284972 -172785691 -1581737862 586654322 1162910985 -968184044 519537619 -1185687258 69751154 1755018029 -1179447840 -112466248 1035245862 975899731 -614399459 559805877 -997440839 1018260799 -306214336 -1207736920 50971921 -1268046081
REM
CELL 1.54180   50.00000   50.00000   50.00000   90.00000   90.00000   90.00000
LATT -1
SFAC C  
C      1  0.5000000000000  0.5395020000000  0.4962800000000 1.0
C      1  0.5000000000000  0.5278690000000  0.4717590000000 1.0
C      1  0.5000000000000  0.5031960000000  0.4604520000000 1.0
C      1  0.5000000000000  0.4770280000000  0.4676500000000 1.0
C      1  0.5000000000000  0.4616080000000  0.4899850000000 1.0
C      1  0.5000000000000  0.4641530000000  0.5170060000000 1.0
C      1  0.5000000000000  0.4834700000000  0.5360690000000 1.0
C      1  0.5000000000000  0.5105230000000  0.5382560000000 1.0
C      1  0.5000000000000  0.5326510000000  0.5225420000000 1.0
END
