TITL C-2782227-3064-1422 0.000498235702582312 125000 -1011.17211456231 0 0 173 (C1) n - 1
REM
REM in /home/nfs/bkarasulu/CARBON/AIRSS/Generating-Clusters/REBO/Higher-Symm/SD-CG/HFTN-CG
REM
REM
REM
REM
REM
REM ./C.cell (12c818d87b63d06a65506943cc24bca4)
REM
REM compiler GCC version 9.2.1 20190827 (Red Hat 9.2.1-1)
REM options -cpp -mtune=generic -march=x86-64 -g -O0 -fpre-include=/usr/include/finclude/math-vector-fortran.h
REM seed -1961267365 -1618561179 -1335781925 1134141793 1205242081 1742383278 -1939645881 -1029684850 -1034455004 -953889329 -1634244840 2079958702 -819539509 1493795588 -1884335470 1668385543 -1135480020 -478980677 -2122392413 1271918768 80872808 1887796064 1405803213 -1500457556 -2070195215 164609570 1633311263 1352229720 21237292 -772360600 2129928962 -43482191 -395628966
REM
CELL 1.54180   50.00000   50.00000   50.00000   90.00000   90.00000   90.00000
LATT -1
SFAC C  
C      1  0.4534430000000  0.5343060000000  0.4573030000000 1.0
C      1  0.4862960000000  0.4630220000000  0.4319290000000 1.0
C      1  0.5385140000000  0.5412930000000  0.4436420000000 1.0
C      1  0.5506700000000  0.4578030000000  0.4738930000000 1.0
C      1  0.5633400000000  0.5415240000000  0.5139290000000 1.0
C      1  0.5435170000000  0.4588760000000  0.5391300000000 1.0
C      1  0.5079640000000  0.5407310000000  0.5660410000000 1.0
C      1  0.4769650000000  0.4589330000000  0.5515590000000 1.0
C      1  0.4421990000000  0.5451820000000  0.5231740000000 1.0
C      1  0.4474960000000  0.4651840000000  0.4966700000000 1.0
C      1  0.4695570000000  0.4887960000000  0.4069820000000 1.0
C      1  0.5276780000000  0.5121560000000  0.4186250000000 1.0
C      1  0.5728760000000  0.4846830000000  0.4544770000000 1.0
C      1  0.5855680000000  0.5109120000000  0.5011440000000 1.0
C      1  0.5662500000000  0.4868580000000  0.5584980000000 1.0
C      1  0.5255580000000  0.5100280000000  0.5846440000000 1.0
C      1  0.4644590000000  0.4881740000000  0.5830240000000 1.0
C      1  0.4310350000000  0.5124100000000  0.5478760000000 1.0
C      1  0.4125740000000  0.4926340000000  0.5000100000000 1.0
C      1  0.4178620000000  0.5116480000000  0.4401650000000 1.0
C      1  0.4542880000000  0.5057290000000  0.4555330000000 1.0
C      1  0.4953860000000  0.4923980000000  0.4296380000000 1.0
C      1  0.5220700000000  0.4955170000000  0.4473750000000 1.0
C      1  0.5442740000000  0.4895180000000  0.4721620000000 1.0
C      1  0.5588690000000  0.5111370000000  0.5223900000000 1.0
C      1  0.5385480000000  0.4891900000000  0.5387070000000 1.0
C      1  0.4992170000000  0.5097330000000  0.5637750000000 1.0
C      1  0.4746680000000  0.4899820000000  0.5503740000000 1.0
C      1  0.4407280000000  0.5160810000000  0.5154550000000 1.0
C      1  0.4421600000000  0.4958260000000  0.4831430000000 1.0
C      1  0.5013340000000  0.4437390000000  0.5380650000000 1.0
C      1  0.4680460000000  0.5535200000000  0.5314650000000 1.0
C      1  0.4755940000000  0.4496900000000  0.5080560000000 1.0
C      1  0.4577490000000  0.5457700000000  0.4837680000000 1.0
C      1  0.4748140000000  0.4570630000000  0.4563920000000 1.0
C      1  0.5111120000000  0.5449550000000  0.4556810000000 1.0
C      1  0.5234310000000  0.4373990000000  0.4745830000000 1.0
C      1  0.5454290000000  0.5510200000000  0.4943410000000 1.0
C      1  0.5398250000000  0.4433750000000  0.5121060000000 1.0
C      1  0.5211440000000  0.5497720000000  0.5431550000000 1.0
C      1  0.5898790000000  0.4555850000000  0.4292040000000 1.0
C      1  0.6139850000000  0.5441950000000  0.4924480000000 1.0
C      1  0.5954800000000  0.4566910000000  0.5637640000000 1.0
C      1  0.5434830000000  0.5430310000000  0.6075860000000 1.0
C      1  0.4667130000000  0.4580450000000  0.6093280000000 1.0
C      1  0.4114960000000  0.5394860000000  0.5697370000000 1.0
C      1  0.3886460000000  0.4623270000000  0.5101740000000 1.0
C      1  0.3988260000000  0.5454490000000  0.4497290000000 1.0
C      1  0.4515330000000  0.4520850000000  0.3918690000000 1.0
C      1  0.5336140000000  0.5433220000000  0.3844870000000 1.0
C      1  0.4160990000000  0.4524440000000  0.4927890000000 1.0
C      1  0.4291030000000  0.5500060000000  0.4409300000000 1.0
C      1  0.4794600000000  0.4442670000000  0.4067220000000 1.0
C      1  0.5407930000000  0.5568250000000  0.4134590000000 1.0
C      1  0.5780700000000  0.4453080000000  0.4583050000000 1.0
C      1  0.5923010000000  0.5570400000000  0.5145600000000 1.0
C      1  0.5645170000000  0.4462520000000  0.5608150000000 1.0
C      1  0.5159930000000  0.5569670000000  0.5936460000000 1.0
C      1  0.4643040000000  0.4451650000000  0.5779200000000 1.0
C      1  0.4187520000000  0.5577540000000  0.5422420000000 1.0
C      1  0.5973820000000  0.5258960000000  0.5271950000000 1.0
C      1  0.5627490000000  0.4705570000000  0.5845340000000 1.0
C      1  0.5058390000000  0.5264210000000  0.6031290000000 1.0
C      1  0.4406240000000  0.4669030000000  0.5894740000000 1.0
C      1  0.4028860000000  0.5274880000000  0.5389500000000 1.0
C      1  0.3999690000000  0.4765150000000  0.4746260000000 1.0
C      1  0.4355010000000  0.5262080000000  0.4188270000000 1.0
C      1  0.4950360000000  0.4723780000000  0.3951140000000 1.0
C      1  0.5554360000000  0.5261370000000  0.4189070000000 1.0
C      1  0.5972940000000  0.4715350000000  0.4675350000000 1.0
C      1  0.4718200000000  0.4126960000000  0.5388820000000 1.0
C      1  0.4487330000000  0.5882560000000  0.5129340000000 1.0
C      1  0.4544930000000  0.4162240000000  0.4808570000000 1.0
C      1  0.4723680000000  0.5813340000000  0.4551980000000 1.0
C      1  0.5029450000000  0.4147450000000  0.4483040000000 1.0
C      1  0.5361460000000  0.5889370000000  0.4598740000000 1.0
C      1  0.5517720000000  0.4115580000000  0.4859400000000 1.0
C      1  0.5473280000000  0.5886080000000  0.5233780000000 1.0
C      1  0.5306410000000  0.4117530000000  0.5425490000000 1.0
C      1  0.4946490000000  0.5890650000000  0.5540260000000 1.0
C      1  0.4872090000000  0.4004540000000  0.5188140000000 1.0
C      1  0.4748880000000  0.5979860000000  0.5090170000000 1.0
C      1  0.4782960000000  0.4033500000000  0.4905480000000 1.0
C      1  0.4850120000000  0.5958380000000  0.4804540000000 1.0
C      1  0.5025120000000  0.4033110000000  0.4742390000000 1.0
C      1  0.5176980000000  0.5995580000000  0.4833030000000 1.0
C      1  0.5260510000000  0.4016410000000  0.4922750000000 1.0
C      1  0.5234740000000  0.6004230000000  0.5133720000000 1.0
C      1  0.5165870000000  0.4006680000000  0.5201800000000 1.0
C      1  0.4978300000000  0.5995370000000  0.5274990000000 1.0
C      1  0.5348780000000  0.4412760000000  0.4143850000000 1.0
C      1  0.5642870000000  0.5475630000000  0.4596880000000 1.0
C      1  0.5939590000000  0.4423950000000  0.5052040000000 1.0
C      1  0.5674840000000  0.5571380000000  0.5604900000000 1.0
C      1  0.5240900000000  0.4429210000000  0.5893180000000 1.0
C      1  0.4647060000000  0.5588010000000  0.5836800000000 1.0
C      1  0.4357360000000  0.4456960000000  0.5485120000000 1.0
C      1  0.4091720000000  0.5582540000000  0.4935580000000 1.0
C      1  0.4289520000000  0.4432650000000  0.4440440000000 1.0
C      1  0.4796920000000  0.5538650000000  0.4124320000000 1.0
C      1  0.3825760000000  0.5234410000000  0.4542610000000 1.0
C      1  0.4340860000000  0.4719390000000  0.4009620000000 1.0
C      1  0.5176740000000  0.5204110000000  0.3812070000000 1.0
C      1  0.5751700000000  0.4767210000000  0.4155110000000 1.0
C      1  0.6116700000000  0.5226330000000  0.4739400000000 1.0
C      1  0.6028240000000  0.4778840000000  0.5453770000000 1.0
C      1  0.5605950000000  0.5216680000000  0.5987000000000 1.0
C      1  0.4889200000000  0.4789040000000  0.6132240000000 1.0
C      1  0.4286830000000  0.5208610000000  0.5865750000000 1.0
C      1  0.3778380000000  0.4840600000000  0.5174520000000 1.0
C      1  0.6012780000000  0.4697430000000  0.5121330000000 1.0
C      1  0.5670020000000  0.5258790000000  0.5671520000000 1.0
C      1  0.5197020000000  0.4696040000000  0.6010370000000 1.0
C      1  0.4594950000000  0.5278330000000  0.5838870000000 1.0
C      1  0.4303290000000  0.4724910000000  0.5471440000000 1.0
C      1  0.4034040000000  0.5316570000000  0.4893030000000 1.0
C      1  0.4280590000000  0.4681270000000  0.4304300000000 1.0
C      1  0.4660330000000  0.5285150000000  0.4045890000000 1.0
C      1  0.5438910000000  0.4679410000000  0.4047420000000 1.0
C      1  0.5833730000000  0.5227250000000  0.4597780000000 1.0
C      1  0.5244110000000  0.5774190000000  0.4350360000000 1.0
C      1  0.5568590000000  0.4213940000000  0.4596420000000 1.0
C      1  0.5694910000000  0.5802550000000  0.5060920000000 1.0
C      1  0.5575160000000  0.4216270000000  0.5404260000000 1.0
C      1  0.5175360000000  0.5795170000000  0.5691910000000 1.0
C      1  0.4814060000000  0.4214260000000  0.5644310000000 1.0
C      1  0.4410040000000  0.5813220000000  0.5399900000000 1.0
C      1  0.4366340000000  0.4271810000000  0.5002880000000 1.0
C      1  0.4454420000000  0.5733590000000  0.4579220000000 1.0
C      1  0.4794910000000  0.4240050000000  0.4341560000000 1.0
C      1  0.5588530000000  0.5153050000000  0.4826350000000 1.0
C      1  0.5757190000000  0.4825020000000  0.5267570000000 1.0
C      1  0.5378990000000  0.5160380000000  0.5559540000000 1.0
C      1  0.4975710000000  0.4822100000000  0.5817340000000 1.0
C      1  0.4626920000000  0.5198260000000  0.5519010000000 1.0
C      1  0.4356390000000  0.4837820000000  0.5206010000000 1.0
C      1  0.4194330000000  0.5180330000000  0.4703020000000 1.0
C      1  0.4501560000000  0.4890580000000  0.4333410000000 1.0
C      1  0.4961340000000  0.5178510000000  0.4068780000000 1.0
C      1  0.5476270000000  0.4813180000000  0.4336510000000 1.0
C      1  0.5132570000000  0.4267210000000  0.5644080000000 1.0
C      1  0.4685410000000  0.5738630000000  0.5568630000000 1.0
C      1  0.4525490000000  0.4325590000000  0.5266730000000 1.0
C      1  0.4375050000000  0.5710960000000  0.4900620000000 1.0
C      1  0.4556850000000  0.4317530000000  0.4551170000000 1.0
C      1  0.4926250000000  0.5671070000000  0.4370290000000 1.0
C      1  0.5306110000000  0.4278420000000  0.4422380000000 1.0
C      1  0.5586720000000  0.5744330000000  0.4750670000000 1.0
C      1  0.5674110000000  0.4260070000000  0.5093230000000 1.0
C      1  0.5427260000000  0.5723850000000  0.5485110000000 1.0
C      1  0.4258020000000  0.4907720000000  0.5733790000000 1.0
C      1  0.3926230000000  0.5145520000000  0.5142380000000 1.0
C      1  0.3929090000000  0.4937790000000  0.4530790000000 1.0
C      1  0.4433880000000  0.5042170000000  0.3957830000000 1.0
C      1  0.5211670000000  0.4888430000000  0.3942490000000 1.0
C      1  0.5773230000000  0.5077370000000  0.4298250000000 1.0
C      1  0.6086470000000  0.4916120000000  0.4880290000000 1.0
C      1  0.5910690000000  0.5093380000000  0.5520330000000 1.0
C      1  0.5460590000000  0.4908550000000  0.6017220000000 1.0
C      1  0.4797790000000  0.5105130000000  0.6036580000000 1.0
C      1  0.5208700000000  0.5227800000000  0.5267300000000 1.0
C      1  0.5045460000000  0.4732490000000  0.5254330000000 1.0
C      1  0.4879580000000  0.5289240000000  0.5305620000000 1.0
C      1  0.4788610000000  0.4831910000000  0.5130260000000 1.0
C      1  0.4786140000000  0.5316170000000  0.4989580000000 1.0
C      1  0.4866410000000  0.4739190000000  0.4750770000000 1.0
C      1  0.5048170000000  0.5248390000000  0.4795020000000 1.0
C      1  0.5125970000000  0.4670060000000  0.4801630000000 1.0
C      1  0.5293290000000  0.5241580000000  0.4973330000000 1.0
C      1  0.5250550000000  0.4717430000000  0.5056150000000 1.0
C      1  0.5068670000000  0.4362900000000  0.5048880000000 1.0
C      1  0.5049870000000  0.5691910000000  0.4747900000000 1.0
C      1  0.4814250000000  0.5014960000000  0.4877710000000 1.0
END
