TITL C-2782233-7966-604 0.00434538847239686 125000 -1027.64314369742 0 0 179 (C1) n - 1
REM
REM in /home/nfs/bkarasulu/CARBON/AIRSS/Generating-Clusters/REBO/Higher-Symm/SD-CG/HFTN-CG
REM
REM
REM
REM
REM
REM ./C.cell (12c818d87b63d06a65506943cc24bca4)
REM
REM compiler GCC version 9.2.1 20190827 (Red Hat 9.2.1-1)
REM options -cpp -mtune=generic -march=x86-64 -g -O0 -fpre-include=/usr/include/finclude/math-vector-fortran.h
REM seed 946001706 -1401244775 -1295446736 -1778596581 1350504152 1770250459 -2132324096 -1196885170 957200969 -2079959232 1178795071 491186850 -1859137887 1511117815 -1061922243 1460500918 1142765185 475886181 663949786 1585857225 374473391 1530605298 817085288 -564613065 -1329534775 -256126017 -25454306 -676880183 11593567 -1066779378 -817697936 -843237136 -1603715389
REM
CELL 1.54180   50.00000   50.00000   50.00000   90.00000   90.00000   90.00000
LATT -1
SFAC C  
C      1  0.4678900000000  0.4071920000000  0.4653040000000 1.0
C      1  0.4866180000000  0.5306180000000  0.5746170000000 1.0
C      1  0.5017430000000  0.4990310000000  0.5766070000000 1.0
C      1  0.5483520000000  0.6096690000000  0.5537780000000 1.0
C      1  0.4285040000000  0.5011960000000  0.5799470000000 1.0
C      1  0.5768330000000  0.5372360000000  0.5163670000000 1.0
C      1  0.5728970000000  0.5040200000000  0.4619680000000 1.0
C      1  0.5015690000000  0.5007620000000  0.4442590000000 1.0
C      1  0.4996010000000  0.5608790000000  0.5105620000000 1.0
C      1  0.4108410000000  0.4786730000000  0.4463320000000 1.0
C      1  0.4516560000000  0.4929700000000  0.4584340000000 1.0
C      1  0.5121240000000  0.5027690000000  0.5382390000000 1.0
C      1  0.4213910000000  0.4418550000000  0.4780500000000 1.0
C      1  0.4359360000000  0.5259690000000  0.4386010000000 1.0
C      1  0.4111660000000  0.5529470000000  0.5474180000000 1.0
C      1  0.5111620000000  0.4136050000000  0.5575950000000 1.0
C      1  0.4508810000000  0.4329660000000  0.4233780000000 1.0
C      1  0.5800200000000  0.4631290000000  0.5373670000000 1.0
C      1  0.5782150000000  0.4320760000000  0.5253560000000 1.0
C      1  0.5187050000000  0.5696670000000  0.4279390000000 1.0
C      1  0.4095630000000  0.5091810000000  0.4447330000000 1.0
C      1  0.4307090000000  0.4169120000000  0.4871970000000 1.0
C      1  0.4722680000000  0.4812680000000  0.4800440000000 1.0
C      1  0.4740060000000  0.4579240000000  0.4197760000000 1.0
C      1  0.4300740000000  0.4336610000000  0.5487780000000 1.0
C      1  0.4853020000000  0.5224010000000  0.4626210000000 1.0
C      1  0.4721350000000  0.5383980000000  0.3902450000000 1.0
C      1  0.4882500000000  0.4725530000000  0.5657790000000 1.0
C      1  0.4345090000000  0.5371150000000  0.5148760000000 1.0
C      1  0.5213660000000  0.5613260000000  0.5325240000000 1.0
C      1  0.5375050000000  0.5416920000000  0.4723970000000 1.0
C      1  0.5675250000000  0.5069960000000  0.5177900000000 1.0
C      1  0.4542380000000  0.4829760000000  0.4100810000000 1.0
C      1  0.5415550000000  0.4520420000000  0.4218510000000 1.0
C      1  0.5251010000000  0.3835260000000  0.4814250000000 1.0
C      1  0.5768750000000  0.5765600000000  0.5235360000000 1.0
C      1  0.4686060000000  0.4477160000000  0.5560170000000 1.0
C      1  0.5034730000000  0.4279800000000  0.5211280000000 1.0
C      1  0.5079500000000  0.4587240000000  0.4220930000000 1.0
C      1  0.5654570000000  0.5872880000000  0.5538760000000 1.0
C      1  0.5395370000000  0.5099130000000  0.4371510000000 1.0
C      1  0.5710770000000  0.4339400000000  0.4809670000000 1.0
C      1  0.4967140000000  0.5084030000000  0.6077150000000 1.0
C      1  0.4604850000000  0.5865130000000  0.4409540000000 1.0
C      1  0.5372770000000  0.3930890000000  0.5098400000000 1.0
C      1  0.6007710000000  0.4852530000000  0.5221290000000 1.0
C      1  0.5585380000000  0.4129300000000  0.5284190000000 1.0
C      1  0.4487250000000  0.5977240000000  0.5020510000000 1.0
C      1  0.4565920000000  0.5672450000000  0.5535720000000 1.0
C      1  0.3960430000000  0.5219370000000  0.4957460000000 1.0
C      1  0.4789250000000  0.6047730000000  0.4895350000000 1.0
C      1  0.4129050000000  0.4795230000000  0.5259770000000 1.0
C      1  0.3958560000000  0.4878730000000  0.4980520000000 1.0
C      1  0.4999420000000  0.5518570000000  0.4053600000000 1.0
C      1  0.5153840000000  0.5599940000000  0.6078950000000 1.0
C      1  0.4784540000000  0.5520280000000  0.4316800000000 1.0
C      1  0.5473630000000  0.4634420000000  0.5777710000000 1.0
C      1  0.4598830000000  0.5319470000000  0.4608310000000 1.0
C      1  0.4940450000000  0.4905460000000  0.3747340000000 1.0
C      1  0.4923670000000  0.4983650000000  0.4977840000000 1.0
C      1  0.4975750000000  0.4774360000000  0.5241150000000 1.0
C      1  0.4373140000000  0.5436530000000  0.5572090000000 1.0
C      1  0.4688510000000  0.4636520000000  0.5283650000000 1.0
C      1  0.5511120000000  0.5559220000000  0.5231020000000 1.0
C      1  0.5669640000000  0.5391440000000  0.5598480000000 1.0
C      1  0.5923970000000  0.5254670000000  0.5510970000000 1.0
C      1  0.4946140000000  0.4146660000000  0.4368510000000 1.0
C      1  0.5554380000000  0.5013170000000  0.5875720000000 1.0
C      1  0.5594050000000  0.5653540000000  0.5769410000000 1.0
C      1  0.4230950000000  0.5690960000000  0.5128420000000 1.0
C      1  0.4277540000000  0.4754920000000  0.5909690000000 1.0
C      1  0.5486590000000  0.4870980000000  0.5348260000000 1.0
C      1  0.5565660000000  0.4573660000000  0.4632710000000 1.0
C      1  0.4055700000000  0.4684410000000  0.4730520000000 1.0
C      1  0.5069440000000  0.4155650000000  0.4663510000000 1.0
C      1  0.5279300000000  0.5718270000000  0.4605720000000 1.0
C      1  0.4422380000000  0.4754250000000  0.4929610000000 1.0
C      1  0.5650440000000  0.4644190000000  0.5062480000000 1.0
C      1  0.5968190000000  0.5585570000000  0.5019500000000 1.0
C      1  0.5432420000000  0.5124050000000  0.4764390000000 1.0
C      1  0.5937110000000  0.4478760000000  0.4992110000000 1.0
C      1  0.5598680000000  0.5285120000000  0.4164200000000 1.0
C      1  0.4803520000000  0.4414170000000  0.4488550000000 1.0
C      1  0.4450970000000  0.5583100000000  0.4347860000000 1.0
C      1  0.5299150000000  0.4961700000000  0.5103110000000 1.0
C      1  0.5241880000000  0.4599780000000  0.5993840000000 1.0
C      1  0.5368440000000  0.5007750000000  0.5615630000000 1.0
C      1  0.5514770000000  0.5935860000000  0.4699490000000 1.0
C      1  0.5200690000000  0.4893470000000  0.4179910000000 1.0
C      1  0.5965550000000  0.4705020000000  0.4734750000000 1.0
C      1  0.5225480000000  0.5259370000000  0.4021790000000 1.0
C      1  0.5393080000000  0.4479390000000  0.5003550000000 1.0
C      1  0.5860190000000  0.4481640000000  0.4488530000000 1.0
C      1  0.5822830000000  0.4808610000000  0.4437090000000 1.0
C      1  0.5647090000000  0.4917130000000  0.4912840000000 1.0
C      1  0.4903200000000  0.5290340000000  0.5017260000000 1.0
C      1  0.4410010000000  0.4502230000000  0.5744460000000 1.0
C      1  0.4552650000000  0.5120340000000  0.3922620000000 1.0
C      1  0.5230930000000  0.4732380000000  0.4924790000000 1.0
C      1  0.5180650000000  0.4593650000000  0.4532850000000 1.0
C      1  0.5771720000000  0.5754650000000  0.4832820000000 1.0
C      1  0.4923730000000  0.3878130000000  0.4778040000000 1.0
C      1  0.4591260000000  0.5050570000000  0.4312780000000 1.0
C      1  0.4976380000000  0.5394290000000  0.6083100000000 1.0
C      1  0.4573910000000  0.5583860000000  0.4777820000000 1.0
C      1  0.3843290000000  0.4634690000000  0.5193480000000 1.0
C      1  0.4087240000000  0.5190150000000  0.5269280000000 1.0
C      1  0.4491470000000  0.4227360000000  0.5310020000000 1.0
C      1  0.5538780000000  0.4053450000000  0.4413800000000 1.0
C      1  0.5127220000000  0.4420160000000  0.5727930000000 1.0
C      1  0.5299970000000  0.4042790000000  0.5406640000000 1.0
C      1  0.5605710000000  0.4317840000000  0.4330020000000 1.0
C      1  0.5067370000000  0.5419960000000  0.4763770000000 1.0
C      1  0.3965520000000  0.5485520000000  0.5176130000000 1.0
C      1  0.4826530000000  0.4201690000000  0.5581720000000 1.0
C      1  0.5141250000000  0.5476270000000  0.5614800000000 1.0
C      1  0.4390360000000  0.5073940000000  0.5037320000000 1.0
C      1  0.5284430000000  0.5637400000000  0.5842650000000 1.0
C      1  0.4489950000000  0.4047530000000  0.5059520000000 1.0
C      1  0.4855760000000  0.5623490000000  0.4605440000000 1.0
C      1  0.4685260000000  0.4351670000000  0.4775090000000 1.0
C      1  0.4924400000000  0.4495480000000  0.5981160000000 1.0
C      1  0.4715230000000  0.6002570000000  0.4581470000000 1.0
C      1  0.5255740000000  0.4921000000000  0.5988910000000 1.0
C      1  0.6007900000000  0.5250080000000  0.4954870000000 1.0
C      1  0.4086170000000  0.5327850000000  0.4678560000000 1.0
C      1  0.4673170000000  0.4990530000000  0.5967850000000 1.0
C      1  0.5258460000000  0.6133320000000  0.5381430000000 1.0
C      1  0.4661590000000  0.4654690000000  0.5915950000000 1.0
C      1  0.5461470000000  0.4161760000000  0.4906460000000 1.0
C      1  0.5510120000000  0.5583480000000  0.4309430000000 1.0
C      1  0.4962130000000  0.4639030000000  0.4771140000000 1.0
C      1  0.4844890000000  0.5196770000000  0.4230400000000 1.0
C      1  0.4726830000000  0.5685520000000  0.5258750000000 1.0
C      1  0.5026990000000  0.5811330000000  0.4833540000000 1.0
C      1  0.5247970000000  0.5375480000000  0.4328560000000 1.0
C      1  0.5351020000000  0.4324850000000  0.4637770000000 1.0
C      1  0.5428320000000  0.4807520000000  0.4496170000000 1.0
C      1  0.4996870000000  0.6097440000000  0.5163510000000 1.0
C      1  0.4950530000000  0.5142780000000  0.3928230000000 1.0
C      1  0.5380500000000  0.4625300000000  0.5499800000000 1.0
C      1  0.4643670000000  0.4942970000000  0.5636320000000 1.0
C      1  0.5099910000000  0.4511130000000  0.5400090000000 1.0
C      1  0.4751400000000  0.3929550000000  0.5036040000000 1.0
C      1  0.5939160000000  0.4986290000000  0.5482410000000 1.0
C      1  0.4354770000000  0.4627590000000  0.4290310000000 1.0
C      1  0.5627520000000  0.5342230000000  0.5920310000000 1.0
C      1  0.4708380000000  0.6012470000000  0.5281540000000 1.0
C      1  0.5728180000000  0.4808220000000  0.5659630000000 1.0
C      1  0.5387890000000  0.5259830000000  0.5195800000000 1.0
C      1  0.4838490000000  0.5141540000000  0.5439340000000 1.0
C      1  0.5406360000000  0.3894440000000  0.4593590000000 1.0
C      1  0.5156380000000  0.4985030000000  0.4728850000000 1.0
C      1  0.4322150000000  0.5774680000000  0.4827570000000 1.0
C      1  0.4221850000000  0.5585730000000  0.4590820000000 1.0
C      1  0.5076990000000  0.4365780000000  0.4920810000000 1.0
C      1  0.4928420000000  0.4030150000000  0.5236830000000 1.0
C      1  0.5266920000000  0.5895750000000  0.5167250000000 1.0
C      1  0.4627850000000  0.5465280000000  0.5059920000000 1.0
C      1  0.4303290000000  0.5084740000000  0.4739940000000 1.0
C      1  0.4319740000000  0.4553030000000  0.5153890000000 1.0
C      1  0.6041150000000  0.4952540000000  0.4957180000000 1.0
C      1  0.4613530000000  0.4426450000000  0.5051940000000 1.0
C      1  0.4441800000000  0.5140190000000  0.5458520000000 1.0
C      1  0.5650660000000  0.5572040000000  0.4610040000000 1.0
C      1  0.5383860000000  0.5300570000000  0.5506120000000 1.0
C      1  0.5458190000000  0.5026260000000  0.3989420000000 1.0
C      1  0.4053490000000  0.4414550000000  0.5324670000000 1.0
C      1  0.4160380000000  0.4993330000000  0.5493070000000 1.0
C      1  0.4624290000000  0.4962630000000  0.5240910000000 1.0
C      1  0.4430750000000  0.4611840000000  0.4617360000000 1.0
C      1  0.5534920000000  0.5902570000000  0.5030740000000 1.0
C      1  0.4754640000000  0.5626490000000  0.5745960000000 1.0
C      1  0.4625840000000  0.4089180000000  0.4343160000000 1.0
C      1  0.5587870000000  0.4799960000000  0.4191200000000 1.0
C      1  0.4393260000000  0.5887110000000  0.5336850000000 1.0
C      1  0.5246000000000  0.6061340000000  0.4805090000000 1.0
C      1  0.4517870000000  0.5261700000000  0.5829030000000 1.0
C      1  0.5747980000000  0.5302140000000  0.4459820000000 1.0
END
