TITL C-2782233-7966-941 0.00571816459254177 125000 -476.55712682788 0 0 80 (C1) n - 1
REM
REM in /home/nfs/bkarasulu/CARBON/AIRSS/Generating-Clusters/REBO/Higher-Symm/SD-CG/HFTN-CG
REM
REM
REM
REM
REM
REM ./C.cell (12c818d87b63d06a65506943cc24bca4)
REM
REM compiler GCC version 9.2.1 20190827 (Red Hat 9.2.1-1)
REM options -cpp -mtune=generic -march=x86-64 -g -O0 -fpre-include=/usr/include/finclude/math-vector-fortran.h
REM seed -1831828690 952071724 -545504136 779541086 635436295 1582408527 1569256587 1169671050 -420513347 -508168863 -1684558700 528978845 1459427062 -1284921424 -1942749955 256781465 337903422 -586329706 -1505260246 -167943965 410698578 1081407056 -137169666 -429309706 357800944 -1130227372 1685306654 -574203731 -600264624 -1470165883 637651481 -1086634653 492577212
REM
CELL 1.54180   50.00000   50.00000   50.00000   90.00000   90.00000   90.00000
LATT -1
SFAC C  
C      1  0.4874210000000  0.4835540000000  0.4825070000000 1.0
C      1  0.4834070000000  0.4763890000000  0.5139670000000 1.0
C      1  0.4801260000000  0.5037610000000  0.5299850000000 1.0
C      1  0.4822970000000  0.5276230000000  0.5088600000000 1.0
C      1  0.4846810000000  0.5158260000000  0.4790630000000 1.0
C      1  0.5201320000000  0.4801330000000  0.4769630000000 1.0
C      1  0.5165650000000  0.4733600000000  0.5079160000000 1.0
C      1  0.5129590000000  0.5013550000000  0.5240510000000 1.0
C      1  0.5156040000000  0.5255250000000  0.5024310000000 1.0
C      1  0.5179640000000  0.5118330000000  0.4735050000000 1.0
C      1  0.4473420000000  0.4479320000000  0.4884810000000 1.0
C      1  0.4446350000000  0.4719420000000  0.5474270000000 1.0
C      1  0.4437890000000  0.5361930000000  0.5423520000000 1.0
C      1  0.4457390000000  0.5506440000000  0.4794290000000 1.0
C      1  0.4478670000000  0.4951720000000  0.4471620000000 1.0
C      1  0.5557090000000  0.4460710000000  0.4872910000000 1.0
C      1  0.5528610000000  0.4724290000000  0.5460110000000 1.0
C      1  0.5518830000000  0.5354010000000  0.5393690000000 1.0
C      1  0.5541680000000  0.5494170000000  0.4778720000000 1.0
C      1  0.5560170000000  0.4946820000000  0.4447350000000 1.0
C      1  0.5477710000000  0.4713660000000  0.4675250000000 1.0
C      1  0.5443920000000  0.4618400000000  0.5151960000000 1.0
C      1  0.5416160000000  0.5034310000000  0.5377660000000 1.0
C      1  0.5434350000000  0.5380220000000  0.5068980000000 1.0
C      1  0.5465290000000  0.5198230000000  0.4638370000000 1.0
C      1  0.4584430000000  0.4749890000000  0.4722340000000 1.0
C      1  0.4552460000000  0.4639230000000  0.5170600000000 1.0
C      1  0.4524150000000  0.5043040000000  0.5426750000000 1.0
C      1  0.4543170000000  0.5409040000000  0.5104980000000 1.0
C      1  0.4571850000000  0.5214210000000  0.4662510000000 1.0
C      1  0.4720780000000  0.4298430000000  0.4970360000000 1.0
C      1  0.4709910000000  0.4747390000000  0.5659690000000 1.0
C      1  0.4707910000000  0.5540910000000  0.5444620000000 1.0
C      1  0.4717170000000  0.5584110000000  0.4618490000000 1.0
C      1  0.4723070000000  0.4813860000000  0.4320740000000 1.0
C      1  0.5286150000000  0.4306310000000  0.4958200000000 1.0
C      1  0.5277970000000  0.4752690000000  0.5656910000000 1.0
C      1  0.5274350000000  0.5551560000000  0.5437210000000 1.0
C      1  0.5283770000000  0.5588520000000  0.4617290000000 1.0
C      1  0.5291730000000  0.4817470000000  0.4318210000000 1.0
C      1  0.4861110000000  0.4362430000000  0.5228150000000 1.0
C      1  0.4851310000000  0.5017340000000  0.5695260000000 1.0
C      1  0.4847520000000  0.5659590000000  0.5197850000000 1.0
C      1  0.4859570000000  0.5385040000000  0.4442630000000 1.0
C      1  0.4862890000000  0.4583690000000  0.4453400000000 1.0
C      1  0.5146010000000  0.4361600000000  0.5224490000000 1.0
C      1  0.5136600000000  0.5016160000000  0.5684190000000 1.0
C      1  0.5132890000000  0.5654800000000  0.5193370000000 1.0
C      1  0.5144540000000  0.5384420000000  0.4438830000000 1.0
C      1  0.5148360000000  0.4576090000000  0.4444680000000 1.0
C      1  0.4281130000000  0.4735950000000  0.4980760000000 1.0
C      1  0.4263020000000  0.4900250000000  0.5252370000000 1.0
C      1  0.4266910000000  0.5210850000000  0.5174100000000 1.0
C      1  0.4285750000000  0.5229770000000  0.4860040000000 1.0
C      1  0.4294680000000  0.4940430000000  0.4745320000000 1.0
C      1  0.5727670000000  0.4728420000000  0.4984110000000 1.0
C      1  0.5708990000000  0.4900020000000  0.5245780000000 1.0
C      1  0.5712510000000  0.5201480000000  0.5169850000000 1.0
C      1  0.5732240000000  0.5225070000000  0.4854880000000 1.0
C      1  0.5741420000000  0.4928460000000  0.4734950000000 1.0
C      1  0.4860550000000  0.4981360000000  0.4078910000000 1.0
C      1  0.4859310000000  0.4122260000000  0.4735200000000 1.0
C      1  0.4863110000000  0.4473120000000  0.5760370000000 1.0
C      1  0.4859840000000  0.5558630000000  0.5736710000000 1.0
C      1  0.4855660000000  0.5868870000000  0.4695450000000 1.0
C      1  0.5139070000000  0.4979750000000  0.4074500000000 1.0
C      1  0.5137590000000  0.4116770000000  0.4733870000000 1.0
C      1  0.5141610000000  0.4475180000000  0.5757240000000 1.0
C      1  0.5138170000000  0.5554970000000  0.5731660000000 1.0
C      1  0.5134030000000  0.5870380000000  0.4695850000000 1.0
C      1  0.4744470000000  0.4456910000000  0.5467470000000 1.0
C      1  0.4736190000000  0.5274840000000  0.5670710000000 1.0
C      1  0.4731060000000  0.5723980000000  0.4948920000000 1.0
C      1  0.4741400000000  0.5172340000000  0.4303070000000 1.0
C      1  0.4741330000000  0.4395870000000  0.4625190000000 1.0
C      1  0.5262980000000  0.4449430000000  0.5464780000000 1.0
C      1  0.5256740000000  0.5269240000000  0.5658750000000 1.0
C      1  0.5251480000000  0.5711100000000  0.4943610000000 1.0
C      1  0.5259630000000  0.5165480000000  0.4300270000000 1.0
C      1  0.5262740000000  0.4383770000000  0.4617560000000 1.0
END
