TITL C-2782240-8521-802 -0.000121331470141338 125000 -382.590935794551 0 0 71 (Cs) n - 1
REM
REM in /home/nfs/bkarasulu/CARBON/AIRSS/Generating-Clusters/REBO/Higher-Symm/SD-CG/HFTN-CG
REM
REM
REM
REM
REM
REM ./C.cell (12c818d87b63d06a65506943cc24bca4)
REM
REM compiler GCC version 9.2.1 20190827 (Red Hat 9.2.1-1)
REM options -cpp -mtune=generic -march=x86-64 -g -O0 -fpre-include=/usr/include/finclude/math-vector-fortran.h
REM seed 483182381 -560405332 -12181141 -2095835901 1183028468 -1363217662 -242880078 2136886243 -646191840 -7186577 1973503015 443688001 -481019341 1258413405 -262768048 968063603 -429421482 868408380 1490849156 -280987528 -337279272 -1129415333 -1365386657 1902177161 -123017031 154722097 -336294752 -1693096779 -1989444412 -938013922 1763056807 -439488725 -831394689
REM
CELL 1.54180   50.00000   50.00000   50.00000   90.00000   90.00000   90.00000
LATT -1
SFAC C  
C      1  0.5188400000000  0.5153920000000  0.5493580000000 1.0
C      1  0.5489680000000  0.5123730000000  0.4847310000000 1.0
C      1  0.4748670000000  0.5154780000000  0.4466600000000 1.0
C      1  0.4489330000000  0.5154180000000  0.5208820000000 1.0
C      1  0.5188360000000  0.4813780000000  0.5493550000000 1.0
C      1  0.5489640000000  0.4844000000000  0.4847280000000 1.0
C      1  0.4748630000000  0.4813190000000  0.4466580000000 1.0
C      1  0.4489290000000  0.4813740000000  0.5208790000000 1.0
C      1  0.5167920000000  0.5228600000000  0.4235530000000 1.0
C      1  0.4048520000000  0.5295770000000  0.5022930000000 1.0
C      1  0.5010750000000  0.5308600000000  0.5933830000000 1.0
C      1  0.5934970000000  0.5270210000000  0.4998540000000 1.0
C      1  0.5167860000000  0.4739310000000  0.4235490000000 1.0
C      1  0.4048440000000  0.4672290000000  0.5022880000000 1.0
C      1  0.5010670000000  0.4659080000000  0.5933770000000 1.0
C      1  0.5934900000000  0.4697380000000  0.4998490000000 1.0
C      1  0.5229000000000  0.4684920000000  0.4742620000000 1.0
C      1  0.4723210000000  0.4662800000000  0.4761510000000 1.0
C      1  0.4779000000000  0.4671280000000  0.5251040000000 1.0
C      1  0.5239100000000  0.4676220000000  0.5201950000000 1.0
C      1  0.5229070000000  0.5282890000000  0.4742660000000 1.0
C      1  0.4723290000000  0.5305140000000  0.4761560000000 1.0
C      1  0.4779080000000  0.5296560000000  0.5251090000000 1.0
C      1  0.5239180000000  0.5291510000000  0.5202000000000 1.0
C      1  0.4934090000000  0.4372580000000  0.5202360000000 1.0
C      1  0.5223470000000  0.4385580000000  0.5024930000000 1.0
C      1  0.5051860000000  0.4394320000000  0.4730460000000 1.0
C      1  0.4775720000000  0.4363890000000  0.4917170000000 1.0
C      1  0.4934250000000  0.5595230000000  0.5202460000000 1.0
C      1  0.5223620000000  0.5582190000000  0.5025020000000 1.0
C      1  0.5052010000000  0.5573540000000  0.4730560000000 1.0
C      1  0.4775880000000  0.5604010000000  0.4917270000000 1.0
C      1  0.4461600000000  0.5126790000000  0.4742390000000 1.0
C      1  0.4745210000000  0.5126500000000  0.5514070000000 1.0
C      1  0.5503460000000  0.5126070000000  0.5250130000000 1.0
C      1  0.5349590000000  0.5145500000000  0.4473860000000 1.0
C      1  0.4461560000000  0.4841220000000  0.4742360000000 1.0
C      1  0.4745180000000  0.4841310000000  0.5514050000000 1.0
C      1  0.5503420000000  0.4841590000000  0.5250110000000 1.0
C      1  0.5349550000000  0.4822330000000  0.4473830000000 1.0
C      1  0.4929830000000  0.5340960000000  0.4309750000000 1.0
C      1  0.4319400000000  0.5341100000000  0.5048410000000 1.0
C      1  0.5040790000000  0.5350570000000  0.5663040000000 1.0
C      1  0.5673830000000  0.5318370000000  0.4943990000000 1.0
C      1  0.4929740000000  0.4627000000000  0.4309700000000 1.0
C      1  0.4319310000000  0.4626900000000  0.5048350000000 1.0
C      1  0.5040700000000  0.4617140000000  0.5662980000000 1.0
C      1  0.5673740000000  0.4649300000000  0.4943940000000 1.0
C      1  0.4285810000000  0.5229380000000  0.4521400000000 1.0
C      1  0.4513160000000  0.5230000000000  0.5673860000000 1.0
C      1  0.5650840000000  0.5232280000000  0.5488680000000 1.0
C      1  0.5657800000000  0.5214040000000  0.4432350000000 1.0
C      1  0.4285740000000  0.4738710000000  0.4521360000000 1.0
C      1  0.4513090000000  0.4737850000000  0.5673820000000 1.0
C      1  0.5650780000000  0.4735300000000  0.5488640000000 1.0
C      1  0.5657740000000  0.4753710000000  0.4432310000000 1.0
C      1  0.4957900000000  0.5587640000000  0.4433690000000 1.0
C      1  0.4459670000000  0.5547790000000  0.4938770000000 1.0
C      1  0.4946990000000  0.5562760000000  0.5519540000000 1.0
C      1  0.5542080000000  0.5568560000000  0.4996170000000 1.0
C      1  0.4957750000000  0.4380290000000  0.4433590000000 1.0
C      1  0.4459520000000  0.4420190000000  0.4938670000000 1.0
C      1  0.4946840000000  0.4405000000000  0.5519450000000 1.0
C      1  0.5541930000000  0.4399130000000  0.4996080000000 1.0
C      1  0.4469940000000  0.4984030000000  0.4369620000000 1.0
C      1  0.5455770000000  0.4983810000000  0.5620060000000 1.0
C      1  0.4373800000000  0.4983950000000  0.5480950000000 1.0
C      1  0.5811950000000  0.4983860000000  0.4411560000000 1.0
C      1  0.4982210000000  0.4699630000000  0.4978390000000 1.0
C      1  0.4982280000000  0.5268200000000  0.4978430000000 1.0
C      1  0.4961590000000  0.4983920000000  0.4973650000000 1.0
END
