TITL C-2782230-7391-1238 0.00630989025212443 125000 -220.280037101773 0 0 40 (C1) n - 1
REM
REM in /home/nfs/bkarasulu/CARBON/AIRSS/Generating-Clusters/REBO/Higher-Symm/SD-CG/HFTN-CG
REM
REM
REM
REM
REM
REM ./C.cell (12c818d87b63d06a65506943cc24bca4)
REM
REM compiler GCC version 9.2.1 20190827 (Red Hat 9.2.1-1)
REM options -cpp -mtune=generic -march=x86-64 -g -O0 -fpre-include=/usr/include/finclude/math-vector-fortran.h
REM seed -2012360167 331098773 192574085 -2023913523 1300314088 -1909890694 1691133079 1421087163 674180237 1362610099 1716446509 1031550078 857231172 -138798812 82370134 2131746486 -889244975 -767742391 -1569305477 1265389547 475931742 1424619901 -1446854445 -302860414 1253922110 -854781669 2002600396 832498180 -392200992 1370341810 -10998845 1972479248 1053283334
REM
CELL 1.54180   50.00000   50.00000   50.00000   90.00000   90.00000   90.00000
LATT -1
SFAC C  
C      1  0.4383560000000  0.5210950000000  0.5275450000000 1.0
C      1  0.5071510000000  0.4289250000000  0.5328730000000 1.0
C      1  0.4450740000000  0.4679830000000  0.3916740000000 1.0
C      1  0.4862250000000  0.4361620000000  0.5499440000000 1.0
C      1  0.4931180000000  0.5527740000000  0.5688450000000 1.0
C      1  0.5655660000000  0.4630230000000  0.5151180000000 1.0
C      1  0.4490640000000  0.4933800000000  0.3976560000000 1.0
C      1  0.5249020000000  0.4958680000000  0.5727230000000 1.0
C      1  0.4443890000000  0.5519140000000  0.5283850000000 1.0
C      1  0.4618190000000  0.4458700000000  0.5685190000000 1.0
C      1  0.5194470000000  0.5023990000000  0.5208710000000 1.0
C      1  0.4384170000000  0.4544380000000  0.5557590000000 1.0
C      1  0.5136030000000  0.5134390000000  0.5489940000000 1.0
C      1  0.4421900000000  0.4919380000000  0.5197220000000 1.0
C      1  0.5538800000000  0.5275180000000  0.4954950000000 1.0
C      1  0.5646650000000  0.5484440000000  0.4534010000000 1.0
C      1  0.5183910000000  0.4679110000000  0.5764610000000 1.0
C      1  0.5159750000000  0.5325370000000  0.4310440000000 1.0
C      1  0.4916220000000  0.5244520000000  0.4199590000000 1.0
C      1  0.5186080000000  0.4723550000000  0.5078970000000 1.0
C      1  0.5378180000000  0.4529790000000  0.5608780000000 1.0
C      1  0.5473750000000  0.5340840000000  0.4688530000000 1.0
C      1  0.5514240000000  0.5613430000000  0.4019420000000 1.0
C      1  0.5479960000000  0.5004120000000  0.5483040000000 1.0
C      1  0.4716020000000  0.5315040000000  0.5303870000000 1.0
C      1  0.5563680000000  0.4708410000000  0.5429090000000 1.0
C      1  0.5479780000000  0.5161920000000  0.5187530000000 1.0
C      1  0.5342710000000  0.5474040000000  0.4160240000000 1.0
C      1  0.4701410000000  0.5036720000000  0.5121240000000 1.0
C      1  0.4194960000000  0.5415220000000  0.3942280000000 1.0
C      1  0.4963770000000  0.4965630000000  0.4993220000000 1.0
C      1  0.5287830000000  0.4498760000000  0.5297940000000 1.0
C      1  0.4329910000000  0.4699750000000  0.5341080000000 1.0
C      1  0.5472960000000  0.4632660000000  0.4969990000000 1.0
C      1  0.4680150000000  0.5166150000000  0.4092140000000 1.0
C      1  0.5222150000000  0.5255530000000  0.4579270000000 1.0
C      1  0.4384980000000  0.5237590000000  0.3987110000000 1.0
C      1  0.5036620000000  0.5105440000000  0.4729300000000 1.0
C      1  0.4920270000000  0.4577460000000  0.5732980000000 1.0
C      1  0.4932050000000  0.5337240000000  0.5504100000000 1.0
END
