TITL C-2782238-9940-207 -0.00129426567931 125000 -475.129501895779 0 0 81 (C1) n - 1
REM
REM in /home/nfs/bkarasulu/CARBON/AIRSS/Generating-Clusters/REBO/Higher-Symm/SD-CG/HFTN-CG
REM
REM
REM
REM
REM
REM ./C.cell (12c818d87b63d06a65506943cc24bca4)
REM
REM compiler GCC version 9.2.1 20190827 (Red Hat 9.2.1-1)
REM options -cpp -mtune=generic -march=x86-64 -g -O0 -fpre-include=/usr/include/finclude/math-vector-fortran.h
REM seed 2003148807 -1363620508 84545112 -965938459 746507014 -2023871355 -201824490 310687180 -1845603873 -861480701 -2032856407 -1942349836 391816222 377804458 194053605 -1339830761 -1186082813 1314842262 -475673650 368345195 -737185044 153003753 -746346739 -1282409288 621806155 -1274919478 -123636654 2116608853 -1988474679 -1745126112 1736671566 -351063342 -755793467
REM
CELL 1.54180   50.00000   50.00000   50.00000   90.00000   90.00000   90.00000
LATT -1
SFAC C  
C      1  0.5249380000000  0.5523000000000  0.4853790000000 1.0
C      1  0.5077750000000  0.4427520000000  0.4584750000000 1.0
C      1  0.5145390000000  0.4790340000000  0.5629190000000 1.0
C      1  0.5617870000000  0.4458950000000  0.4599310000000 1.0
C      1  0.5683680000000  0.5063750000000  0.5596920000000 1.0
C      1  0.5754230000000  0.5532520000000  0.4857390000000 1.0
C      1  0.4999850000000  0.5496380000000  0.4293690000000 1.0
C      1  0.5040100000000  0.4342730000000  0.4980990000000 1.0
C      1  0.4974080000000  0.5288060000000  0.5615720000000 1.0
C      1  0.4211490000000  0.5401510000000  0.4883880000000 1.0
C      1  0.4143740000000  0.4597550000000  0.4793560000000 1.0
C      1  0.4171220000000  0.4896540000000  0.5323990000000 1.0
C      1  0.4645340000000  0.4935810000000  0.5641160000000 1.0
C      1  0.4725450000000  0.5652400000000  0.4792180000000 1.0
C      1  0.4606550000000  0.4360010000000  0.4600740000000 1.0
C      1  0.4323930000000  0.4658740000000  0.5308370000000 1.0
C      1  0.4301890000000  0.5462990000000  0.5140060000000 1.0
C      1  0.4213830000000  0.4665230000000  0.4558900000000 1.0
C      1  0.5095030000000  0.4602630000000  0.5393180000000 1.0
C      1  0.5102220000000  0.5658770000000  0.5287720000000 1.0
C      1  0.4987870000000  0.4946470000000  0.4344750000000 1.0
C      1  0.5289490000000  0.4642190000000  0.5900710000000 1.0
C      1  0.5497960000000  0.5920010000000  0.4705530000000 1.0
C      1  0.5348320000000  0.4080600000000  0.4359720000000 1.0
C      1  0.5500450000000  0.5635410000000  0.4711600000000 1.0
C      1  0.5342130000000  0.4286340000000  0.4545440000000 1.0
C      1  0.5437970000000  0.4901960000000  0.5749000000000 1.0
C      1  0.4541760000000  0.4797900000000  0.5004630000000 1.0
C      1  0.4466690000000  0.5108000000000  0.5069280000000 1.0
C      1  0.4516210000000  0.5011570000000  0.4742650000000 1.0
C      1  0.5257950000000  0.5373920000000  0.4309180000000 1.0
C      1  0.5327480000000  0.4317140000000  0.5055960000000 1.0
C      1  0.5256940000000  0.5407090000000  0.5674360000000 1.0
C      1  0.5583770000000  0.5537470000000  0.5353310000000 1.0
C      1  0.5486550000000  0.4965710000000  0.4432680000000 1.0
C      1  0.5604940000000  0.4624100000000  0.5287930000000 1.0
C      1  0.4925140000000  0.4990150000000  0.5676690000000 1.0
C      1  0.5009800000000  0.5639050000000  0.4795700000000 1.0
C      1  0.4854380000000  0.4275670000000  0.4498320000000 1.0
C      1  0.5308250000000  0.4926890000000  0.5039390000000 1.0
C      1  0.5253820000000  0.5263710000000  0.5050290000000 1.0
C      1  0.5287750000000  0.5102080000000  0.4755660000000 1.0
C      1  0.4741160000000  0.5400860000000  0.4364800000000 1.0
C      1  0.4781980000000  0.4247130000000  0.5042920000000 1.0
C      1  0.4682880000000  0.5398630000000  0.5600480000000 1.0
C      1  0.4368570000000  0.4538140000000  0.5003610000000 1.0
C      1  0.4315770000000  0.5186120000000  0.5338450000000 1.0
C      1  0.4400660000000  0.5304460000000  0.4693630000000 1.0
C      1  0.4688090000000  0.5308140000000  0.4991250000000 1.0
C      1  0.4748080000000  0.4780900000000  0.4666790000000 1.0
C      1  0.4718110000000  0.4860220000000  0.5255710000000 1.0
C      1  0.5334750000000  0.5590420000000  0.5469800000000 1.0
C      1  0.5270360000000  0.5089350000000  0.4317620000000 1.0
C      1  0.5375160000000  0.4471140000000  0.5287250000000 1.0
C      1  0.4606040000000  0.5616540000000  0.5114680000000 1.0
C      1  0.4508760000000  0.4630630000000  0.4474690000000 1.0
C      1  0.4589370000000  0.4668580000000  0.5487210000000 1.0
C      1  0.4873510000000  0.5079840000000  0.5290440000000 1.0
C      1  0.4840570000000  0.5242000000000  0.4780120000000 1.0
C      1  0.4993000000000  0.4655600000000  0.4742640000000 1.0
C      1  0.4818390000000  0.4463380000000  0.5457600000000 1.0
C      1  0.4896900000000  0.5786890000000  0.5171670000000 1.0
C      1  0.4681320000000  0.4812940000000  0.4279410000000 1.0
C      1  0.5119300000000  0.4675450000000  0.5058400000000 1.0
C      1  0.5085830000000  0.5329950000000  0.5296860000000 1.0
C      1  0.5021280000000  0.5112780000000  0.4628390000000 1.0
C      1  0.5589900000000  0.4955890000000  0.4759240000000 1.0
C      1  0.5627330000000  0.4864990000000  0.5058910000000 1.0
C      1  0.5752840000000  0.5267530000000  0.5365910000000 1.0
C      1  0.4562510000000  0.4331140000000  0.4880110000000 1.0
C      1  0.4506650000000  0.5177860000000  0.5578500000000 1.0
C      1  0.4592960000000  0.5493940000000  0.4592640000000 1.0
C      1  0.5779110000000  0.4886890000000  0.5354360000000 1.0
C      1  0.5803160000000  0.5475610000000  0.5124010000000 1.0
C      1  0.5655460000000  0.4719600000000  0.4540980000000 1.0
C      1  0.4749060000000  0.4235150000000  0.5324070000000 1.0
C      1  0.4619880000000  0.5618360000000  0.5454710000000 1.0
C      1  0.4711700000000  0.5128260000000  0.4320370000000 1.0
C      1  0.5498600000000  0.4280830000000  0.4835960000000 1.0
C      1  0.5449550000000  0.5227120000000  0.5773870000000 1.0
C      1  0.5472790000000  0.5517920000000  0.4423680000000 1.0
END
