TITL C-2782226-7400-347 0.439703835641194 125000 -882.548475633064 0 0 148 (C1) n - 1
REM
REM in /home/nfs/bkarasulu/CARBON/AIRSS/Generating-Clusters/REBO/Higher-Symm/SD-CG/HFTN-CG
REM
REM
REM
REM
REM
REM ./C.cell (12c818d87b63d06a65506943cc24bca4)
REM
REM compiler GCC version 9.2.1 20190827 (Red Hat 9.2.1-1)
REM options -cpp -mtune=generic -march=x86-64 -g -O0 -fpre-include=/usr/include/finclude/math-vector-fortran.h
REM seed -325547585 462882885 1828080864 -1024235883 1296068216 1539350718 -1736857751 -1942649236 990467658 -1283615946 2127392225 487579089 -2065798782 1678348053 1935631937 669954315 -1563448785 1360666448 -1211667155 -1614402359 -2119990669 846690828 -179915597 -245232218 -903444601 -1758193146 -301303481 1788545399 -1292542965 -511408916 -1520013748 -958266134 -1648919647
REM
CELL 1.54180   50.00000   50.00000   50.00000   90.00000   90.00000   90.00000
LATT -1
SFAC C  
C      1  0.6062980000000  0.4983370000000  0.5333820000000 1.0
C      1  0.4866550000000  0.6479420000000  0.5304490000000 1.0
C      1  0.4915350000000  0.5331850000000  0.6017870000000 1.0
C      1  0.3905640000000  0.4919960000000  0.5334740000000 1.0
C      1  0.3812130000000  0.5010580000000  0.4960780000000 1.0
C      1  0.6156050000000  0.4926070000000  0.4954770000000 1.0
C      1  0.4720260000000  0.3898320000000  0.5046470000000 1.0
C      1  0.4501950000000  0.6164320000000  0.5253430000000 1.0
C      1  0.5211120000000  0.3913130000000  0.5132450000000 1.0
C      1  0.5004590000000  0.4850480000000  0.5935350000000 1.0
C      1  0.4713850000000  0.4789880000000  0.3485240000000 1.0
C      1  0.4873020000000  0.4581990000000  0.3784670000000 1.0
C      1  0.4788350000000  0.6179340000000  0.5384580000000 1.0
C      1  0.6111240000000  0.5203650000000  0.5108550000000 1.0
C      1  0.5147290000000  0.5121490000000  0.5990870000000 1.0
C      1  0.4932600000000  0.3904330000000  0.5276490000000 1.0
C      1  0.5001290000000  0.3847350000000  0.4891070000000 1.0
C      1  0.4586220000000  0.6454460000000  0.5180760000000 1.0
C      1  0.3891470000000  0.4725040000000  0.5083360000000 1.0
C      1  0.6050080000000  0.4711730000000  0.5169740000000 1.0
C      1  0.3890990000000  0.5205770000000  0.5204800000000 1.0
C      1  0.4756650000000  0.5061890000000  0.5999340000000 1.0
C      1  0.4921720000000  0.4566260000000  0.3466880000000 1.0
C      1  0.4657910000000  0.4818080000000  0.3786310000000 1.0
C      1  0.5241690000000  0.5009290000000  0.5403280000000 1.0
C      1  0.5500770000000  0.5200030000000  0.4892280000000 1.0
C      1  0.5190480000000  0.5492430000000  0.5231170000000 1.0
C      1  0.4824410000000  0.5016410000000  0.5439810000000 1.0
C      1  0.4852190000000  0.5024090000000  0.4493620000000 1.0
C      1  0.5248220000000  0.4978740000000  0.4493200000000 1.0
C      1  0.4622180000000  0.4834280000000  0.4931160000000 1.0
C      1  0.4481210000000  0.5217110000000  0.5062030000000 1.0
C      1  0.5436650000000  0.4824670000000  0.5008980000000 1.0
C      1  0.4917780000000  0.4529620000000  0.5231910000000 1.0
C      1  0.4989140000000  0.5457150000000  0.4728620000000 1.0
C      1  0.5079970000000  0.4514900000000  0.4710800000000 1.0
C      1  0.5052750000000  0.5272930000000  0.5399890000000 1.0
C      1  0.5245690000000  0.5423400000000  0.4926600000000 1.0
C      1  0.5500120000000  0.5087660000000  0.5215240000000 1.0
C      1  0.5023350000000  0.4750500000000  0.5448020000000 1.0
C      1  0.5021190000000  0.4731280000000  0.4484040000000 1.0
C      1  0.5062100000000  0.5266160000000  0.4493060000000 1.0
C      1  0.4802510000000  0.4544840000000  0.4909830000000 1.0
C      1  0.5180000000000  0.4597180000000  0.5025500000000 1.0
C      1  0.4688130000000  0.5429790000000  0.4888880000000 1.0
C      1  0.4552730000000  0.4939420000000  0.5248720000000 1.0
C      1  0.5511110000000  0.4922910000000  0.4690810000000 1.0
C      1  0.4560330000000  0.4988650000000  0.4660090000000 1.0
C      1  0.4309900000000  0.5802280000000  0.4989920000000 1.0
C      1  0.4757690000000  0.4388930000000  0.5920390000000 1.0
C      1  0.5882330000000  0.4833120000000  0.4279580000000 1.0
C      1  0.5624540000000  0.4099990000000  0.4961280000000 1.0
C      1  0.5690710000000  0.5938720000000  0.5073000000000 1.0
C      1  0.4490050000000  0.4070160000000  0.5056840000000 1.0
C      1  0.5160950000000  0.5733120000000  0.5828700000000 1.0
C      1  0.5181790000000  0.4292980000000  0.4080160000000 1.0
C      1  0.4834770000000  0.5759160000000  0.4111460000000 1.0
C      1  0.4185020000000  0.5180460000000  0.4313200000000 1.0
C      1  0.4105760000000  0.4876610000000  0.5524320000000 1.0
C      1  0.5849660000000  0.5136210000000  0.5661640000000 1.0
C      1  0.5852560000000  0.4321590000000  0.4945690000000 1.0
C      1  0.4352710000000  0.4754380000000  0.5898840000000 1.0
C      1  0.4911240000000  0.5918720000000  0.4399260000000 1.0
C      1  0.4116320000000  0.5568980000000  0.4988240000000 1.0
C      1  0.5982550000000  0.5453740000000  0.5081660000000 1.0
C      1  0.4070990000000  0.4504420000000  0.5054120000000 1.0
C      1  0.5634710000000  0.5202850000000  0.5916910000000 1.0
C      1  0.4417350000000  0.5228500000000  0.4072100000000 1.0
C      1  0.5658960000000  0.4774460000000  0.4033010000000 1.0
C      1  0.5135950000000  0.4108230000000  0.4340500000000 1.0
C      1  0.4887440000000  0.4074690000000  0.5490540000000 1.0
C      1  0.5154650000000  0.5901970000000  0.5569220000000 1.0
C      1  0.5371690000000  0.4418650000000  0.4278560000000 1.0
C      1  0.4386580000000  0.5257500000000  0.4576960000000 1.0
C      1  0.4473880000000  0.4272270000000  0.5256120000000 1.0
C      1  0.4686040000000  0.5601220000000  0.4320460000000 1.0
C      1  0.4619930000000  0.4438470000000  0.5681870000000 1.0
C      1  0.5377600000000  0.5592640000000  0.5678790000000 1.0
C      1  0.5691940000000  0.4718150000000  0.4537020000000 1.0
C      1  0.5671470000000  0.5272540000000  0.5413250000000 1.0
C      1  0.4353420000000  0.4736420000000  0.5398110000000 1.0
C      1  0.5626240000000  0.5744780000000  0.5268120000000 1.0
C      1  0.5534430000000  0.4258880000000  0.4716990000000 1.0
C      1  0.4543730000000  0.5710840000000  0.4798650000000 1.0
C      1  0.4521840000000  0.5387330000000  0.4307380000000 1.0
C      1  0.5282720000000  0.4312510000000  0.4569600000000 1.0
C      1  0.4287600000000  0.4484230000000  0.5238840000000 1.0
C      1  0.5552110000000  0.4615620000000  0.4263270000000 1.0
C      1  0.4425000000000  0.4623460000000  0.5674810000000 1.0
C      1  0.5535120000000  0.5374720000000  0.5693650000000 1.0
C      1  0.4790480000000  0.5694910000000  0.4610040000000 1.0
C      1  0.5351370000000  0.5707700000000  0.5381730000000 1.0
C      1  0.4728150000000  0.4326840000000  0.5417080000000 1.0
C      1  0.5788240000000  0.5514170000000  0.5278110000000 1.0
C      1  0.4309170000000  0.5470660000000  0.4770060000000 1.0
C      1  0.5755920000000  0.4472820000000  0.4692500000000 1.0
C      1  0.4895570000000  0.5583090000000  0.5840610000000 1.0
C      1  0.5877080000000  0.4828130000000  0.5675480000000 1.0
C      1  0.5771820000000  0.5841370000000  0.4818940000000 1.0
C      1  0.5032160000000  0.4350520000000  0.5882500000000 1.0
C      1  0.5142110000000  0.5726580000000  0.4141570000000 1.0
C      1  0.4963420000000  0.4468670000000  0.4018800000000 1.0
C      1  0.4166130000000  0.5061080000000  0.5725580000000 1.0
C      1  0.4278860000000  0.4896310000000  0.4232190000000 1.0
C      1  0.5916160000000  0.5138740000000  0.4268290000000 1.0
C      1  0.4387570000000  0.4174860000000  0.4813830000000 1.0
C      1  0.4386240000000  0.5910280000000  0.5240040000000 1.0
C      1  0.5448580000000  0.4061360000000  0.5182310000000 1.0
C      1  0.5600150000000  0.4901570000000  0.5859900000000 1.0
C      1  0.4886790000000  0.5947890000000  0.5496230000000 1.0
C      1  0.5906400000000  0.5558000000000  0.4828480000000 1.0
C      1  0.4457160000000  0.5049560000000  0.5913540000000 1.0
C      1  0.5639620000000  0.5079750000000  0.4083600000000 1.0
C      1  0.4543130000000  0.4931730000000  0.4024110000000 1.0
C      1  0.5084650000000  0.4112270000000  0.5691790000000 1.0
C      1  0.4861150000000  0.4075630000000  0.4394480000000 1.0
C      1  0.5220880000000  0.5955280000000  0.4376010000000 1.0
C      1  0.4134900000000  0.4372260000000  0.4806760000000 1.0
C      1  0.5897640000000  0.4476320000000  0.5179570000000 1.0
C      1  0.4059910000000  0.5432950000000  0.5233450000000 1.0
C      1  0.5242600000000  0.5457020000000  0.4295640000000 1.0
C      1  0.4324240000000  0.5286580000000  0.5622550000000 1.0
C      1  0.5487720000000  0.4255050000000  0.5393580000000 1.0
C      1  0.4833030000000  0.4553600000000  0.4278460000000 1.0
C      1  0.4829220000000  0.5393520000000  0.5580000000000 1.0
C      1  0.5171610000000  0.4592430000000  0.5709370000000 1.0
C      1  0.5655650000000  0.4677590000000  0.5538500000000 1.0
C      1  0.5694140000000  0.5259360000000  0.4427830000000 1.0
C      1  0.4387460000000  0.4766740000000  0.4494060000000 1.0
C      1  0.4429630000000  0.5714980000000  0.5442780000000 1.0
C      1  0.4610970000000  0.4378000000000  0.4694760000000 1.0
C      1  0.5577840000000  0.5680780000000  0.4642170000000 1.0
C      1  0.5405260000000  0.5192810000000  0.4298890000000 1.0
C      1  0.5304530000000  0.4299230000000  0.5599430000000 1.0
C      1  0.4254980000000  0.5489860000000  0.5444850000000 1.0
C      1  0.4662110000000  0.4819250000000  0.4310450000000 1.0
C      1  0.5374090000000  0.4812020000000  0.5629010000000 1.0
C      1  0.4619230000000  0.5182860000000  0.5644740000000 1.0
C      1  0.4704860000000  0.5705570000000  0.5580610000000 1.0
C      1  0.5379100000000  0.5710530000000  0.4459660000000 1.0
C      1  0.4731870000000  0.4311240000000  0.4435060000000 1.0
C      1  0.5692400000000  0.4454040000000  0.5375600000000 1.0
C      1  0.4335570000000  0.4522650000000  0.4636290000000 1.0
C      1  0.5676400000000  0.5379030000000  0.4692760000000 1.0
C      1  0.4905090000000  0.4897690000000  0.5066890000000 1.0
C      1  0.4805240000000  0.5210240000000  0.5094280000000 1.0
C      1  0.5149300000000  0.4882220000000  0.4849810000000 1.0
C      1  0.5112010000000  0.5159890000000  0.5021350000000 1.0
END
