TITL C-2782233-7966-1464 -0.00117421032700397 125000 -968.855047368359 0 0 166 (C1) n - 1
REM
REM in /home/nfs/bkarasulu/CARBON/AIRSS/Generating-Clusters/REBO/Higher-Symm/SD-CG/HFTN-CG
REM
REM
REM
REM
REM
REM ./C.cell (12c818d87b63d06a65506943cc24bca4)
REM
REM compiler GCC version 9.2.1 20190827 (Red Hat 9.2.1-1)
REM options -cpp -mtune=generic -march=x86-64 -g -O0 -fpre-include=/usr/include/finclude/math-vector-fortran.h
REM seed -1218209058 -703624263 -1610717704 -1229197496 -199089917 -932727799 -1132322265 -832086470 -1277708801 1239032558 159523496 1696886758 44045406 2057566543 1454366245 457396549 -656817021 -904167970 213471416 -1502903295 1562615987 -1484006437 1835285473 -497358448 -901597932 -1922088003 -1132087402 -23152690 1610385014 1711207125 727725792 393468441 -536928604
REM
CELL 1.54180   50.00000   50.00000   50.00000   90.00000   90.00000   90.00000
LATT -1
SFAC C  
C      1  0.4411850000000  0.5439590000000  0.4147670000000 1.0
C      1  0.4419520000000  0.4586280000000  0.4169790000000 1.0
C      1  0.4611930000000  0.5133790000000  0.5565070000000 1.0
C      1  0.4683820000000  0.4825380000000  0.5474220000000 1.0
C      1  0.4568860000000  0.5587820000000  0.4608760000000 1.0
C      1  0.4596990000000  0.4458960000000  0.4617210000000 1.0
C      1  0.5186030000000  0.5234840000000  0.5768520000000 1.0
C      1  0.5213160000000  0.4711130000000  0.5778930000000 1.0
C      1  0.5691420000000  0.5499620000000  0.5269250000000 1.0
C      1  0.5698730000000  0.4555880000000  0.5247580000000 1.0
C      1  0.4294890000000  0.4100850000000  0.5166230000000 1.0
C      1  0.4264870000000  0.5879060000000  0.5145040000000 1.0
C      1  0.4282820000000  0.4124270000000  0.4826580000000 1.0
C      1  0.4245930000000  0.5898020000000  0.4813360000000 1.0
C      1  0.4888280000000  0.5491160000000  0.5820580000000 1.0
C      1  0.4867410000000  0.4516420000000  0.5743820000000 1.0
C      1  0.4853610000000  0.4568500000000  0.4783950000000 1.0
C      1  0.4812700000000  0.5499070000000  0.4797460000000 1.0
C      1  0.5372720000000  0.4838010000000  0.4077750000000 1.0
C      1  0.5339520000000  0.5134790000000  0.4079210000000 1.0
C      1  0.5812300000000  0.5148640000000  0.4257970000000 1.0
C      1  0.5822850000000  0.4855630000000  0.4346800000000 1.0
C      1  0.5242050000000  0.5784580000000  0.5449310000000 1.0
C      1  0.5272310000000  0.4179960000000  0.5468610000000 1.0
C      1  0.5322550000000  0.4028060000000  0.4981820000000 1.0
C      1  0.5318820000000  0.5945970000000  0.4972060000000 1.0
C      1  0.5141790000000  0.4672860000000  0.4093280000000 1.0
C      1  0.5097820000000  0.5284120000000  0.4115250000000 1.0
C      1  0.5578300000000  0.4324470000000  0.5036870000000 1.0
C      1  0.5527030000000  0.5607800000000  0.4990650000000 1.0
C      1  0.4598120000000  0.4762230000000  0.4546100000000 1.0
C      1  0.4587960000000  0.5282630000000  0.4548060000000 1.0
C      1  0.4663530000000  0.4258400000000  0.4395980000000 1.0
C      1  0.4643570000000  0.5774580000000  0.4378360000000 1.0
C      1  0.5133150000000  0.5573750000000  0.4276120000000 1.0
C      1  0.5173610000000  0.4436780000000  0.4298820000000 1.0
C      1  0.4872190000000  0.4803120000000  0.4099640000000 1.0
C      1  0.4825120000000  0.5122900000000  0.4127370000000 1.0
C      1  0.5522950000000  0.4847070000000  0.5229510000000 1.0
C      1  0.5619360000000  0.5167460000000  0.5290360000000 1.0
C      1  0.4010530000000  0.4700170000000  0.5595870000000 1.0
C      1  0.3983690000000  0.5317160000000  0.5707140000000 1.0
C      1  0.4549410000000  0.5177540000000  0.5026670000000 1.0
C      1  0.4634410000000  0.4867760000000  0.4988160000000 1.0
C      1  0.4417060000000  0.5651080000000  0.5431230000000 1.0
C      1  0.4294640000000  0.4344810000000  0.5479250000000 1.0
C      1  0.5887550000000  0.4339900000000  0.4780820000000 1.0
C      1  0.5851090000000  0.5625370000000  0.4759280000000 1.0
C      1  0.5338750000000  0.4020400000000  0.4649160000000 1.0
C      1  0.5332750000000  0.5975400000000  0.4633540000000 1.0
C      1  0.4781590000000  0.4603780000000  0.5092880000000 1.0
C      1  0.4737790000000  0.5436060000000  0.5123500000000 1.0
C      1  0.4920030000000  0.4861340000000  0.5266700000000 1.0
C      1  0.4812790000000  0.5173100000000  0.5326360000000 1.0
C      1  0.5143800000000  0.5896100000000  0.4360450000000 1.0
C      1  0.5158970000000  0.4115650000000  0.4375700000000 1.0
C      1  0.5115680000000  0.5418410000000  0.5251100000000 1.0
C      1  0.5083960000000  0.4505200000000  0.5331800000000 1.0
C      1  0.4305130000000  0.5134120000000  0.5566860000000 1.0
C      1  0.4372810000000  0.4824320000000  0.5487680000000 1.0
C      1  0.4093960000000  0.5318180000000  0.5410070000000 1.0
C      1  0.4139660000000  0.4677720000000  0.5321680000000 1.0
C      1  0.5148460000000  0.5208560000000  0.4998270000000 1.0
C      1  0.5275340000000  0.4891360000000  0.5008520000000 1.0
C      1  0.5532600000000  0.5560770000000  0.5770220000000 1.0
C      1  0.5495720000000  0.4438870000000  0.5705180000000 1.0
C      1  0.4296740000000  0.4403000000000  0.4709880000000 1.0
C      1  0.4258310000000  0.5621250000000  0.4689060000000 1.0
C      1  0.5482950000000  0.5836060000000  0.5223420000000 1.0
C      1  0.5514870000000  0.4064670000000  0.5250140000000 1.0
C      1  0.4098520000000  0.5142160000000  0.4770780000000 1.0
C      1  0.4073570000000  0.4831480000000  0.4781260000000 1.0
C      1  0.4520420000000  0.3947000000000  0.4970310000000 1.0
C      1  0.4519740000000  0.6010350000000  0.4965840000000 1.0
C      1  0.5923530000000  0.5578930000000  0.5030850000000 1.0
C      1  0.5951240000000  0.4459910000000  0.5034640000000 1.0
C      1  0.5185680000000  0.4397670000000  0.5791030000000 1.0
C      1  0.5225280000000  0.5547370000000  0.5825620000000 1.0
C      1  0.5903770000000  0.5122180000000  0.4636180000000 1.0
C      1  0.6014400000000  0.4801520000000  0.4609280000000 1.0
C      1  0.6056730000000  0.5187060000000  0.5366310000000 1.0
C      1  0.6005270000000  0.4889920000000  0.5387020000000 1.0
C      1  0.4764870000000  0.6097980000000  0.4782960000000 1.0
C      1  0.4799080000000  0.3932050000000  0.4811850000000 1.0
C      1  0.5087600000000  0.5331690000000  0.4511900000000 1.0
C      1  0.5112630000000  0.4702740000000  0.4511720000000 1.0
C      1  0.5416170000000  0.4391410000000  0.4525880000000 1.0
C      1  0.5378260000000  0.5604240000000  0.4497700000000 1.0
C      1  0.5079100000000  0.5096250000000  0.6037440000000 1.0
C      1  0.5084200000000  0.4844650000000  0.6042720000000 1.0
C      1  0.5521450000000  0.5281230000000  0.4983850000000 1.0
C      1  0.5618550000000  0.4619230000000  0.4869940000000 1.0
C      1  0.4535010000000  0.5911250000000  0.5348990000000 1.0
C      1  0.4485890000000  0.4097520000000  0.5446880000000 1.0
C      1  0.4851390000000  0.5897630000000  0.5418160000000 1.0
C      1  0.4764130000000  0.4059710000000  0.5419040000000 1.0
C      1  0.5102250000000  0.5746280000000  0.5146860000000 1.0
C      1  0.5195920000000  0.4276140000000  0.5156790000000 1.0
C      1  0.4179430000000  0.4583840000000  0.4938810000000 1.0
C      1  0.4152870000000  0.5426860000000  0.4913180000000 1.0
C      1  0.5799590000000  0.5175120000000  0.5576580000000 1.0
C      1  0.5714570000000  0.4851300000000  0.5513570000000 1.0
C      1  0.5084340000000  0.5617640000000  0.4673800000000 1.0
C      1  0.5118670000000  0.4419370000000  0.4692410000000 1.0
C      1  0.5656920000000  0.5303720000000  0.5805830000000 1.0
C      1  0.5611140000000  0.4693950000000  0.5745060000000 1.0
C      1  0.5609550000000  0.4702280000000  0.4168780000000 1.0
C      1  0.5573170000000  0.5290860000000  0.4139190000000 1.0
C      1  0.5563880000000  0.5685840000000  0.5504230000000 1.0
C      1  0.5580470000000  0.4328490000000  0.5435870000000 1.0
C      1  0.4807310000000  0.3954150000000  0.5152670000000 1.0
C      1  0.4831790000000  0.5943390000000  0.5083460000000 1.0
C      1  0.5591650000000  0.4210410000000  0.4737620000000 1.0
C      1  0.5560180000000  0.5754080000000  0.4719350000000 1.0
C      1  0.4974440000000  0.4214600000000  0.5605170000000 1.0
C      1  0.5026900000000  0.5771390000000  0.5680780000000 1.0
C      1  0.4541940000000  0.4844600000000  0.4084340000000 1.0
C      1  0.4510120000000  0.5175040000000  0.4073570000000 1.0
C      1  0.4561960000000  0.4458130000000  0.5601510000000 1.0
C      1  0.4611210000000  0.5526340000000  0.5634660000000 1.0
C      1  0.5466500000000  0.4860240000000  0.5930580000000 1.0
C      1  0.5455950000000  0.5132300000000  0.5906320000000 1.0
C      1  0.4457420000000  0.5215060000000  0.6035660000000 1.0
C      1  0.4490120000000  0.4894260000000  0.5957350000000 1.0
C      1  0.5299370000000  0.5194280000000  0.4687740000000 1.0
C      1  0.5314330000000  0.4867200000000  0.4670600000000 1.0
C      1  0.5626900000000  0.5484650000000  0.4362320000000 1.0
C      1  0.5673690000000  0.4485760000000  0.4369110000000 1.0
C      1  0.4271950000000  0.4578520000000  0.4417780000000 1.0
C      1  0.4261750000000  0.5451930000000  0.4392920000000 1.0
C      1  0.4180810000000  0.5137910000000  0.5883310000000 1.0
C      1  0.4203350000000  0.4821720000000  0.5792240000000 1.0
C      1  0.4833460000000  0.5989080000000  0.4466150000000 1.0
C      1  0.4846820000000  0.4041440000000  0.4490620000000 1.0
C      1  0.5584500000000  0.5122390000000  0.4523410000000 1.0
C      1  0.5614640000000  0.4798210000000  0.4608610000000 1.0
C      1  0.6045630000000  0.4733400000000  0.5158280000000 1.0
C      1  0.6004350000000  0.5302080000000  0.5117830000000 1.0
C      1  0.4962720000000  0.4878070000000  0.4871340000000 1.0
C      1  0.4842800000000  0.5174930000000  0.4847140000000 1.0
C      1  0.4315310000000  0.4861290000000  0.5094020000000 1.0
C      1  0.4247040000000  0.5187080000000  0.5136080000000 1.0
C      1  0.4774170000000  0.4455260000000  0.5364710000000 1.0
C      1  0.4842520000000  0.5565540000000  0.5394680000000 1.0
C      1  0.5167840000000  0.4803590000000  0.5477000000000 1.0
C      1  0.5124780000000  0.5144080000000  0.5461450000000 1.0
C      1  0.5845580000000  0.5432140000000  0.4543220000000 1.0
C      1  0.5905340000000  0.4506510000000  0.4542300000000 1.0
C      1  0.4847720000000  0.5176130000000  0.4447420000000 1.0
C      1  0.4855240000000  0.4860560000000  0.4426830000000 1.0
C      1  0.5020360000000  0.5915180000000  0.4732880000000 1.0
C      1  0.5036070000000  0.4132080000000  0.4746470000000 1.0
C      1  0.4504350000000  0.4582410000000  0.5897210000000 1.0
C      1  0.4508990000000  0.5496930000000  0.5940440000000 1.0
C      1  0.4130140000000  0.4386180000000  0.5193960000000 1.0
C      1  0.4170260000000  0.5569000000000  0.5220290000000 1.0
C      1  0.5877550000000  0.4830780000000  0.4907240000000 1.0
C      1  0.5811800000000  0.5139490000000  0.4942610000000 1.0
C      1  0.4740550000000  0.5185110000000  0.5847720000000 1.0
C      1  0.4780260000000  0.4846260000000  0.5785270000000 1.0
C      1  0.4579690000000  0.5674730000000  0.4123100000000 1.0
C      1  0.4581840000000  0.4345910000000  0.4142030000000 1.0
C      1  0.4673340000000  0.5770280000000  0.3887550000000 1.0
C      1  0.4653640000000  0.4237870000000  0.3904340000000 1.0
C      1  0.4285910000000  0.4871760000000  0.4543950000000 1.0
C      1  0.4294420000000  0.5170890000000  0.4521180000000 1.0
END
