TITL C-2782237-5345-501 -0.00375824608370068 125000 -944.32073926607 0 0 165 (C1) n - 1
REM
REM in /home/nfs/bkarasulu/CARBON/AIRSS/Generating-Clusters/REBO/Higher-Symm/SD-CG/HFTN-CG
REM
REM
REM
REM
REM
REM ./C.cell (12c818d87b63d06a65506943cc24bca4)
REM
REM compiler GCC version 9.2.1 20190827 (Red Hat 9.2.1-1)
REM options -cpp -mtune=generic -march=x86-64 -g -O0 -fpre-include=/usr/include/finclude/math-vector-fortran.h
REM seed -320575340 -1588561920 -2087073477 -1834024977 336225413 -1012534419 -1752657720 832664263 -1121485627 1039652066 -1963272339 -718443703 1137594469 -927773400 -1175415877 1799203240 724009122 -2000804488 1126568008 1497669065 1522470151 -1414697341 172272779 582886078 1200232187 1405817805 -983383189 -131089747 -540529504 -968443135 -984858395 927124505 -416957593
REM
CELL 1.54180   50.00000   50.00000   50.00000   90.00000   90.00000   90.00000
LATT -1
SFAC C  
C      1  0.4802320000000  0.5233180000000  0.5869470000000 1.0
C      1  0.5312980000000  0.5121700000000  0.5826660000000 1.0
C      1  0.4969940000000  0.4724920000000  0.5821600000000 1.0
C      1  0.5110990000000  0.5194970000000  0.4365640000000 1.0
C      1  0.5193120000000  0.4762550000000  0.4391670000000 1.0
C      1  0.4838220000000  0.5002380000000  0.4409060000000 1.0
C      1  0.4709810000000  0.5930590000000  0.4830550000000 1.0
C      1  0.5981270000000  0.4690800000000  0.4794230000000 1.0
C      1  0.4182550000000  0.4210290000000  0.4803880000000 1.0
C      1  0.4879120000000  0.5148170000000  0.5104250000000 1.0
C      1  0.5201090000000  0.5045450000000  0.5153830000000 1.0
C      1  0.4958850000000  0.4810620000000  0.5106540000000 1.0
C      1  0.4542930000000  0.4673870000000  0.5341440000000 1.0
C      1  0.5024110000000  0.5638140000000  0.5399390000000 1.0
C      1  0.5615740000000  0.4753370000000  0.5320990000000 1.0
C      1  0.4664940000000  0.6050860000000  0.5319550000000 1.0
C      1  0.6049090000000  0.4725360000000  0.5475030000000 1.0
C      1  0.4369360000000  0.4360730000000  0.5169850000000 1.0
C      1  0.5781560000000  0.5617970000000  0.5269890000000 1.0
C      1  0.5101420000000  0.3952070000000  0.5291550000000 1.0
C      1  0.4049070000000  0.5406290000000  0.5279650000000 1.0
C      1  0.4457000000000  0.4493610000000  0.4868490000000 1.0
C      1  0.4957170000000  0.5707350000000  0.4824940000000 1.0
C      1  0.5667890000000  0.4589370000000  0.4831540000000 1.0
C      1  0.4513010000000  0.4855680000000  0.4179400000000 1.0
C      1  0.5088290000000  0.5618700000000  0.4094690000000 1.0
C      1  0.5344330000000  0.4436690000000  0.4220750000000 1.0
C      1  0.5567020000000  0.5423840000000  0.5734250000000 1.0
C      1  0.5098990000000  0.4359140000000  0.5724650000000 1.0
C      1  0.4393040000000  0.5286690000000  0.5754510000000 1.0
C      1  0.5559390000000  0.5203910000000  0.5469680000000 1.0
C      1  0.4994830000000  0.4443780000000  0.5419360000000 1.0
C      1  0.4539640000000  0.5379910000000  0.5459620000000 1.0
C      1  0.4635760000000  0.4165980000000  0.4524200000000 1.0
C      1  0.4433280000000  0.5691930000000  0.4545700000000 1.0
C      1  0.5870850000000  0.5103850000000  0.4547880000000 1.0
C      1  0.4567130000000  0.5326130000000  0.4639280000000 1.0
C      1  0.5485340000000  0.5189710000000  0.4741210000000 1.0
C      1  0.4911800000000  0.4433290000000  0.4631780000000 1.0
C      1  0.5521020000000  0.4254500000000  0.5475390000000 1.0
C      1  0.4136500000000  0.4954360000000  0.5498560000000 1.0
C      1  0.5285690000000  0.5810560000000  0.5534040000000 1.0
C      1  0.4330820000000  0.5390590000000  0.5225550000000 1.0
C      1  0.5705390000000  0.5324880000000  0.5206870000000 1.0
C      1  0.4921000000000  0.4204270000000  0.5226470000000 1.0
C      1  0.5476010000000  0.4628290000000  0.5825010000000 1.0
C      1  0.4481870000000  0.4828410000000  0.5841890000000 1.0
C      1  0.5181120000000  0.5570680000000  0.5969070000000 1.0
C      1  0.4215590000000  0.4617220000000  0.5337650000000 1.0
C      1  0.4972030000000  0.5965870000000  0.5342240000000 1.0
C      1  0.5806260000000  0.4505800000000  0.5435860000000 1.0
C      1  0.5490750000000  0.4434160000000  0.4612630000000 1.0
C      1  0.4124570000000  0.4711700000000  0.4496900000000 1.0
C      1  0.5156000000000  0.5696040000000  0.4579070000000 1.0
C      1  0.4309800000000  0.4952380000000  0.5140870000000 1.0
C      1  0.5367800000000  0.5656570000000  0.5177020000000 1.0
C      1  0.5456200000000  0.4391730000000  0.5106630000000 1.0
C      1  0.4326150000000  0.4520830000000  0.5640010000000 1.0
C      1  0.4842810000000  0.5897530000000  0.5642870000000 1.0
C      1  0.5721320000000  0.4695670000000  0.5701390000000 1.0
C      1  0.5428340000000  0.4921630000000  0.5502500000000 1.0
C      1  0.4649600000000  0.4759110000000  0.5584700000000 1.0
C      1  0.4872240000000  0.5374300000000  0.5503400000000 1.0
C      1  0.4957750000000  0.4082970000000  0.4447090000000 1.0
C      1  0.4238040000000  0.5432680000000  0.4442790000000 1.0
C      1  0.5713200000000  0.5399740000000  0.4492100000000 1.0
C      1  0.5417910000000  0.3931580000000  0.4914920000000 1.0
C      1  0.3878040000000  0.5133990000000  0.4926130000000 1.0
C      1  0.5566660000000  0.5927430000000  0.4961970000000 1.0
C      1  0.5301330000000  0.5427700000000  0.4003580000000 1.0
C      1  0.5075240000000  0.4631050000000  0.4129190000000 1.0
C      1  0.4689560000000  0.5124580000000  0.4062100000000 1.0
C      1  0.5317330000000  0.5396930000000  0.4529760000000 1.0
C      1  0.5193620000000  0.4541130000000  0.4574530000000 1.0
C      1  0.4534860000000  0.5007740000000  0.4567420000000 1.0
C      1  0.5085630000000  0.5313440000000  0.5954030000000 1.0
C      1  0.5273330000000  0.4820920000000  0.5890960000000 1.0
C      1  0.4754500000000  0.4915350000000  0.5937420000000 1.0
C      1  0.4990690000000  0.5767000000000  0.4320310000000 1.0
C      1  0.5610370000000  0.4593920000000  0.4336330000000 1.0
C      1  0.4332380000000  0.4620790000000  0.4343470000000 1.0
C      1  0.6023070000000  0.4453720000000  0.4953570000000 1.0
C      1  0.4063350000000  0.4425680000000  0.4852720000000 1.0
C      1  0.4921860000000  0.6079140000000  0.4963830000000 1.0
C      1  0.5274750000000  0.4192490000000  0.4372290000000 1.0
C      1  0.4243840000000  0.5088940000000  0.4455870000000 1.0
C      1  0.5504020000000  0.5654530000000  0.4391160000000 1.0
C      1  0.4816720000000  0.4810780000000  0.4024170000000 1.0
C      1  0.4911790000000  0.5356200000000  0.3948820000000 1.0
C      1  0.5191730000000  0.5236550000000  0.3807580000000 1.0
C      1  0.5186860000000  0.5308180000000  0.5569010000000 1.0
C      1  0.5140670000000  0.4740500000000  0.5526250000000 1.0
C      1  0.4752550000000  0.5066910000000  0.5571600000000 1.0
C      1  0.4141480000000  0.5605220000000  0.4946650000000 1.0
C      1  0.6029090000000  0.5348880000000  0.4730840000000 1.0
C      1  0.4883590000000  0.3899430000000  0.4961490000000 1.0
C      1  0.5046850000000  0.5164750000000  0.4705170000000 1.0
C      1  0.5196610000000  0.4873330000000  0.4793440000000 1.0
C      1  0.4876290000000  0.4872200000000  0.4721380000000 1.0
C      1  0.5376480000000  0.4375410000000  0.5743790000000 1.0
C      1  0.4288460000000  0.5026710000000  0.5770020000000 1.0
C      1  0.5386400000000  0.5634510000000  0.5781130000000 1.0
C      1  0.5533640000000  0.5388010000000  0.4194860000000 1.0
C      1  0.4930840000000  0.4375140000000  0.4301140000000 1.0
C      1  0.4517660000000  0.5302230000000  0.4298050000000 1.0
C      1  0.5443110000000  0.5853760000000  0.4662050000000 1.0
C      1  0.5471480000000  0.4117130000000  0.4634730000000 1.0
C      1  0.3989620000000  0.4977820000000  0.4644260000000 1.0
C      1  0.4566650000000  0.4357370000000  0.5620890000000 1.0
C      1  0.4599980000000  0.5732120000000  0.5638900000000 1.0
C      1  0.5805850000000  0.4968520000000  0.5678290000000 1.0
C      1  0.4718580000000  0.4696600000000  0.4400940000000 1.0
C      1  0.4884120000000  0.5398830000000  0.4415800000000 1.0
C      1  0.5394830000000  0.4932770000000  0.4451090000000 1.0
C      1  0.5520700000000  0.4859820000000  0.4741650000000 1.0
C      1  0.4675350000000  0.4621750000000  0.4716920000000 1.0
C      1  0.4853830000000  0.5428510000000  0.4734420000000 1.0
C      1  0.5590010000000  0.5571060000000  0.4764900000000 1.0
C      1  0.5162810000000  0.3999300000000  0.4699500000000 1.0
C      1  0.4044230000000  0.5312560000000  0.4693870000000 1.0
C      1  0.5762890000000  0.5329660000000  0.4884150000000 1.0
C      1  0.4931280000000  0.4199950000000  0.4827900000000 1.0
C      1  0.4339840000000  0.5398540000000  0.4826700000000 1.0
C      1  0.5512600000000  0.4083250000000  0.5167040000000 1.0
C      1  0.3992720000000  0.5009160000000  0.5182910000000 1.0
C      1  0.5442090000000  0.5976180000000  0.5275610000000 1.0
C      1  0.5761930000000  0.4435340000000  0.5128880000000 1.0
C      1  0.4199380000000  0.4673470000000  0.5001780000000 1.0
C      1  0.5126440000000  0.5843870000000  0.5074910000000 1.0
C      1  0.4563820000000  0.5239410000000  0.5029430000000 1.0
C      1  0.5414670000000  0.5236660000000  0.5054790000000 1.0
C      1  0.4970310000000  0.4476430000000  0.5024430000000 1.0
C      1  0.4504960000000  0.4363810000000  0.4350760000000 1.0
C      1  0.4670740000000  0.5739960000000  0.4378980000000 1.0
C      1  0.5768040000000  0.4845250000000  0.4349330000000 1.0
C      1  0.5311790000000  0.4501400000000  0.5370680000000 1.0
C      1  0.4451840000000  0.5056650000000  0.5407350000000 1.0
C      1  0.5372500000000  0.5449910000000  0.5388960000000 1.0
C      1  0.4502030000000  0.4170860000000  0.4816310000000 1.0
C      1  0.4453420000000  0.5814430000000  0.4809270000000 1.0
C      1  0.5984970000000  0.4968620000000  0.4830570000000 1.0
C      1  0.5651420000000  0.5146860000000  0.5850780000000 1.0
C      1  0.4799080000000  0.4435670000000  0.5766440000000 1.0
C      1  0.4601790000000  0.5505950000000  0.5829710000000 1.0
C      1  0.5402710000000  0.4803120000000  0.5124950000000 1.0
C      1  0.4654580000000  0.4756530000000  0.5095120000000 1.0
C      1  0.5044170000000  0.5430080000000  0.5130760000000 1.0
C      1  0.5581000000000  0.5092400000000  0.4274210000000 1.0
C      1  0.4696400000000  0.4506800000000  0.4116920000000 1.0
C      1  0.4711440000000  0.5511130000000  0.4154710000000 1.0
C      1  0.4641860000000  0.4080150000000  0.5075430000000 1.0
C      1  0.4316790000000  0.5792560000000  0.5099560000000 1.0
C      1  0.5986140000000  0.5059290000000  0.5106120000000 1.0
C      1  0.4461830000000  0.5833480000000  0.5350390000000 1.0
C      1  0.5971170000000  0.5009370000000  0.5391550000000 1.0
C      1  0.4552120000000  0.4220000000000  0.5367430000000 1.0
C      1  0.5802510000000  0.5780170000000  0.5031350000000 1.0
C      1  0.5147140000000  0.3789250000000  0.5039240000000 1.0
C      1  0.3887310000000  0.5459730000000  0.5026160000000 1.0
C      1  0.4516490000000  0.4951040000000  0.4876850000000 1.0
C      1  0.5291330000000  0.5505930000000  0.4907650000000 1.0
C      1  0.5254620000000  0.4584870000000  0.4960640000000 1.0
C      1  0.5618770000000  0.5758240000000  0.5469430000000 1.0
C      1  0.5357270000000  0.3970520000000  0.5439730000000 1.0
C      1  0.3921480000000  0.5196790000000  0.5453790000000 1.0
END
