TITL C-2782237-5345-585 -0.000364237200955017 125000 -1047.87024816764 0 0 183 (C1) n - 1
REM
REM in /home/nfs/bkarasulu/CARBON/AIRSS/Generating-Clusters/REBO/Higher-Symm/SD-CG/HFTN-CG
REM
REM
REM
REM
REM
REM ./C.cell (12c818d87b63d06a65506943cc24bca4)
REM
REM compiler GCC version 9.2.1 20190827 (Red Hat 9.2.1-1)
REM options -cpp -mtune=generic -march=x86-64 -g -O0 -fpre-include=/usr/include/finclude/math-vector-fortran.h
REM seed 1538059153 -317906529 147012498 1222602207 -1599222096 -270948117 504583900 -1873999107 2056667474 -1207572585 -128598745 846656009 -1166801167 2142518783 1203788775 1691639235 75182273 -1077358574 -2102699757 -2025960777 -627978591 -2000843419 1488071060 -2140149992 776162384 -210521166 2044001761 -1863271073 1539789419 1644677308 758538014 1843577006 99837808
REM
CELL 1.54180   50.00000   50.00000   50.00000   90.00000   90.00000   90.00000
LATT -1
SFAC C  
C      1  0.4611360000000  0.5102750000000  0.5677560000000 1.0
C      1  0.4554080000000  0.4372440000000  0.5290440000000 1.0
C      1  0.4548900000000  0.4547920000000  0.4466160000000 1.0
C      1  0.4616340000000  0.5315150000000  0.4478440000000 1.0
C      1  0.4548060000000  0.5664970000000  0.5125880000000 1.0
C      1  0.5445480000000  0.4211280000000  0.4334520000000 1.0
C      1  0.5379580000000  0.5309370000000  0.3998020000000 1.0
C      1  0.5338930000000  0.6031130000000  0.4983380000000 1.0
C      1  0.5432600000000  0.5209560000000  0.6056100000000 1.0
C      1  0.5413970000000  0.4133110000000  0.5491020000000 1.0
C      1  0.4888890000000  0.5467700000000  0.4158490000000 1.0
C      1  0.4891640000000  0.6081750000000  0.5127930000000 1.0
C      1  0.4985640000000  0.5145660000000  0.5961540000000 1.0
C      1  0.4883800000000  0.4072970000000  0.5479110000000 1.0
C      1  0.4866100000000  0.4221470000000  0.4307660000000 1.0
C      1  0.4902990000000  0.4310820000000  0.5818660000000 1.0
C      1  0.4793010000000  0.3916380000000  0.4691720000000 1.0
C      1  0.4893870000000  0.4969390000000  0.3968880000000 1.0
C      1  0.4818060000000  0.6044770000000  0.4606270000000 1.0
C      1  0.4926350000000  0.5661360000000  0.5868310000000 1.0
C      1  0.3938650000000  0.4689920000000  0.4967260000000 1.0
C      1  0.4024180000000  0.4756640000000  0.4613390000000 1.0
C      1  0.3994280000000  0.5290440000000  0.4706190000000 1.0
C      1  0.4095310000000  0.5454120000000  0.5340520000000 1.0
C      1  0.4087360000000  0.4876790000000  0.5574170000000 1.0
C      1  0.5921990000000  0.4330360000000  0.5275300000000 1.0
C      1  0.5866080000000  0.4542510000000  0.4428610000000 1.0
C      1  0.5706340000000  0.5361440000000  0.4422000000000 1.0
C      1  0.5717010000000  0.5739500000000  0.5193310000000 1.0
C      1  0.5722620000000  0.5030050000000  0.5675690000000 1.0
C      1  0.4742420000000  0.5382040000000  0.5936250000000 1.0
C      1  0.4632470000000  0.4201570000000  0.5641410000000 1.0
C      1  0.4627420000000  0.4123230000000  0.4507090000000 1.0
C      1  0.4678910000000  0.5214380000000  0.4071850000000 1.0
C      1  0.4650630000000  0.6092080000000  0.4893390000000 1.0
C      1  0.4218550000000  0.5886480000000  0.5159210000000 1.0
C      1  0.4294340000000  0.5165560000000  0.5911530000000 1.0
C      1  0.4167280000000  0.4328510000000  0.5371040000000 1.0
C      1  0.4204790000000  0.4389450000000  0.4337650000000 1.0
C      1  0.4191220000000  0.5381040000000  0.4236500000000 1.0
C      1  0.4683410000000  0.4528680000000  0.5551960000000 1.0
C      1  0.4579400000000  0.4362720000000  0.4739530000000 1.0
C      1  0.4627230000000  0.5021080000000  0.4339340000000 1.0
C      1  0.4653260000000  0.5762150000000  0.4834850000000 1.0
C      1  0.4713980000000  0.5407570000000  0.5605650000000 1.0
C      1  0.5574930000000  0.4823980000000  0.5256530000000 1.0
C      1  0.5556590000000  0.4619370000000  0.4979410000000 1.0
C      1  0.5584090000000  0.4916790000000  0.4715100000000 1.0
C      1  0.5580270000000  0.5200390000000  0.4910320000000 1.0
C      1  0.5602940000000  0.5288180000000  0.5231810000000 1.0
C      1  0.4088470000000  0.4394180000000  0.5046780000000 1.0
C      1  0.4139160000000  0.4689730000000  0.4361560000000 1.0
C      1  0.4102280000000  0.5498670000000  0.4531510000000 1.0
C      1  0.4237740000000  0.5682390000000  0.5392920000000 1.0
C      1  0.4252810000000  0.4873020000000  0.5793660000000 1.0
C      1  0.4451810000000  0.5520240000000  0.4348090000000 1.0
C      1  0.4501000000000  0.5956640000000  0.5273730000000 1.0
C      1  0.4561790000000  0.5026020000000  0.5992750000000 1.0
C      1  0.4360810000000  0.4143750000000  0.5198010000000 1.0
C      1  0.4426650000000  0.4502950000000  0.4158880000000 1.0
C      1  0.5096230000000  0.5440000000000  0.6068330000000 1.0
C      1  0.5153420000000  0.4118410000000  0.5672300000000 1.0
C      1  0.5165230000000  0.4087840000000  0.4411810000000 1.0
C      1  0.5064870000000  0.5257010000000  0.3980950000000 1.0
C      1  0.5065830000000  0.6101610000000  0.4836100000000 1.0
C      1  0.5225300000000  0.4824980000000  0.5446800000000 1.0
C      1  0.5160390000000  0.4416680000000  0.4949100000000 1.0
C      1  0.5200480000000  0.4786210000000  0.4392500000000 1.0
C      1  0.5211070000000  0.5566010000000  0.4781000000000 1.0
C      1  0.5212170000000  0.5461530000000  0.5281830000000 1.0
C      1  0.5353140000000  0.4989850000000  0.5983640000000 1.0
C      1  0.5436110000000  0.4068190000000  0.5211910000000 1.0
C      1  0.5423540000000  0.4385630000000  0.4123400000000 1.0
C      1  0.5433800000000  0.5578250000000  0.4053210000000 1.0
C      1  0.5332380000000  0.6004080000000  0.5257620000000 1.0
C      1  0.4414310000000  0.5435260000000  0.5859290000000 1.0
C      1  0.4331960000000  0.4363520000000  0.5622800000000 1.0
C      1  0.4293500000000  0.4194810000000  0.4528610000000 1.0
C      1  0.4342340000000  0.5162150000000  0.4105140000000 1.0
C      1  0.4355950000000  0.5917460000000  0.4871630000000 1.0
C      1  0.5945420000000  0.5478920000000  0.4824440000000 1.0
C      1  0.5941760000000  0.5358420000000  0.5431190000000 1.0
C      1  0.5965010000000  0.4775610000000  0.5485960000000 1.0
C      1  0.6050320000000  0.4535380000000  0.4935900000000 1.0
C      1  0.6045600000000  0.4988070000000  0.4545970000000 1.0
C      1  0.5736530000000  0.4705870000000  0.5732310000000 1.0
C      1  0.5959660000000  0.4210620000000  0.4986770000000 1.0
C      1  0.5983340000000  0.4777110000000  0.4306920000000 1.0
C      1  0.5726940000000  0.5612460000000  0.4596750000000 1.0
C      1  0.5747160000000  0.5622660000000  0.5466360000000 1.0
C      1  0.4825080000000  0.4443310000000  0.4874440000000 1.0
C      1  0.4894130000000  0.4909730000000  0.4446280000000 1.0
C      1  0.4920910000000  0.5657160000000  0.4775070000000 1.0
C      1  0.4913850000000  0.5369270000000  0.5396220000000 1.0
C      1  0.4935020000000  0.4678650000000  0.5558180000000 1.0
C      1  0.4868060000000  0.4773360000000  0.4836150000000 1.0
C      1  0.4843840000000  0.5099390000000  0.4725660000000 1.0
C      1  0.4855970000000  0.5246500000000  0.5020590000000 1.0
C      1  0.4845650000000  0.5047920000000  0.5292370000000 1.0
C      1  0.4881700000000  0.4770820000000  0.5160310000000 1.0
C      1  0.5916890000000  0.4462080000000  0.5575430000000 1.0
C      1  0.5943560000000  0.4340940000000  0.4690070000000 1.0
C      1  0.5817100000000  0.5066960000000  0.4316770000000 1.0
C      1  0.5833650000000  0.5774510000000  0.4882070000000 1.0
C      1  0.5729690000000  0.5366780000000  0.5693520000000 1.0
C      1  0.5237520000000  0.4580690000000  0.4142050000000 1.0
C      1  0.5274130000000  0.5670900000000  0.4297640000000 1.0
C      1  0.5276260000000  0.5724400000000  0.5406640000000 1.0
C      1  0.5265120000000  0.4774100000000  0.5762720000000 1.0
C      1  0.5198190000000  0.4112630000000  0.5053470000000 1.0
C      1  0.4226070000000  0.5237740000000  0.5172020000000 1.0
C      1  0.4215560000000  0.4963960000000  0.5316440000000 1.0
C      1  0.4245210000000  0.4752500000000  0.5105930000000 1.0
C      1  0.4255540000000  0.4856060000000  0.4799880000000 1.0
C      1  0.4224300000000  0.5167280000000  0.4871370000000 1.0
C      1  0.4520540000000  0.5040320000000  0.5353870000000 1.0
C      1  0.4559550000000  0.4654410000000  0.5150990000000 1.0
C      1  0.4544080000000  0.4760200000000  0.4729370000000 1.0
C      1  0.4508210000000  0.5156750000000  0.4735780000000 1.0
C      1  0.4525850000000  0.5338030000000  0.5085610000000 1.0
C      1  0.6031600000000  0.5059610000000  0.5332030000000 1.0
C      1  0.6056290000000  0.4776430000000  0.5164810000000 1.0
C      1  0.6087960000000  0.4850460000000  0.4844690000000 1.0
C      1  0.6063680000000  0.5176970000000  0.4809510000000 1.0
C      1  0.6018000000000  0.5307050000000  0.5108690000000 1.0
C      1  0.5149730000000  0.4642710000000  0.4693000000000 1.0
C      1  0.5262570000000  0.5280390000000  0.4684420000000 1.0
C      1  0.5198040000000  0.5244480000000  0.5018330000000 1.0
C      1  0.5246760000000  0.5130220000000  0.5340090000000 1.0
C      1  0.5142060000000  0.4607400000000  0.5224870000000 1.0
C      1  0.5637760000000  0.5071450000000  0.5399220000000 1.0
C      1  0.5652670000000  0.4511840000000  0.5281400000000 1.0
C      1  0.5644820000000  0.4605200000000  0.4679070000000 1.0
C      1  0.5486160000000  0.5140950000000  0.4527450000000 1.0
C      1  0.5544540000000  0.5525120000000  0.4994690000000 1.0
C      1  0.4784960000000  0.5798240000000  0.5647440000000 1.0
C      1  0.4770680000000  0.4572770000000  0.5937190000000 1.0
C      1  0.4746010000000  0.3914060000000  0.4973350000000 1.0
C      1  0.4790910000000  0.4690750000000  0.3936400000000 1.0
C      1  0.4628880000000  0.5863220000000  0.4434330000000 1.0
C      1  0.4637530000000  0.4804100000000  0.6118590000000 1.0
C      1  0.4478010000000  0.3934050000000  0.5063280000000 1.0
C      1  0.4526180000000  0.4628830000000  0.3933740000000 1.0
C      1  0.4606190000000  0.5722710000000  0.4134460000000 1.0
C      1  0.4619640000000  0.6030020000000  0.5499860000000 1.0
C      1  0.5265000000000  0.5675740000000  0.5898290000000 1.0
C      1  0.5231670000000  0.4336720000000  0.5904750000000 1.0
C      1  0.5046630000000  0.3867890000000  0.4594190000000 1.0
C      1  0.5197760000000  0.4978510000000  0.4124870000000 1.0
C      1  0.5135770000000  0.5939240000000  0.4552270000000 1.0
C      1  0.4344230000000  0.5739230000000  0.4582570000000 1.0
C      1  0.4477910000000  0.5648910000000  0.5599620000000 1.0
C      1  0.4463030000000  0.4630500000000  0.5791260000000 1.0
C      1  0.4261600000000  0.4288640000000  0.4838770000000 1.0
C      1  0.4326110000000  0.4883580000000  0.4255070000000 1.0
C      1  0.5163550000000  0.5149210000000  0.5670240000000 1.0
C      1  0.5075070000000  0.4329280000000  0.5363660000000 1.0
C      1  0.5097260000000  0.4408820000000  0.4474480000000 1.0
C      1  0.5130600000000  0.5401900000000  0.4394110000000 1.0
C      1  0.5040420000000  0.5781560000000  0.5071110000000 1.0
C      1  0.5505540000000  0.5827060000000  0.4847400000000 1.0
C      1  0.5515470000000  0.5456560000000  0.5904580000000 1.0
C      1  0.5588010000000  0.4373240000000  0.5568250000000 1.0
C      1  0.5647390000000  0.4298980000000  0.4527680000000 1.0
C      1  0.5504230000000  0.5090970000000  0.4199500000000 1.0
C      1  0.5442960000000  0.5793650000000  0.4538890000000 1.0
C      1  0.5473700000000  0.5668810000000  0.5638240000000 1.0
C      1  0.5450790000000  0.4535110000000  0.5804370000000 1.0
C      1  0.5690520000000  0.4064110000000  0.5088100000000 1.0
C      1  0.6168550000000  0.4735730000000  0.4073040000000 1.0
C      1  0.4898800000000  0.4988490000000  0.5604760000000 1.0
C      1  0.4831550000000  0.4362380000000  0.5166510000000 1.0
C      1  0.4843320000000  0.4607630000000  0.4406670000000 1.0
C      1  0.4896470000000  0.5408690000000  0.4590650000000 1.0
C      1  0.4846930000000  0.5560910000000  0.5154750000000 1.0
C      1  0.4976970000000  0.5886050000000  0.5394410000000 1.0
C      1  0.4997940000000  0.4820430000000  0.5948810000000 1.0
C      1  0.4955130000000  0.3984480000000  0.5158140000000 1.0
C      1  0.4941840000000  0.4493950000000  0.4115940000000 1.0
C      1  0.4940390000000  0.5749380000000  0.4345710000000 1.0
C      1  0.3878040000000  0.4984050000000  0.4799830000000 1.0
C      1  0.5403660000000  0.4922950000000  0.4996950000000 1.0
C      1  0.4568750000000  0.4968690000000  0.5015330000000 1.0
END
