TITL C-2782238-9940-869 -5.76576681559671e-08 125000 -45.1818368799209 0 0 8 (D8h) n - 1
REM
REM in /home/nfs/bkarasulu/CARBON/AIRSS/Generating-Clusters/REBO/Higher-Symm/SD-CG/HFTN-CG
REM
REM
REM
REM
REM
REM ./C.cell (12c818d87b63d06a65506943cc24bca4)
REM
REM compiler GCC version 9.2.1 20190827 (Red Hat 9.2.1-1)
REM options -cpp -mtune=generic -march=x86-64 -g -O0 -fpre-include=/usr/include/finclude/math-vector-fortran.h
REM seed 351062023 545560299 2056587921 6041448 -97931891 -1665821095 542412921 297956643 -2033251954 2125216845 278389867 412501556 139687462 1094106502 -90778925 1459229723 643875971 1436791734 -1061383467 1044822916 -1339054768 1366753430 -1348550911 -1635811312 -747430650 1794085500 -176715299 -701394687 -896343597 238274704 -328855322 684803413 -1298627346
REM
CELL 1.54180   50.00000   50.00000   50.00000   90.00000   90.00000   90.00000
LATT -1
SFAC C  
C      1  0.5136390000000  0.5000000000000  0.4670720000000 1.0
C      1  0.5329280000000  0.5000000000000  0.5136390000000 1.0
C      1  0.4863610000000  0.5000000000000  0.5329280000000 1.0
C      1  0.4670720000000  0.5000000000000  0.4863610000000 1.0
C      1  0.5136390000000  0.5000000000000  0.5329280000000 1.0
C      1  0.5329280000000  0.5000000000000  0.4863610000000 1.0
C      1  0.4863610000000  0.5000000000000  0.4670720000000 1.0
C      1  0.4670720000000  0.5000000000000  0.5136390000000 1.0
END
