TITL C-2782234-8014-1076 -0.00302911794282503 125000 -469.114577242756 0 0 78 (C1) n - 1
REM
REM in /home/nfs/bkarasulu/CARBON/AIRSS/Generating-Clusters/REBO/Higher-Symm/SD-CG/HFTN-CG
REM
REM
REM
REM
REM
REM ./C.cell (12c818d87b63d06a65506943cc24bca4)
REM
REM compiler GCC version 9.2.1 20190827 (Red Hat 9.2.1-1)
REM options -cpp -mtune=generic -march=x86-64 -g -O0 -fpre-include=/usr/include/finclude/math-vector-fortran.h
REM seed -412028059 19282452 1742563867 -1786141658 -1596105387 -738576782 -702734195 76210158 439947018 1316750681 -1664620569 190567180 1245429920 -1334026576 969467959 -280455387 -46072418 -147525279 259532286 407776194 203480488 2098804061 1329654781 360046173 -143856959 -1839242459 2139011763 -1740522244 1702558545 -2024941024 -30811014 -1478705173 738422185
REM
CELL 1.54180   50.00000   50.00000   50.00000   90.00000   90.00000   90.00000
LATT -1
SFAC C  
C      1  0.4836390000000  0.4688520000000  0.5698390000000 1.0
C      1  0.4364790000000  0.4651000000000  0.5272910000000 1.0
C      1  0.4423000000000  0.4728300000000  0.4704050000000 1.0
C      1  0.4873250000000  0.4653520000000  0.4278650000000 1.0
C      1  0.5456040000000  0.4659280000000  0.4495920000000 1.0
C      1  0.5672980000000  0.4700090000000  0.5004540000000 1.0
C      1  0.5372100000000  0.4648900000000  0.5566900000000 1.0
C      1  0.5249710000000  0.4550010000000  0.5189900000000 1.0
C      1  0.5013490000000  0.4422980000000  0.5337480000000 1.0
C      1  0.4750640000000  0.4550400000000  0.5241410000000 1.0
C      1  0.4671550000000  0.4436410000000  0.4966280000000 1.0
C      1  0.4810970000000  0.4573980000000  0.4746630000000 1.0
C      1  0.5128570000000  0.4579860000000  0.4710790000000 1.0
C      1  0.5292570000000  0.4426170000000  0.4911970000000 1.0
C      1  0.4974010000000  0.5269150000000  0.5347050000000 1.0
C      1  0.4821880000000  0.5127330000000  0.5100100000000 1.0
C      1  0.4773010000000  0.5324520000000  0.4883980000000 1.0
C      1  0.4998590000000  0.5289170000000  0.4649100000000 1.0
C      1  0.5248170000000  0.5378670000000  0.4744620000000 1.0
C      1  0.5288780000000  0.5312990000000  0.5014640000000 1.0
C      1  0.5139910000000  0.5445970000000  0.5208580000000 1.0
C      1  0.4696590000000  0.4871600000000  0.5274450000000 1.0
C      1  0.4693810000000  0.5129400000000  0.4638200000000 1.0
C      1  0.4884850000000  0.4877060000000  0.4608200000000 1.0
C      1  0.5193340000000  0.4909510000000  0.4655830000000 1.0
C      1  0.5384660000000  0.5052990000000  0.5059610000000 1.0
C      1  0.5282260000000  0.4878420000000  0.5254480000000 1.0
C      1  0.4890320000000  0.5014890000000  0.5474800000000 1.0
C      1  0.5040380000000  0.5613090000000  0.4420480000000 1.0
C      1  0.5494950000000  0.5586150000000  0.4649610000000 1.0
C      1  0.5526330000000  0.5589210000000  0.5178760000000 1.0
C      1  0.5185010000000  0.5608560000000  0.5568010000000 1.0
C      1  0.4692710000000  0.5595730000000  0.5500000000000 1.0
C      1  0.4423660000000  0.5593280000000  0.5087050000000 1.0
C      1  0.4584630000000  0.5543420000000  0.4609950000000 1.0
C      1  0.5092780000000  0.4018340000000  0.4710780000000 1.0
C      1  0.5265840000000  0.4126700000000  0.4909190000000 1.0
C      1  0.5234650000000  0.4020050000000  0.5172680000000 1.0
C      1  0.5007870000000  0.4120370000000  0.5314890000000 1.0
C      1  0.4757200000000  0.4026690000000  0.5213490000000 1.0
C      1  0.4684100000000  0.4135570000000  0.4959050000000 1.0
C      1  0.4816880000000  0.4022190000000  0.4734070000000 1.0
C      1  0.5090270000000  0.4562570000000  0.5600540000000 1.0
C      1  0.4580820000000  0.4592270000000  0.5531030000000 1.0
C      1  0.4405850000000  0.4598350000000  0.4985640000000 1.0
C      1  0.4626370000000  0.4601650000000  0.4480530000000 1.0
C      1  0.5143050000000  0.4590750000000  0.4382700000000 1.0
C      1  0.5532900000000  0.4571920000000  0.4769500000000 1.0
C      1  0.5563050000000  0.4598050000000  0.5288830000000 1.0
C      1  0.4920890000000  0.5502500000000  0.5675410000000 1.0
C      1  0.4452320000000  0.5474270000000  0.5362370000000 1.0
C      1  0.4367810000000  0.5477950000000  0.4817810000000 1.0
C      1  0.4770030000000  0.5483580000000  0.4381760000000 1.0
C      1  0.5315980000000  0.5502100000000  0.4373000000000 1.0
C      1  0.5656050000000  0.5484240000000  0.4931940000000 1.0
C      1  0.5446390000000  0.5486820000000  0.5461450000000 1.0
C      1  0.5091650000000  0.5770240000000  0.5295280000000 1.0
C      1  0.4793030000000  0.5799820000000  0.5311130000000 1.0
C      1  0.4648510000000  0.5787500000000  0.5069650000000 1.0
C      1  0.4788200000000  0.5661330000000  0.4832870000000 1.0
C      1  0.5033190000000  0.5749680000000  0.4681490000000 1.0
C      1  0.5280610000000  0.5771740000000  0.4810230000000 1.0
C      1  0.5323840000000  0.5778650000000  0.5087010000000 1.0
C      1  0.4346080000000  0.5217790000000  0.5407580000000 1.0
C      1  0.4245080000000  0.5222220000000  0.4779190000000 1.0
C      1  0.4755530000000  0.5233510000000  0.4247680000000 1.0
C      1  0.5370880000000  0.5227830000000  0.4309540000000 1.0
C      1  0.5792720000000  0.5233450000000  0.4919630000000 1.0
C      1  0.5491510000000  0.5219900000000  0.5549450000000 1.0
C      1  0.4891740000000  0.5272550000000  0.5847670000000 1.0
C      1  0.4393990000000  0.4950940000000  0.5358310000000 1.0
C      1  0.4415410000000  0.5016930000000  0.4685350000000 1.0
C      1  0.4799040000000  0.4962970000000  0.4290770000000 1.0
C      1  0.5397390000000  0.4981290000000  0.4444440000000 1.0
C      1  0.5654450000000  0.4993280000000  0.4980970000000 1.0
C      1  0.5389160000000  0.4960230000000  0.5529250000000 1.0
C      1  0.4864780000000  0.4994560000000  0.5770340000000 1.0
C      1  0.4979970000000  0.4866810000000  0.4994370000000 1.0
END
