TITL C-2782236-320-588 -0.000172170356495323 125000 -1092.63214460297 0 0 188 (C1) n - 1
REM
REM in /home/nfs/bkarasulu/CARBON/AIRSS/Generating-Clusters/REBO/Higher-Symm/SD-CG/HFTN-CG
REM
REM
REM
REM
REM
REM ./C.cell (12c818d87b63d06a65506943cc24bca4)
REM
REM compiler GCC version 9.2.1 20190827 (Red Hat 9.2.1-1)
REM options -cpp -mtune=generic -march=x86-64 -g -O0 -fpre-include=/usr/include/finclude/math-vector-fortran.h
REM seed 701248317 -1824333966 -706245360 -928826500 1310075710 2007944714 1642059031 1708339262 1797340974 1607175056 1385533219 -226430218 -1470550838 -1377890374 -222710059 913537446 -1544019400 1086591560 2024543073 412697040 1434186120 990328652 1877172372 -642022596 -1543870988 1900900216 856919710 -1439347758 2074178034 -1963926861 148127764 -1742366794 2127090817
REM
CELL 1.54180   50.00000   50.00000   50.00000   90.00000   90.00000   90.00000
LATT -1
SFAC C  
C      1  0.5490490000000  0.4409240000000  0.5615200000000 1.0
C      1  0.5632550000000  0.5562840000000  0.4587510000000 1.0
C      1  0.4595130000000  0.4422580000000  0.4377800000000 1.0
C      1  0.4357110000000  0.5567860000000  0.5413300000000 1.0
C      1  0.4832820000000  0.4791060000000  0.6039170000000 1.0
C      1  0.6038920000000  0.5220020000000  0.5145210000000 1.0
C      1  0.5173580000000  0.4768940000000  0.3983370000000 1.0
C      1  0.3962640000000  0.5228790000000  0.4826170000000 1.0
C      1  0.4579350000000  0.5243590000000  0.5753270000000 1.0
C      1  0.5790640000000  0.4745060000000  0.5439960000000 1.0
C      1  0.5416670000000  0.5238130000000  0.4237750000000 1.0
C      1  0.4244120000000  0.4764710000000  0.4570120000000 1.0
C      1  0.4788730000000  0.4768760000000  0.4380330000000 1.0
C      1  0.4361350000000  0.5230550000000  0.5204190000000 1.0
C      1  0.5256580000000  0.4727260000000  0.5637510000000 1.0
C      1  0.5606060000000  0.5221780000000  0.4790550000000 1.0
C      1  0.4638730000000  0.5616590000000  0.5224220000000 1.0
C      1  0.5259520000000  0.4397250000000  0.5361510000000 1.0
C      1  0.5349640000000  0.5610060000000  0.4773690000000 1.0
C      1  0.4768470000000  0.4380650000000  0.4671150000000 1.0
C      1  0.5022750000000  0.3943840000000  0.5177450000000 1.0
C      1  0.5179080000000  0.6040320000000  0.5025850000000 1.0
C      1  0.5046190000000  0.3958000000000  0.4837760000000 1.0
C      1  0.4839450000000  0.6052460000000  0.4997380000000 1.0
C      1  0.5282240000000  0.6012970000000  0.5318510000000 1.0
C      1  0.5346380000000  0.3975840000000  0.4750550000000 1.0
C      1  0.4755900000000  0.6037820000000  0.4689760000000 1.0
C      1  0.4715040000000  0.3940280000000  0.5221730000000 1.0
C      1  0.4587140000000  0.4603120000000  0.4022590000000 1.0
C      1  0.4006330000000  0.5382680000000  0.5421200000000 1.0
C      1  0.5428080000000  0.4584620000000  0.5968410000000 1.0
C      1  0.5979650000000  0.5370580000000  0.4566370000000 1.0
C      1  0.5329760000000  0.5673690000000  0.5798070000000 1.0
C      1  0.5837330000000  0.4327320000000  0.4702860000000 1.0
C      1  0.4688570000000  0.5699480000000  0.4175630000000 1.0
C      1  0.4152370000000  0.4303950000000  0.5292760000000 1.0
C      1  0.5453030000000  0.5031790000000  0.5269670000000 1.0
C      1  0.5249000000000  0.4980210000000  0.4525090000000 1.0
C      1  0.4504460000000  0.5024600000000  0.4726480000000 1.0
C      1  0.4624890000000  0.4964600000000  0.5470670000000 1.0
C      1  0.4465070000000  0.5745630000000  0.4369470000000 1.0
C      1  0.4363530000000  0.4277840000000  0.5504050000000 1.0
C      1  0.5561760000000  0.5726890000000  0.5620480000000 1.0
C      1  0.5647140000000  0.4285560000000  0.4475700000000 1.0
C      1  0.5088250000000  0.4616660000000  0.5921420000000 1.0
C      1  0.5889980000000  0.5372860000000  0.4902740000000 1.0
C      1  0.4922560000000  0.4616750000000  0.4110590000000 1.0
C      1  0.4083340000000  0.5382320000000  0.5082190000000 1.0
C      1  0.4726920000000  0.5271350000000  0.3967740000000 1.0
C      1  0.3945290000000  0.4724300000000  0.5259680000000 1.0
C      1  0.5279620000000  0.5258730000000  0.6059970000000 1.0
C      1  0.6015660000000  0.4714070000000  0.4708100000000 1.0
C      1  0.5102350000000  0.5891520000000  0.5502320000000 1.0
C      1  0.5523980000000  0.4082720000000  0.4948070000000 1.0
C      1  0.4954180000000  0.5935980000000  0.4508500000000 1.0
C      1  0.4507620000000  0.4065220000000  0.5039950000000 1.0
C      1  0.4685660000000  0.4504450000000  0.5941960000000 1.0
C      1  0.5926350000000  0.5514200000000  0.5274080000000 1.0
C      1  0.5299460000000  0.4473010000000  0.4093980000000 1.0
C      1  0.4076130000000  0.5527890000000  0.4709840000000 1.0
C      1  0.5863390000000  0.5073180000000  0.4646030000000 1.0
C      1  0.4655630000000  0.4911290000000  0.4114680000000 1.0
C      1  0.4099730000000  0.5080500000000  0.5339580000000 1.0
C      1  0.5357490000000  0.4905710000000  0.5894470000000 1.0
C      1  0.4992190000000  0.4821110000000  0.5506580000000 1.0
C      1  0.5472720000000  0.5017190000000  0.4970420000000 1.0
C      1  0.4952140000000  0.4979230000000  0.4514320000000 1.0
C      1  0.4487580000000  0.5027820000000  0.5020690000000 1.0
C      1  0.4808010000000  0.4320750000000  0.5715330000000 1.0
C      1  0.5766530000000  0.5702220000000  0.5091100000000 1.0
C      1  0.5112900000000  0.4297860000000  0.4262200000000 1.0
C      1  0.4247830000000  0.5699940000000  0.4904590000000 1.0
C      1  0.4784660000000  0.4399050000000  0.5263640000000 1.0
C      1  0.5239370000000  0.5588880000000  0.5185830000000 1.0
C      1  0.5208550000000  0.4420740000000  0.4794330000000 1.0
C      1  0.4767740000000  0.5577920000000  0.4784240000000 1.0
C      1  0.4357600000000  0.5270890000000  0.4597580000000 1.0
C      1  0.4527740000000  0.4765480000000  0.5688810000000 1.0
C      1  0.5625120000000  0.5267680000000  0.5362650000000 1.0
C      1  0.5377920000000  0.4747170000000  0.4369830000000 1.0
C      1  0.5712420000000  0.5871900000000  0.4827630000000 1.0
C      1  0.4852870000000  0.4124230000000  0.4311460000000 1.0
C      1  0.4294750000000  0.5877020000000  0.5170330000000 1.0
C      1  0.5046320000000  0.4172190000000  0.5699430000000 1.0
C      1  0.4550040000000  0.4108770000000  0.4475700000000 1.0
C      1  0.4463700000000  0.5870110000000  0.5476030000000 1.0
C      1  0.5504520000000  0.4102180000000  0.5468990000000 1.0
C      1  0.5531880000000  0.5873120000000  0.4533760000000 1.0
C      1  0.5231280000000  0.4463730000000  0.4487290000000 1.0
C      1  0.4469450000000  0.5540540000000  0.4769100000000 1.0
C      1  0.4771690000000  0.4600360000000  0.5541550000000 1.0
C      1  0.5535210000000  0.5547020000000  0.5208040000000 1.0
C      1  0.5649970000000  0.4685810000000  0.5738030000000 1.0
C      1  0.5706450000000  0.5310300000000  0.4371390000000 1.0
C      1  0.4386250000000  0.4676600000000  0.4285920000000 1.0
C      1  0.4277870000000  0.5304570000000  0.5614790000000 1.0
C      1  0.5595640000000  0.4516200000000  0.5182960000000 1.0
C      1  0.5180720000000  0.5504080000000  0.4412210000000 1.0
C      1  0.4409140000000  0.4497210000000  0.4810500000000 1.0
C      1  0.4826490000000  0.5495090000000  0.5573520000000 1.0
C      1  0.5653560000000  0.4013130000000  0.5189820000000 1.0
C      1  0.5186400000000  0.6008280000000  0.4384730000000 1.0
C      1  0.4373600000000  0.3990630000000  0.4812890000000 1.0
C      1  0.4897380000000  0.5984360000000  0.5653130000000 1.0
C      1  0.5985730000000  0.4963410000000  0.4939560000000 1.0
C      1  0.4957710000000  0.5026420000000  0.4016500000000 1.0
C      1  0.4007140000000  0.4970740000000  0.5033520000000 1.0
C      1  0.5051140000000  0.5024970000000  0.5982370000000 1.0
C      1  0.3916730000000  0.4989440000000  0.4597140000000 1.0
C      1  0.4597770000000  0.5030440000000  0.6088970000000 1.0
C      1  0.6067900000000  0.5027770000000  0.5398560000000 1.0
C      1  0.5376830000000  0.5029040000000  0.3901810000000 1.0
C      1  0.5455500000000  0.4741510000000  0.5396010000000 1.0
C      1  0.5366270000000  0.5267590000000  0.4573070000000 1.0
C      1  0.4578720000000  0.4730230000000  0.4628650000000 1.0
C      1  0.4622260000000  0.5273820000000  0.5418530000000 1.0
C      1  0.5915460000000  0.4426120000000  0.4962300000000 1.0
C      1  0.4939480000000  0.5576990000000  0.4102370000000 1.0
C      1  0.4088710000000  0.4427040000000  0.5038990000000 1.0
C      1  0.5080420000000  0.5553350000000  0.5876920000000 1.0
C      1  0.4170370000000  0.4698000000000  0.5428840000000 1.0
C      1  0.5437640000000  0.5289960000000  0.5829430000000 1.0
C      1  0.5778880000000  0.4694530000000  0.4555950000000 1.0
C      1  0.4567780000000  0.5292250000000  0.4198220000000 1.0
C      1  0.4253280000000  0.5553310000000  0.4437240000000 1.0
C      1  0.4431650000000  0.4453690000000  0.5721570000000 1.0
C      1  0.5754800000000  0.5525020000000  0.5539890000000 1.0
C      1  0.5565610000000  0.4478920000000  0.4272100000000 1.0
C      1  0.5045190000000  0.4594350000000  0.5182110000000 1.0
C      1  0.5153400000000  0.5389120000000  0.4951250000000 1.0
C      1  0.4950500000000  0.4607760000000  0.4854220000000 1.0
C      1  0.4828280000000  0.5396520000000  0.5041310000000 1.0
C      1  0.4193020000000  0.4970740000000  0.5633060000000 1.0
C      1  0.5649070000000  0.5027260000000  0.5778990000000 1.0
C      1  0.5721110000000  0.4965850000000  0.4359210000000 1.0
C      1  0.4370620000000  0.5020080000000  0.4252500000000 1.0
C      1  0.4920460000000  0.5258610000000  0.5803820000000 1.0
C      1  0.5840190000000  0.4732010000000  0.5098470000000 1.0
C      1  0.5078630000000  0.5272120000000  0.4182450000000 1.0
C      1  0.4177910000000  0.4731520000000  0.4906140000000 1.0
C      1  0.4609570000000  0.5962520000000  0.5185310000000 1.0
C      1  0.5180620000000  0.4064430000000  0.5439880000000 1.0
C      1  0.5392050000000  0.5951490000000  0.4825120000000 1.0
C      1  0.4840160000000  0.4042820000000  0.4628050000000 1.0
C      1  0.5535450000000  0.4878380000000  0.4113870000000 1.0
C      1  0.4126360000000  0.5117020000000  0.4427190000000 1.0
C      1  0.4386190000000  0.4931820000000  0.5909060000000 1.0
C      1  0.5838900000000  0.5124440000000  0.5555550000000 1.0
C      1  0.4609260000000  0.4149210000000  0.5416120000000 1.0
C      1  0.5539810000000  0.5949840000000  0.5429640000000 1.0
C      1  0.5458740000000  0.4060970000000  0.4500450000000 1.0
C      1  0.4505470000000  0.5954420000000  0.4573030000000 1.0
C      1  0.6114460000000  0.4716910000000  0.5386780000000 1.0
C      1  0.5374060000000  0.5340370000000  0.3925580000000 1.0
C      1  0.3927090000000  0.4674040000000  0.4603220000000 1.0
C      1  0.4633300000000  0.5344460000000  0.6064740000000 1.0
C      1  0.4408410000000  0.4608930000000  0.5284260000000 1.0
C      1  0.5267620000000  0.5331970000000  0.5601790000000 1.0
C      1  0.5550440000000  0.4605080000000  0.4700640000000 1.0
C      1  0.4699330000000  0.5395950000000  0.4433550000000 1.0
C      1  0.4747370000000  0.5185090000000  0.4614700000000 1.0
C      1  0.4574260000000  0.4826100000000  0.5232590000000 1.0
C      1  0.5210450000000  0.5084460000000  0.5468320000000 1.0
C      1  0.5370190000000  0.4816390000000  0.4762070000000 1.0
C      1  0.4990510000000  0.4911470000000  0.5201450000000 1.0
C      1  0.5178080000000  0.5089300000000  0.4982390000000 1.0
C      1  0.4958970000000  0.4905960000000  0.4806940000000 1.0
C      1  0.4783300000000  0.5097120000000  0.5026220000000 1.0
C      1  0.4914250000000  0.5628640000000  0.4497590000000 1.0
C      1  0.4482840000000  0.4379480000000  0.5081310000000 1.0
C      1  0.5110110000000  0.5575590000000  0.5479040000000 1.0
C      1  0.5511270000000  0.4390100000000  0.4924250000000 1.0
C      1  0.5930530000000  0.5654500000000  0.4731870000000 1.0
C      1  0.4756570000000  0.4329630000000  0.4087740000000 1.0
C      1  0.4067100000000  0.5664610000000  0.5257350000000 1.0
C      1  0.5255470000000  0.4332110000000  0.5841490000000 1.0
C      1  0.6046260000000  0.4438950000000  0.5270180000000 1.0
C      1  0.5243820000000  0.5599190000000  0.4028860000000 1.0
C      1  0.4027520000000  0.4408840000000  0.4730280000000 1.0
C      1  0.4774010000000  0.5594490000000  0.5957030000000 1.0
C      1  0.5051700000000  0.5755690000000  0.4849390000000 1.0
C      1  0.4864720000000  0.4238820000000  0.4967180000000 1.0
C      1  0.4942780000000  0.5755370000000  0.5163880000000 1.0
C      1  0.5181180000000  0.4236630000000  0.5082680000000 1.0
C      1  0.5760850000000  0.4290530000000  0.5345510000000 1.0
C      1  0.5363710000000  0.5753750000000  0.4287360000000 1.0
C      1  0.4292090000000  0.4246250000000  0.4625290000000 1.0
C      1  0.4668650000000  0.5771470000000  0.5693460000000 1.0
END
