TITL C-2782230-7391-1389 0.00217738942326611 125000 -591.566175112249 0 0 99 (C1) n - 1
REM
REM in /home/nfs/bkarasulu/CARBON/AIRSS/Generating-Clusters/REBO/Higher-Symm/SD-CG/HFTN-CG
REM
REM
REM
REM
REM
REM ./C.cell (12c818d87b63d06a65506943cc24bca4)
REM
REM compiler GCC version 9.2.1 20190827 (Red Hat 9.2.1-1)
REM options -cpp -mtune=generic -march=x86-64 -g -O0 -fpre-include=/usr/include/finclude/math-vector-fortran.h
REM seed 474936050 1795186166 -1072323769 -1287387591 1655507378 2039070251 1990233813 886999038 -943081132 -222596149 -1783025951 1358791564 -1584708921 304418900 -1071475071 418502238 -601578135 -1690083729 -1948834624 1960844418 46085820 -981511129 2079642233 1041391425 850819024 -1743619868 1648603299 -1549789390 -342019428 -2112095470 -75455755 1599582868 1253798527
REM
CELL 1.54180   50.00000   50.00000   50.00000   90.00000   90.00000   90.00000
LATT -1
SFAC C  
C      1  0.5145730000000  0.4795390000000  0.5854270000000 1.0
C      1  0.5740860000000  0.4784100000000  0.4783770000000 1.0
C      1  0.4874200000000  0.4844940000000  0.4103370000000 1.0
C      1  0.4199300000000  0.4769380000000  0.5178690000000 1.0
C      1  0.5184960000000  0.5237270000000  0.4283800000000 1.0
C      1  0.5707080000000  0.5259110000000  0.5188860000000 1.0
C      1  0.4903380000000  0.5211200000000  0.5889420000000 1.0
C      1  0.4365380000000  0.5176470000000  0.4779750000000 1.0
C      1  0.4820730000000  0.5607610000000  0.4359490000000 1.0
C      1  0.4455080000000  0.5501450000000  0.5161350000000 1.0
C      1  0.5195830000000  0.5591100000000  0.5641590000000 1.0
C      1  0.5617850000000  0.5618660000000  0.4806590000000 1.0
C      1  0.4785590000000  0.4475340000000  0.5592860000000 1.0
C      1  0.4332210000000  0.4372630000000  0.4795930000000 1.0
C      1  0.5156910000000  0.4402520000000  0.4380780000000 1.0
C      1  0.5584470000000  0.4451390000000  0.5176930000000 1.0
C      1  0.5454260000000  0.5626290000000  0.4572110000000 1.0
C      1  0.4605300000000  0.5619080000000  0.4542820000000 1.0
C      1  0.4629490000000  0.5493750000000  0.5381980000000 1.0
C      1  0.5391970000000  0.5633630000000  0.5444530000000 1.0
C      1  0.5392710000000  0.4477270000000  0.5387970000000 1.0
C      1  0.4560720000000  0.4474540000000  0.5426330000000 1.0
C      1  0.4528260000000  0.4390070000000  0.4586730000000 1.0
C      1  0.5389920000000  0.4377230000000  0.4536080000000 1.0
C      1  0.4481020000000  0.5115330000000  0.5685590000000 1.0
C      1  0.5548580000000  0.5170520000000  0.5544230000000 1.0
C      1  0.5538490000000  0.5132020000000  0.4436500000000 1.0
C      1  0.4560330000000  0.5115360000000  0.4435990000000 1.0
C      1  0.4607270000000  0.4873660000000  0.4417910000000 1.0
C      1  0.5578010000000  0.4890220000000  0.4434720000000 1.0
C      1  0.5505360000000  0.4928720000000  0.5574510000000 1.0
C      1  0.4371410000000  0.4891210000000  0.5649770000000 1.0
C      1  0.4433750000000  0.4745920000000  0.5384280000000 1.0
C      1  0.5282010000000  0.4777060000000  0.5409910000000 1.0
C      1  0.5503300000000  0.4648390000000  0.4623370000000 1.0
C      1  0.4654510000000  0.4661240000000  0.4626350000000 1.0
C      1  0.4598580000000  0.5342230000000  0.4658350000000 1.0
C      1  0.5334720000000  0.5357740000000  0.4530140000000 1.0
C      1  0.5436950000000  0.5366760000000  0.5318480000000 1.0
C      1  0.4693430000000  0.5202760000000  0.5482200000000 1.0
C      1  0.5094910000000  0.4682840000000  0.4289290000000 1.0
C      1  0.4278250000000  0.4651620000000  0.4897660000000 1.0
C      1  0.4873240000000  0.4742990000000  0.5682780000000 1.0
C      1  0.5708570000000  0.4720540000000  0.5095650000000 1.0
C      1  0.5162370000000  0.5297860000000  0.5707810000000 1.0
C      1  0.4346010000000  0.5234840000000  0.5083210000000 1.0
C      1  0.4877820000000  0.5313330000000  0.4294800000000 1.0
C      1  0.5709200000000  0.5333270000000  0.4878940000000 1.0
C      1  0.5167900000000  0.5098940000000  0.5444480000000 1.0
C      1  0.5442310000000  0.5134900000000  0.4917630000000 1.0
C      1  0.4934610000000  0.5129320000000  0.4575220000000 1.0
C      1  0.4560120000000  0.4985530000000  0.5172870000000 1.0
C      1  0.5048590000000  0.4888210000000  0.4551440000000 1.0
C      1  0.5438950000000  0.4896020000000  0.5019250000000 1.0
C      1  0.4891050000000  0.4933460000000  0.5435620000000 1.0
C      1  0.4583670000000  0.4782960000000  0.4938080000000 1.0
C      1  0.5206980000000  0.4673180000000  0.4753620000000 1.0
C      1  0.4886040000000  0.4643960000000  0.4862020000000 1.0
C      1  0.4909780000000  0.4794550000000  0.5169420000000 1.0
C      1  0.5211440000000  0.4672360000000  0.5091770000000 1.0
C      1  0.5152970000000  0.5276180000000  0.5154550000000 1.0
C      1  0.4813830000000  0.5214780000000  0.5163290000000 1.0
C      1  0.4859660000000  0.5310910000000  0.4848330000000 1.0
C      1  0.5196640000000  0.5312160000000  0.4814910000000 1.0
C      1  0.4532180000000  0.5820800000000  0.4722520000000 1.0
C      1  0.4765110000000  0.5736860000000  0.5422790000000 1.0
C      1  0.5456170000000  0.5853430000000  0.5285070000000 1.0
C      1  0.5262200000000  0.5837310000000  0.4564700000000 1.0
C      1  0.4514600000000  0.4247830000000  0.5271120000000 1.0
C      1  0.4716110000000  0.4175130000000  0.4583940000000 1.0
C      1  0.5444410000000  0.4169820000000  0.4716970000000 1.0
C      1  0.5221720000000  0.4253270000000  0.5414180000000 1.0
C      1  0.5260280000000  0.4060840000000  0.5178690000000 1.0
C      1  0.5263210000000  0.3966280000000  0.4849980000000 1.0
C      1  0.4694660000000  0.4016340000000  0.4851870000000 1.0
C      1  0.4713980000000  0.4025390000000  0.5194960000000 1.0
C      1  0.5270000000000  0.5989800000000  0.4831790000000 1.0
C      1  0.5276130000000  0.6068370000000  0.5165580000000 1.0
C      1  0.4728330000000  0.5925920000000  0.5180930000000 1.0
C      1  0.4698610000000  0.6039120000000  0.4857680000000 1.0
C      1  0.4795640000000  0.4983710000000  0.5894000000000 1.0
C      1  0.5785580000000  0.4996800000000  0.5251450000000 1.0
C      1  0.5237110000000  0.4975110000000  0.4209610000000 1.0
C      1  0.4288310000000  0.4919330000000  0.4705580000000 1.0
C      1  0.4780180000000  0.5077440000000  0.4103980000000 1.0
C      1  0.5800450000000  0.5053700000000  0.4728400000000 1.0
C      1  0.5254590000000  0.5021640000000  0.5871460000000 1.0
C      1  0.4111090000000  0.5037330000000  0.5174450000000 1.0
C      1  0.5034720000000  0.5789320000000  0.4403010000000 1.0
C      1  0.4500120000000  0.5737000000000  0.5017590000000 1.0
C      1  0.4963450000000  0.5748460000000  0.5620210000000 1.0
C      1  0.5520930000000  0.5816430000000  0.4984100000000 1.0
C      1  0.4985430000000  0.4280700000000  0.5561210000000 1.0
C      1  0.4423740000000  0.4179180000000  0.4980300000000 1.0
C      1  0.4947530000000  0.4219430000000  0.4430260000000 1.0
C      1  0.5507140000000  0.4229860000000  0.5016790000000 1.0
C      1  0.4982260000000  0.3958440000000  0.5020860000000 1.0
C      1  0.4988900000000  0.6054550000000  0.5009310000000 1.0
C      1  0.5040210000000  0.4985790000000  0.4935560000000 1.0
END
