TITL C-2782240-8521-1003 -0.00230386201976697 125000 -1009.65903592453 0 0 176 (C1) n - 1
REM
REM in /home/nfs/bkarasulu/CARBON/AIRSS/Generating-Clusters/REBO/Higher-Symm/SD-CG/HFTN-CG
REM
REM
REM
REM
REM
REM ./C.cell (12c818d87b63d06a65506943cc24bca4)
REM
REM compiler GCC version 9.2.1 20190827 (Red Hat 9.2.1-1)
REM options -cpp -mtune=generic -march=x86-64 -g -O0 -fpre-include=/usr/include/finclude/math-vector-fortran.h
REM seed -575589183 -1797783821 -1421466372 -1658461014 -1450386390 84660766 -2078741362 -187522086 393444208 438819893 1724819581 1252059112 750780232 1817316151 -1067563882 1130732736 -634229317 -1320815064 660721788 131256004 1659486742 1090051823 -1686156347 -1229480620 941185923 -76267884 1235229001 -639464815 665167781 1529525597 695536561 -1273573705 542632653
REM
CELL 1.54180   50.00000   50.00000   50.00000   90.00000   90.00000   90.00000
LATT -1
SFAC C  
C      1  0.4528250000000  0.5799880000000  0.5350030000000 1.0
C      1  0.5876910000000  0.5466900000000  0.4534810000000 1.0
C      1  0.5431810000000  0.4478110000000  0.5831110000000 1.0
C      1  0.4514040000000  0.4153210000000  0.4612570000000 1.0
C      1  0.5463060000000  0.5870490000000  0.4588520000000 1.0
C      1  0.5531740000000  0.4238210000000  0.5409560000000 1.0
C      1  0.5860720000000  0.4622130000000  0.5474600000000 1.0
C      1  0.4211110000000  0.5382670000000  0.5495120000000 1.0
C      1  0.4152220000000  0.4542900000000  0.4486810000000 1.0
C      1  0.5458560000000  0.5489920000000  0.4161920000000 1.0
C      1  0.4622960000000  0.4549520000000  0.4192230000000 1.0
C      1  0.4620360000000  0.5495610000000  0.5808750000000 1.0
C      1  0.5516610000000  0.5813860000000  0.5383620000000 1.0
C      1  0.4166390000000  0.5404710000000  0.4524080000000 1.0
C      1  0.4581180000000  0.4524440000000  0.5741990000000 1.0
C      1  0.5519180000000  0.4125700000000  0.4538530000000 1.0
C      1  0.4472840000000  0.5899000000000  0.4574890000000 1.0
C      1  0.4569750000000  0.4165270000000  0.5392180000000 1.0
C      1  0.4138890000000  0.4559030000000  0.5432870000000 1.0
C      1  0.5935000000000  0.5411200000000  0.5494810000000 1.0
C      1  0.5795780000000  0.4606470000000  0.4517220000000 1.0
C      1  0.4606420000000  0.5520270000000  0.4187200000000 1.0
C      1  0.5405060000000  0.4508970000000  0.4130100000000 1.0
C      1  0.5464000000000  0.5458470000000  0.5745860000000 1.0
C      1  0.4610210000000  0.6018890000000  0.5116100000000 1.0
C      1  0.6025400000000  0.5165810000000  0.4609680000000 1.0
C      1  0.5189950000000  0.4509590000000  0.6055790000000 1.0
C      1  0.4459250000000  0.3887390000000  0.4823900000000 1.0
C      1  0.5505800000000  0.6111820000000  0.4824270000000 1.0
C      1  0.5396200000000  0.3805540000000  0.4979010000000 1.0
C      1  0.6059840000000  0.4898280000000  0.5480960000000 1.0
C      1  0.3964250000000  0.5175270000000  0.5449560000000 1.0
C      1  0.3979770000000  0.4830480000000  0.4553300000000 1.0
C      1  0.5175030000000  0.5401720000000  0.3988310000000 1.0
C      1  0.4884770000000  0.4557540000000  0.3971780000000 1.0
C      1  0.4810330000000  0.5574860000000  0.6061100000000 1.0
C      1  0.5528900000000  0.6048830000000  0.5135370000000 1.0
C      1  0.3968230000000  0.5120170000000  0.4562080000000 1.0
C      1  0.4980370000000  0.4627800000000  0.6111670000000 1.0
C      1  0.5469260000000  0.3860310000000  0.4747350000000 1.0
C      1  0.4509190000000  0.6073210000000  0.4865000000000 1.0
C      1  0.4509870000000  0.3937030000000  0.5145590000000 1.0
C      1  0.3980370000000  0.4860990000000  0.5437030000000 1.0
C      1  0.6130170000000  0.5151920000000  0.5557800000000 1.0
C      1  0.6000070000000  0.4877360000000  0.4585910000000 1.0
C      1  0.4883450000000  0.5428600000000  0.4005250000000 1.0
C      1  0.5138430000000  0.4455450000000  0.3944270000000 1.0
C      1  0.5040340000000  0.5492530000000  0.6114340000000 1.0
C      1  0.4857980000000  0.4553180000000  0.5455060000000 1.0
C      1  0.4469270000000  0.5568390000000  0.4795270000000 1.0
C      1  0.5440540000000  0.4853420000000  0.4607640000000 1.0
C      1  0.4785420000000  0.5531980000000  0.4561470000000 1.0
C      1  0.5138550000000  0.4463620000000  0.4567450000000 1.0
C      1  0.5091740000000  0.5454440000000  0.5431030000000 1.0
C      1  0.4545120000000  0.4537970000000  0.5206830000000 1.0
C      1  0.5491440000000  0.5470030000000  0.5181770000000 1.0
C      1  0.5474720000000  0.4407020000000  0.4817960000000 1.0
C      1  0.5485410000000  0.5168640000000  0.5471740000000 1.0
C      1  0.4476280000000  0.4814190000000  0.5477820000000 1.0
C      1  0.4516680000000  0.5131810000000  0.4595030000000 1.0
C      1  0.5169330000000  0.4496850000000  0.5530230000000 1.0
C      1  0.5475000000000  0.5570430000000  0.4866150000000 1.0
C      1  0.4550310000000  0.4827500000000  0.4656800000000 1.0
C      1  0.5101150000000  0.5537920000000  0.4569800000000 1.0
C      1  0.4827460000000  0.4569910000000  0.4535160000000 1.0
C      1  0.4769600000000  0.5488450000000  0.5438620000000 1.0
C      1  0.5429150000000  0.4500460000000  0.5127540000000 1.0
C      1  0.4552180000000  0.5485760000000  0.5105880000000 1.0
C      1  0.4531260000000  0.4434850000000  0.4895660000000 1.0
C      1  0.4523370000000  0.5139520000000  0.5439640000000 1.0
C      1  0.5423510000000  0.4853310000000  0.5427040000000 1.0
C      1  0.5458080000000  0.5155710000000  0.4591150000000 1.0
C      1  0.5180900000000  0.5547080000000  0.5134390000000 1.0
C      1  0.5585580000000  0.5142210000000  0.5155900000000 1.0
C      1  0.5170660000000  0.5158320000000  0.5480200000000 1.0
C      1  0.5145840000000  0.4349570000000  0.4889290000000 1.0
C      1  0.4768810000000  0.5691200000000  0.4842420000000 1.0
C      1  0.4851050000000  0.4467570000000  0.5132490000000 1.0
C      1  0.5571420000000  0.4717420000000  0.4828850000000 1.0
C      1  0.4382330000000  0.5260250000000  0.4828110000000 1.0
C      1  0.4457210000000  0.4863820000000  0.5159530000000 1.0
C      1  0.5172170000000  0.4767740000000  0.4511650000000 1.0
C      1  0.4837310000000  0.5207220000000  0.4492970000000 1.0
C      1  0.4782210000000  0.4839010000000  0.5532250000000 1.0
C      1  0.4860940000000  0.5566280000000  0.5126450000000 1.0
C      1  0.4485750000000  0.5178830000000  0.5128540000000 1.0
C      1  0.4839520000000  0.5173850000000  0.5561750000000 1.0
C      1  0.4822430000000  0.4435040000000  0.4810760000000 1.0
C      1  0.5196980000000  0.5671970000000  0.4817770000000 1.0
C      1  0.5156570000000  0.4425170000000  0.5224990000000 1.0
C      1  0.4400450000000  0.4725010000000  0.4886770000000 1.0
C      1  0.5552370000000  0.5272550000000  0.4839850000000 1.0
C      1  0.5491060000000  0.4817110000000  0.5123600000000 1.0
C      1  0.4868040000000  0.4888410000000  0.4575480000000 1.0
C      1  0.5181460000000  0.5245500000000  0.4485740000000 1.0
C      1  0.5119650000000  0.4830270000000  0.5579190000000 1.0
C      1  0.4244880000000  0.4759940000000  0.5692300000000 1.0
C      1  0.4873930000000  0.5707440000000  0.4289230000000 1.0
C      1  0.5707470000000  0.4171790000000  0.4811020000000 1.0
C      1  0.4304730000000  0.5141210000000  0.4353190000000 1.0
C      1  0.5663100000000  0.4889700000000  0.4374180000000 1.0
C      1  0.5747020000000  0.5193040000000  0.5657160000000 1.0
C      1  0.4857490000000  0.4354020000000  0.5732630000000 1.0
C      1  0.5198810000000  0.5596110000000  0.5713430000000 1.0
C      1  0.5207480000000  0.4296370000000  0.4303240000000 1.0
C      1  0.5729690000000  0.5704370000000  0.5140550000000 1.0
C      1  0.4320520000000  0.4282880000000  0.5196090000000 1.0
C      1  0.4234430000000  0.5799460000000  0.4800400000000 1.0
C      1  0.5687240000000  0.4864740000000  0.5631240000000 1.0
C      1  0.5212130000000  0.5668590000000  0.4281090000000 1.0
C      1  0.4292170000000  0.4228280000000  0.4863510000000 1.0
C      1  0.5700420000000  0.5228370000000  0.4390170000000 1.0
C      1  0.4351600000000  0.4808360000000  0.4412540000000 1.0
C      1  0.4282010000000  0.5099840000000  0.5674490000000 1.0
C      1  0.5184050000000  0.4258890000000  0.5745810000000 1.0
C      1  0.4880570000000  0.5681010000000  0.5683140000000 1.0
C      1  0.4868390000000  0.4337600000000  0.4303200000000 1.0
C      1  0.4291020000000  0.5703310000000  0.5123390000000 1.0
C      1  0.5683420000000  0.4272920000000  0.5128790000000 1.0
C      1  0.5710560000000  0.5777520000000  0.4807740000000 1.0
C      1  0.4772110000000  0.3961680000000  0.4848460000000 1.0
C      1  0.4096290000000  0.4717770000000  0.4839220000000 1.0
C      1  0.4857260000000  0.4855850000000  0.4091490000000 1.0
C      1  0.4916400000000  0.6092510000000  0.5148530000000 1.0
C      1  0.5175620000000  0.3935610000000  0.5185060000000 1.0
C      1  0.5210740000000  0.5982000000000  0.4904080000000 1.0
C      1  0.3968350000000  0.5107090000000  0.5124800000000 1.0
C      1  0.5990730000000  0.4837970000000  0.5164650000000 1.0
C      1  0.5864670000000  0.5261440000000  0.4875510000000 1.0
C      1  0.4878680000000  0.5202740000000  0.5891730000000 1.0
C      1  0.5155390000000  0.4919470000000  0.5903150000000 1.0
C      1  0.5244650000000  0.5155170000000  0.4188810000000 1.0
C      1  0.5086550000000  0.4031870000000  0.4870350000000 1.0
C      1  0.5892640000000  0.4774220000000  0.4863880000000 1.0
C      1  0.5144940000000  0.4858790000000  0.4205070000000 1.0
C      1  0.5214910000000  0.6031640000000  0.5240900000000 1.0
C      1  0.4844960000000  0.3969570000000  0.5180890000000 1.0
C      1  0.4896480000000  0.5980010000000  0.4833830000000 1.0
C      1  0.5922440000000  0.5150950000000  0.5171180000000 1.0
C      1  0.3962330000000  0.4776880000000  0.5120710000000 1.0
C      1  0.4064810000000  0.5198780000000  0.4847560000000 1.0
C      1  0.5194480000000  0.5248310000000  0.5981740000000 1.0
C      1  0.4824870000000  0.4885060000000  0.5991890000000 1.0
C      1  0.4789560000000  0.5166710000000  0.4169530000000 1.0
C      1  0.5485800000000  0.5140860000000  0.5869790000000 1.0
C      1  0.5191040000000  0.5836150000000  0.5486450000000 1.0
C      1  0.5978470000000  0.5488840000000  0.5181020000000 1.0
C      1  0.5471010000000  0.4834220000000  0.4115750000000 1.0
C      1  0.4477020000000  0.5214010000000  0.4105220000000 1.0
C      1  0.4530590000000  0.4822720000000  0.5872700000000 1.0
C      1  0.5188000000000  0.4068390000000  0.4556000000000 1.0
C      1  0.4802050000000  0.5935050000000  0.4527270000000 1.0
C      1  0.4904310000000  0.4151350000000  0.5462370000000 1.0
C      1  0.5870280000000  0.4452560000000  0.4817830000000 1.0
C      1  0.4077980000000  0.5518460000000  0.4840520000000 1.0
C      1  0.4044900000000  0.4445310000000  0.5122960000000 1.0
C      1  0.4552340000000  0.5164620000000  0.5850940000000 1.0
C      1  0.4857070000000  0.5877250000000  0.5405660000000 1.0
C      1  0.4103230000000  0.5423160000000  0.5172710000000 1.0
C      1  0.4521520000000  0.4874580000000  0.4144510000000 1.0
C      1  0.5558110000000  0.5165890000000  0.4106120000000 1.0
C      1  0.5455460000000  0.4799220000000  0.5859410000000 1.0
C      1  0.4849190000000  0.4115390000000  0.4559890000000 1.0
C      1  0.5141690000000  0.5925500000000  0.4489300000000 1.0
C      1  0.5245400000000  0.4105450000000  0.5447500000000 1.0
C      1  0.4044970000000  0.4401600000000  0.4779500000000 1.0
C      1  0.5965970000000  0.5573160000000  0.4848340000000 1.0
C      1  0.5906920000000  0.4508100000000  0.5157120000000 1.0
C      1  0.4424680000000  0.5586870000000  0.5567660000000 1.0
C      1  0.5592920000000  0.4384840000000  0.4372290000000 1.0
C      1  0.5622130000000  0.4424070000000  0.5591550000000 1.0
C      1  0.5614840000000  0.5627770000000  0.4414620000000 1.0
C      1  0.4410500000000  0.4414780000000  0.5560370000000 1.0
C      1  0.4386590000000  0.5624030000000  0.4407060000000 1.0
C      1  0.4425870000000  0.4389300000000  0.4401970000000 1.0
C      1  0.5650190000000  0.5570230000000  0.5571550000000 1.0
END
