TITL C-2782231-7322-1375 0.00227235272960875 125000 -909.517254450714 0 0 151 (C1) n - 1
REM
REM in /home/nfs/bkarasulu/CARBON/AIRSS/Generating-Clusters/REBO/Higher-Symm/SD-CG/HFTN-CG
REM
REM
REM
REM
REM
REM ./C.cell (12c818d87b63d06a65506943cc24bca4)
REM
REM compiler GCC version 9.2.1 20190827 (Red Hat 9.2.1-1)
REM options -cpp -mtune=generic -march=x86-64 -g -O0 -fpre-include=/usr/include/finclude/math-vector-fortran.h
REM seed 223480750 563143701 724396591 -2074042968 295345112 -1753941886 -1213294649 -1770064378 -1337871686 39356039 -1372451251 2071217740 219000781 -250877565 -1488361600 1788742 -969021683 1339718955 1193970935 -860576897 110245681 889976254 1322421766 -871912813 -569315852 275410830 -704130853 -577365029 -1090076474 -734255438 1839309056 -1413368750 -167375160
REM
CELL 1.54180   50.00000   50.00000   50.00000   90.00000   90.00000   90.00000
LATT -1
SFAC C  
C      1  0.5520630000000  0.4808290000000  0.5524550000000 1.0
C      1  0.5684570000000  0.4804330000000  0.4670430000000 1.0
C      1  0.4883490000000  0.4876700000000  0.4174110000000 1.0
C      1  0.4337860000000  0.4881520000000  0.4869030000000 1.0
C      1  0.4647090000000  0.4805750000000  0.5640750000000 1.0
C      1  0.5689140000000  0.4311000000000  0.4780070000000 1.0
C      1  0.5021430000000  0.4292650000000  0.4246840000000 1.0
C      1  0.4370200000000  0.4234500000000  0.4643630000000 1.0
C      1  0.4530390000000  0.4286390000000  0.5582010000000 1.0
C      1  0.5404440000000  0.4322400000000  0.5584480000000 1.0
C      1  0.4170550000000  0.5443870000000  0.5209550000000 1.0
C      1  0.4914370000000  0.5531370000000  0.5891830000000 1.0
C      1  0.5800850000000  0.5520570000000  0.5365420000000 1.0
C      1  0.5630690000000  0.5534730000000  0.4358880000000 1.0
C      1  0.4540090000000  0.5498330000000  0.4234260000000 1.0
C      1  0.4459710000000  0.5030490000000  0.4185730000000 1.0
C      1  0.3993090000000  0.5006370000000  0.5020760000000 1.0
C      1  0.4762060000000  0.5060240000000  0.5920760000000 1.0
C      1  0.5835520000000  0.5047400000000  0.5531150000000 1.0
C      1  0.5797070000000  0.5056490000000  0.4389530000000 1.0
C      1  0.4553800000000  0.5814610000000  0.5588120000000 1.0
C      1  0.5384670000000  0.5754050000000  0.5584950000000 1.0
C      1  0.5635210000000  0.5733870000000  0.4822000000000 1.0
C      1  0.5012780000000  0.5733850000000  0.4314480000000 1.0
C      1  0.4306630000000  0.5763770000000  0.4785040000000 1.0
C      1  0.5269910000000  0.4552750000000  0.5699170000000 1.0
C      1  0.5758700000000  0.4534500000000  0.4954040000000 1.0
C      1  0.5223690000000  0.4502590000000  0.4230050000000 1.0
C      1  0.4373180000000  0.4543480000000  0.4542650000000 1.0
C      1  0.4393040000000  0.4529180000000  0.5504550000000 1.0
C      1  0.5299160000000  0.5027180000000  0.4994380000000 1.0
C      1  0.5104280000000  0.5040370000000  0.4723260000000 1.0
C      1  0.4795940000000  0.5047920000000  0.4822610000000 1.0
C      1  0.4804260000000  0.5046470000000  0.5148420000000 1.0
C      1  0.5108350000000  0.5028720000000  0.5268180000000 1.0
C      1  0.4822460000000  0.5559230000000  0.5446900000000 1.0
C      1  0.5373950000000  0.5477390000000  0.5297500000000 1.0
C      1  0.5391500000000  0.5435020000000  0.4716890000000 1.0
C      1  0.4831590000000  0.5435610000000  0.4506320000000 1.0
C      1  0.4511190000000  0.5491470000000  0.4990330000000 1.0
C      1  0.5682490000000  0.5322490000000  0.5559940000000 1.0
C      1  0.5791240000000  0.5340910000000  0.4533850000000 1.0
C      1  0.4702880000000  0.5232940000000  0.4174060000000 1.0
C      1  0.4142660000000  0.5266170000000  0.4984290000000 1.0
C      1  0.4702490000000  0.5338500000000  0.5807390000000 1.0
C      1  0.5166540000000  0.4705040000000  0.5187720000000 1.0
C      1  0.5254180000000  0.4710170000000  0.4883260000000 1.0
C      1  0.4989010000000  0.4720610000000  0.4705010000000 1.0
C      1  0.4731880000000  0.4729540000000  0.4915780000000 1.0
C      1  0.4853210000000  0.4726970000000  0.5215120000000 1.0
C      1  0.4318580000000  0.5348490000000  0.5700900000000 1.0
C      1  0.5392210000000  0.5286670000000  0.5882030000000 1.0
C      1  0.5958920000000  0.5295980000000  0.4927850000000 1.0
C      1  0.5250400000000  0.5269000000000  0.4091470000000 1.0
C      1  0.4124120000000  0.5311290000000  0.4559410000000 1.0
C      1  0.4640240000000  0.4633390000000  0.4533490000000 1.0
C      1  0.4466720000000  0.4633260000000  0.5236280000000 1.0
C      1  0.5037730000000  0.4612520000000  0.5552000000000 1.0
C      1  0.5541930000000  0.4584230000000  0.5127320000000 1.0
C      1  0.5308380000000  0.4603610000000  0.4494980000000 1.0
C      1  0.4317980000000  0.5718820000000  0.5122970000000 1.0
C      1  0.4876140000000  0.5774970000000  0.5690460000000 1.0
C      1  0.5569210000000  0.5733710000000  0.5312890000000 1.0
C      1  0.5450480000000  0.5704700000000  0.4552420000000 1.0
C      1  0.4688870000000  0.5710530000000  0.4405590000000 1.0
C      1  0.5143950000000  0.5118360000000  0.5580030000000 1.0
C      1  0.5612750000000  0.5098270000000  0.5046520000000 1.0
C      1  0.5256340000000  0.5118050000000  0.4459520000000 1.0
C      1  0.4586190000000  0.5135380000000  0.4604430000000 1.0
C      1  0.4547460000000  0.5140290000000  0.5306390000000 1.0
C      1  0.5129010000000  0.5881270000000  0.5540390000000 1.0
C      1  0.5498600000000  0.5853200000000  0.5037320000000 1.0
C      1  0.5177920000000  0.5837480000000  0.4520530000000 1.0
C      1  0.4565320000000  0.5841170000000  0.4666800000000 1.0
C      1  0.4522560000000  0.5879120000000  0.5301070000000 1.0
C      1  0.4676900000000  0.5338940000000  0.5526190000000 1.0
C      1  0.5406480000000  0.5281670000000  0.5485510000000 1.0
C      1  0.5602420000000  0.5267780000000  0.4757920000000 1.0
C      1  0.4952860000000  0.5225710000000  0.4351160000000 1.0
C      1  0.4399110000000  0.5275520000000  0.4845280000000 1.0
C      1  0.4735890000000  0.4888760000000  0.4437230000000 1.0
C      1  0.4438330000000  0.4893300000000  0.5129990000000 1.0
C      1  0.4918880000000  0.4867020000000  0.5581100000000 1.0
C      1  0.5536430000000  0.4835920000000  0.5251380000000 1.0
C      1  0.5432940000000  0.4850180000000  0.4556170000000 1.0
C      1  0.4295810000000  0.5298950000000  0.5415440000000 1.0
C      1  0.5074900000000  0.5229260000000  0.5888610000000 1.0
C      1  0.5869100000000  0.5214670000000  0.5227800000000 1.0
C      1  0.5518450000000  0.5225720000000  0.4271460000000 1.0
C      1  0.4375860000000  0.5268780000000  0.4397940000000 1.0
C      1  0.5475410000000  0.4140160000000  0.4891610000000 1.0
C      1  0.5001690000000  0.4121450000000  0.4486110000000 1.0
C      1  0.4517570000000  0.4020310000000  0.4856780000000 1.0
C      1  0.4606190000000  0.4077330000000  0.5372490000000 1.0
C      1  0.5211010000000  0.4107330000000  0.5476230000000 1.0
C      1  0.4925490000000  0.4420520000000  0.5331040000000 1.0
C      1  0.5276730000000  0.4397840000000  0.5128590000000 1.0
C      1  0.5266930000000  0.4433870000000  0.4726230000000 1.0
C      1  0.4836200000000  0.4426270000000  0.4680580000000 1.0
C      1  0.4634910000000  0.4434140000000  0.5056640000000 1.0
C      1  0.5117880000000  0.5523250000000  0.4141500000000 1.0
C      1  0.4125950000000  0.5567510000000  0.4665630000000 1.0
C      1  0.4383950000000  0.5626830000000  0.5736230000000 1.0
C      1  0.5438170000000  0.5547160000000  0.5782780000000 1.0
C      1  0.5860450000000  0.5554210000000  0.4863340000000 1.0
C      1  0.5062710000000  0.5940990000000  0.4762810000000 1.0
C      1  0.4770360000000  0.5952330000000  0.4840160000000 1.0
C      1  0.4735680000000  0.5983400000000  0.5135830000000 1.0
C      1  0.5044130000000  0.5949570000000  0.5244610000000 1.0
C      1  0.5235730000000  0.5952460000000  0.4999560000000 1.0
C      1  0.5444310000000  0.4143410000000  0.5230180000000 1.0
C      1  0.5212550000000  0.4136630000000  0.4696600000000 1.0
C      1  0.4698650000000  0.4140340000000  0.4608400000000 1.0
C      1  0.4564400000000  0.4144120000000  0.5105970000000 1.0
C      1  0.4901660000000  0.4159210000000  0.5512510000000 1.0
C      1  0.4341460000000  0.4778780000000  0.4220930000000 1.0
C      1  0.4065420000000  0.4816810000000  0.5249360000000 1.0
C      1  0.5016580000000  0.4837380000000  0.5967450000000 1.0
C      1  0.5930490000000  0.4810740000000  0.5303690000000 1.0
C      1  0.5648680000000  0.4796810000000  0.4225400000000 1.0
C      1  0.4272000000000  0.4838860000000  0.5518590000000 1.0
C      1  0.5303430000000  0.4809280000000  0.5860410000000 1.0
C      1  0.5924140000000  0.4799450000000  0.4989480000000 1.0
C      1  0.5360790000000  0.4783770000000  0.4142340000000 1.0
C      1  0.4171330000000  0.4761620000000  0.4471640000000 1.0
C      1  0.5660640000000  0.4333960000000  0.5415300000000 1.0
C      1  0.5718940000000  0.4342370000000  0.4496980000000 1.0
C      1  0.4773340000000  0.4366490000000  0.4116950000000 1.0
C      1  0.4160460000000  0.4340690000000  0.4863140000000 1.0
C      1  0.4791620000000  0.4297030000000  0.5800140000000 1.0
C      1  0.5562520000000  0.5013600000000  0.5772120000000 1.0
C      1  0.5919650000000  0.5027670000000  0.4734000000000 1.0
C      1  0.5150430000000  0.4986970000000  0.4097630000000 1.0
C      1  0.4080240000000  0.5011130000000  0.4684680000000 1.0
C      1  0.4456530000000  0.5038380000000  0.5730450000000 1.0
C      1  0.4494550000000  0.4558650000000  0.4111830000000 1.0
C      1  0.4059360000000  0.4520220000000  0.5134110000000 1.0
C      1  0.4893660000000  0.4568070000000  0.5982170000000 1.0
C      1  0.5852530000000  0.4536550000000  0.5382500000000 1.0
C      1  0.5736030000000  0.4532330000000  0.4299090000000 1.0
C      1  0.4765360000000  0.5572260000000  0.4964360000000 1.0
C      1  0.4936540000000  0.5645120000000  0.5199580000000 1.0
C      1  0.5171090000000  0.5479200000000  0.5124880000000 1.0
C      1  0.5164850000000  0.5410440000000  0.4861200000000 1.0
C      1  0.4913370000000  0.5456660000000  0.4763960000000 1.0
C      1  0.5942350000000  0.4648840000000  0.4619740000000 1.0
C      1  0.4777560000000  0.4667390000000  0.4005470000000 1.0
C      1  0.4145560000000  0.4654670000000  0.4851790000000 1.0
C      1  0.4629350000000  0.4589010000000  0.5819740000000 1.0
C      1  0.5660290000000  0.4630310000000  0.5718730000000 1.0
C      1  0.4969410000000  0.4417120000000  0.4992500000000 1.0
END
