TITL C-2782227-3064-643 0.000345436803771781 125000 -394.417063574721 0 0 69 (C1) n - 1
REM
REM in /home/nfs/bkarasulu/CARBON/AIRSS/Generating-Clusters/REBO/Higher-Symm/SD-CG/HFTN-CG
REM
REM
REM
REM
REM
REM ./C.cell (12c818d87b63d06a65506943cc24bca4)
REM
REM compiler GCC version 9.2.1 20190827 (Red Hat 9.2.1-1)
REM options -cpp -mtune=generic -march=x86-64 -g -O0 -fpre-include=/usr/include/finclude/math-vector-fortran.h
REM seed 1696023357 1979470267 -801588893 1433877624 984729807 -1915483308 -1076619787 1624907069 -1784101622 1051269785 1118960313 1492736902 531533206 957007955 -387866023 -1108422274 -1804005325 -1407301239 -1023452648 1186331942 127693127 85509302 770177310 -565383503 -1251716753 -1292836833 -630996297 -589592538 993160149 -1756163979 -1353041041 -1694827761 -2083558437
REM
CELL 1.54180   50.00000   50.00000   50.00000   90.00000   90.00000   90.00000
LATT -1
SFAC C  
C      1  0.5531230000000  0.4686210000000  0.4478460000000 1.0
C      1  0.5525990000000  0.5320720000000  0.5543880000000 1.0
C      1  0.4466500000000  0.5288680000000  0.4470170000000 1.0
C      1  0.4467750000000  0.4716680000000  0.5498420000000 1.0
C      1  0.5543580000000  0.4463770000000  0.4682510000000 1.0
C      1  0.5518520000000  0.5506430000000  0.5305690000000 1.0
C      1  0.4467070000000  0.4523110000000  0.5274890000000 1.0
C      1  0.4456230000000  0.5488790000000  0.4691880000000 1.0
C      1  0.5944330000000  0.4785140000000  0.5026260000000 1.0
C      1  0.5849170000000  0.5195290000000  0.4990010000000 1.0
C      1  0.4109550000000  0.5237970000000  0.5031920000000 1.0
C      1  0.4069110000000  0.4802950000000  0.5027180000000 1.0
C      1  0.5887080000000  0.4968550000000  0.4743210000000 1.0
C      1  0.5901840000000  0.5014890000000  0.5274840000000 1.0
C      1  0.4054090000000  0.5017930000000  0.5288660000000 1.0
C      1  0.4102310000000  0.5022210000000  0.4767380000000 1.0
C      1  0.5035190000000  0.5303650000000  0.5522360000000 1.0
C      1  0.5048800000000  0.4677510000000  0.4495430000000 1.0
C      1  0.4953840000000  0.4676320000000  0.5522520000000 1.0
C      1  0.4954850000000  0.5310620000000  0.4482490000000 1.0
C      1  0.5031530000000  0.5513410000000  0.5328320000000 1.0
C      1  0.5056670000000  0.4470210000000  0.4690760000000 1.0
C      1  0.4944600000000  0.5504060000000  0.4691100000000 1.0
C      1  0.4955560000000  0.4481030000000  0.5315960000000 1.0
C      1  0.5421390000000  0.4664200000000  0.5137460000000 1.0
C      1  0.5218150000000  0.5298720000000  0.4936860000000 1.0
C      1  0.4775880000000  0.5255950000000  0.5085520000000 1.0
C      1  0.4652310000000  0.4677490000000  0.4878740000000 1.0
C      1  0.5244560000000  0.5059870000000  0.4720190000000 1.0
C      1  0.5404660000000  0.4863470000000  0.5327760000000 1.0
C      1  0.4655200000000  0.5068550000000  0.5299340000000 1.0
C      1  0.4710820000000  0.4971760000000  0.4763900000000 1.0
C      1  0.5505060000000  0.5210360000000  0.4981600000000 1.0
C      1  0.5624240000000  0.4747450000000  0.4948070000000 1.0
C      1  0.4390780000000  0.4807130000000  0.4937570000000 1.0
C      1  0.4439790000000  0.5316910000000  0.5081030000000 1.0
C      1  0.5574370000000  0.5065700000000  0.5244360000000 1.0
C      1  0.5546200000000  0.4977700000000  0.4761100000000 1.0
C      1  0.4427440000000  0.5113320000000  0.4825230000000 1.0
C      1  0.4373890000000  0.4994510000000  0.5201260000000 1.0
C      1  0.5280620000000  0.4813550000000  0.4409930000000 1.0
C      1  0.5276730000000  0.5164860000000  0.5583980000000 1.0
C      1  0.4721580000000  0.5164070000000  0.4415070000000 1.0
C      1  0.4721210000000  0.4814080000000  0.5596210000000 1.0
C      1  0.5295170000000  0.4415760000000  0.4834880000000 1.0
C      1  0.5267680000000  0.5597810000000  0.5193720000000 1.0
C      1  0.4721100000000  0.4420660000000  0.5171580000000 1.0
C      1  0.4701640000000  0.5553530000000  0.4829580000000 1.0
C      1  0.4229590000000  0.5119590000000  0.4478490000000 1.0
C      1  0.4216920000000  0.4859770000000  0.5540610000000 1.0
C      1  0.5776980000000  0.4836720000000  0.4467890000000 1.0
C      1  0.5789910000000  0.5175530000000  0.5554260000000 1.0
C      1  0.4210260000000  0.4514940000000  0.5137940000000 1.0
C      1  0.4195970000000  0.5495540000000  0.4826090000000 1.0
C      1  0.5828630000000  0.4509170000000  0.4853840000000 1.0
C      1  0.5750440000000  0.5485490000000  0.5132030000000 1.0
C      1  0.4746830000000  0.5577700000000  0.5159970000000 1.0
C      1  0.4778570000000  0.4395010000000  0.4837090000000 1.0
C      1  0.5238840000000  0.4411780000000  0.5170160000000 1.0
C      1  0.5219910000000  0.5606810000000  0.4856210000000 1.0
C      1  0.4763050000000  0.5139060000000  0.5590950000000 1.0
C      1  0.4762870000000  0.4833500000000  0.4470960000000 1.0
C      1  0.5235920000000  0.5151270000000  0.4411150000000 1.0
C      1  0.5232600000000  0.4827470000000  0.5585840000000 1.0
C      1  0.4662130000000  0.5435070000000  0.5456960000000 1.0
C      1  0.5314150000000  0.4509740000000  0.5488820000000 1.0
C      1  0.5321230000000  0.5437300000000  0.4577090000000 1.0
C      1  0.4691330000000  0.4505330000000  0.4525450000000 1.0
C      1  0.4949850000000  0.5121680000000  0.4878220000000 1.0
END
