TITL C-2782225-7408-482 0.00495004381762578 125000 -1020.09785488093 0 0 176 (C1) n - 1
REM
REM in /home/nfs/bkarasulu/CARBON/AIRSS/Generating-Clusters/REBO/Higher-Symm/SD-CG/HFTN-CG
REM
REM
REM
REM
REM
REM ./C.cell (12c818d87b63d06a65506943cc24bca4)
REM
REM compiler GCC version 9.2.1 20190827 (Red Hat 9.2.1-1)
REM options -cpp -mtune=generic -march=x86-64 -g -O0 -fpre-include=/usr/include/finclude/math-vector-fortran.h
REM seed 1990871872 1553276162 1209991146 1926489993 1358053204 83159120 979272608 167613744 -890969159 1381340633 861957857 -1529414832 -855492822 -1592219067 -1485044285 -1592369555 -1858391110 -397236084 -1458374812 1317181674 16236079 1563042085 1743566176 -880723525 869445985 1582357198 1676594950 -433727229 1089426601 957128113 149425967 -1762509645 280482637
REM
CELL 1.54180   50.00000   50.00000   50.00000   90.00000   90.00000   90.00000
LATT -1
SFAC C  
C      1  0.5629820000000  0.5017090000000  0.5220590000000 1.0
C      1  0.4984060000000  0.4959230000000  0.5656180000000 1.0
C      1  0.4333340000000  0.4981620000000  0.5172240000000 1.0
C      1  0.4619890000000  0.4969460000000  0.4434540000000 1.0
C      1  0.5453150000000  0.5009180000000  0.4462740000000 1.0
C      1  0.4455830000000  0.4665000000000  0.4101490000000 1.0
C      1  0.5730700000000  0.4562450000000  0.4400480000000 1.0
C      1  0.5880170000000  0.4653610000000  0.5396980000000 1.0
C      1  0.4841770000000  0.4589210000000  0.5970120000000 1.0
C      1  0.3945700000000  0.4693900000000  0.5246620000000 1.0
C      1  0.5309190000000  0.4829010000000  0.5432710000000 1.0
C      1  0.4659210000000  0.4802630000000  0.5355920000000 1.0
C      1  0.4495520000000  0.4790090000000  0.4769490000000 1.0
C      1  0.4990070000000  0.4838070000000  0.4398440000000 1.0
C      1  0.5559380000000  0.4896340000000  0.4845950000000 1.0
C      1  0.4857490000000  0.4920570000000  0.5127090000000 1.0
C      1  0.4770290000000  0.4978660000000  0.4837950000000 1.0
C      1  0.5032320000000  0.5077770000000  0.4647450000000 1.0
C      1  0.5281000000000  0.5066700000000  0.4883590000000 1.0
C      1  0.5159890000000  0.4997570000000  0.5176580000000 1.0
C      1  0.4791550000000  0.5598770000000  0.5601890000000 1.0
C      1  0.4344310000000  0.5597390000000  0.4981410000000 1.0
C      1  0.4799600000000  0.5602100000000  0.4396940000000 1.0
C      1  0.5543850000000  0.5632030000000  0.4623480000000 1.0
C      1  0.5507650000000  0.5616280000000  0.5372780000000 1.0
C      1  0.4679710000000  0.4503240000000  0.5520690000000 1.0
C      1  0.4282750000000  0.4533240000000  0.4855880000000 1.0
C      1  0.4905480000000  0.4530610000000  0.4278550000000 1.0
C      1  0.5634780000000  0.4587600000000  0.4785850000000 1.0
C      1  0.5499650000000  0.4541950000000  0.5505320000000 1.0
C      1  0.5588710000000  0.5399150000000  0.4064370000000 1.0
C      1  0.6071870000000  0.5416280000000  0.5237960000000 1.0
C      1  0.5087410000000  0.5387570000000  0.6086620000000 1.0
C      1  0.4005980000000  0.5364030000000  0.5444150000000 1.0
C      1  0.4251780000000  0.5400210000000  0.4197490000000 1.0
C      1  0.4692080000000  0.4323490000000  0.4948690000000 1.0
C      1  0.5022610000000  0.4381950000000  0.4735550000000 1.0
C      1  0.5221150000000  0.4326060000000  0.4974750000000 1.0
C      1  0.5072190000000  0.4277350000000  0.5242080000000 1.0
C      1  0.4750160000000  0.4207770000000  0.5261170000000 1.0
C      1  0.5185000000000  0.3738130000000  0.4823420000000 1.0
C      1  0.5467760000000  0.3931120000000  0.5230520000000 1.0
C      1  0.5294420000000  0.3908390000000  0.5442810000000 1.0
C      1  0.4476690000000  0.3845540000000  0.5149250000000 1.0
C      1  0.4582580000000  0.3809560000000  0.4435690000000 1.0
C      1  0.4962300000000  0.4300110000000  0.5851460000000 1.0
C      1  0.3993910000000  0.4363550000000  0.5239210000000 1.0
C      1  0.4447960000000  0.4341060000000  0.4181060000000 1.0
C      1  0.5533350000000  0.4293710000000  0.4485090000000 1.0
C      1  0.6011480000000  0.4349490000000  0.5417790000000 1.0
C      1  0.4811980000000  0.4579460000000  0.5143520000000 1.0
C      1  0.4806750000000  0.4647420000000  0.4752000000000 1.0
C      1  0.5085450000000  0.4771860000000  0.4705470000000 1.0
C      1  0.5283930000000  0.4717210000000  0.4922770000000 1.0
C      1  0.5141430000000  0.4649540000000  0.5195420000000 1.0
C      1  0.5144280000000  0.4002220000000  0.4753000000000 1.0
C      1  0.5614130000000  0.4167720000000  0.5185110000000 1.0
C      1  0.5154830000000  0.4089930000000  0.5583880000000 1.0
C      1  0.4386610000000  0.4100300000000  0.5140680000000 1.0
C      1  0.4710550000000  0.4052770000000  0.4464470000000 1.0
C      1  0.5032770000000  0.5354060000000  0.4383220000000 1.0
C      1  0.5643460000000  0.5369690000000  0.4815790000000 1.0
C      1  0.5339250000000  0.5358580000000  0.5518420000000 1.0
C      1  0.4619010000000  0.5337060000000  0.5469980000000 1.0
C      1  0.4388190000000  0.5336470000000  0.4765620000000 1.0
C      1  0.4032890000000  0.4521120000000  0.5520780000000 1.0
C      1  0.4182220000000  0.4527420000000  0.4226410000000 1.0
C      1  0.5489620000000  0.4463350000000  0.4194950000000 1.0
C      1  0.6126260000000  0.4562460000000  0.5197470000000 1.0
C      1  0.5160160000000  0.4504370000000  0.6003960000000 1.0
C      1  0.4108730000000  0.4958260000000  0.4432170000000 1.0
C      1  0.5357470000000  0.4921110000000  0.4052660000000 1.0
C      1  0.6077440000000  0.4978420000000  0.4955890000000 1.0
C      1  0.5343520000000  0.4947590000000  0.5956190000000 1.0
C      1  0.4240880000000  0.4930340000000  0.5652160000000 1.0
C      1  0.6234880000000  0.5176860000000  0.5079590000000 1.0
C      1  0.5280480000000  0.5135510000000  0.6151420000000 1.0
C      1  0.4026070000000  0.5110970000000  0.5653380000000 1.0
C      1  0.4039850000000  0.5159270000000  0.4251100000000 1.0
C      1  0.5502010000000  0.5119900000000  0.3915880000000 1.0
C      1  0.5901370000000  0.4820510000000  0.4386620000000 1.0
C      1  0.5911570000000  0.4888220000000  0.5586230000000 1.0
C      1  0.4699640000000  0.4839920000000  0.6035090000000 1.0
C      1  0.3846730000000  0.4962850000000  0.5150370000000 1.0
C      1  0.4561550000000  0.4908490000000  0.3960670000000 1.0
C      1  0.5260160000000  0.5669740000000  0.5754200000000 1.0
C      1  0.4373540000000  0.5650860000000  0.5489330000000 1.0
C      1  0.4329840000000  0.5675360000000  0.4563710000000 1.0
C      1  0.5222900000000  0.5667910000000  0.4226990000000 1.0
C      1  0.5809350000000  0.5699360000000  0.4964180000000 1.0
C      1  0.5174390000000  0.4464810000000  0.4472800000000 1.0
C      1  0.5523490000000  0.4414120000000  0.5017980000000 1.0
C      1  0.5184740000000  0.4421130000000  0.5520420000000 1.0
C      1  0.4469840000000  0.4405960000000  0.5268190000000 1.0
C      1  0.4527670000000  0.4404090000000  0.4657590000000 1.0
C      1  0.5275680000000  0.5730430000000  0.5002400000000 1.0
C      1  0.5081550000000  0.5714590000000  0.5265020000000 1.0
C      1  0.4772560000000  0.5707020000000  0.5162320000000 1.0
C      1  0.4771950000000  0.5715400000000  0.4836780000000 1.0
C      1  0.5081490000000  0.5726580000000  0.4734820000000 1.0
C      1  0.5499620000000  0.5519220000000  0.5847230000000 1.0
C      1  0.4373470000000  0.5494610000000  0.5743280000000 1.0
C      1  0.4071870000000  0.5542740000000  0.4636810000000 1.0
C      1  0.5102280000000  0.5493430000000  0.4015570000000 1.0
C      1  0.5993970000000  0.5549980000000  0.4765780000000 1.0
C      1  0.3976040000000  0.5450200000000  0.4370280000000 1.0
C      1  0.5334240000000  0.5391900000000  0.3859410000000 1.0
C      1  0.6217820000000  0.5471030000000  0.4949910000000 1.0
C      1  0.5412960000000  0.5426120000000  0.6118540000000 1.0
C      1  0.4089020000000  0.5405060000000  0.5760040000000 1.0
C      1  0.4829650000000  0.5924800000000  0.4501020000000 1.0
C      1  0.5416940000000  0.5939500000000  0.4694880000000 1.0
C      1  0.5408550000000  0.5936860000000  0.5315460000000 1.0
C      1  0.4828390000000  0.5919520000000  0.5494650000000 1.0
C      1  0.4469120000000  0.5913150000000  0.5003780000000 1.0
C      1  0.4170620000000  0.4272970000000  0.5039660000000 1.0
C      1  0.4700100000000  0.4257410000000  0.4275880000000 1.0
C      1  0.5373570000000  0.4195980000000  0.4689980000000 1.0
C      1  0.5714660000000  0.4291010000000  0.5423230000000 1.0
C      1  0.4850310000000  0.4207100000000  0.5568120000000 1.0
C      1  0.4229300000000  0.5487960000000  0.5266340000000 1.0
C      1  0.4492590000000  0.5497210000000  0.4365770000000 1.0
C      1  0.5485490000000  0.5527510000000  0.4324990000000 1.0
C      1  0.5780670000000  0.5522130000000  0.5221040000000 1.0
C      1  0.5010070000000  0.5494210000000  0.5808610000000 1.0
C      1  0.4882130000000  0.5278360000000  0.4102330000000 1.0
C      1  0.5867720000000  0.5285910000000  0.4592590000000 1.0
C      1  0.5628480000000  0.5296970000000  0.5658950000000 1.0
C      1  0.4589610000000  0.5265540000000  0.5787370000000 1.0
C      1  0.4079440000000  0.5322640000000  0.4870790000000 1.0
C      1  0.4479820000000  0.5024190000000  0.5479230000000 1.0
C      1  0.4340500000000  0.5032350000000  0.4617660000000 1.0
C      1  0.5170180000000  0.5057590000000  0.4273260000000 1.0
C      1  0.5793960000000  0.5078490000000  0.4925280000000 1.0
C      1  0.5316420000000  0.5047040000000  0.5660210000000 1.0
C      1  0.4734470000000  0.6075550000000  0.5014100000000 1.0
C      1  0.4897830000000  0.6085420000000  0.4758750000000 1.0
C      1  0.5191890000000  0.6095100000000  0.4838960000000 1.0
C      1  0.5206590000000  0.6095780000000  0.5144970000000 1.0
C      1  0.4922980000000  0.6080530000000  0.5249740000000 1.0
C      1  0.4692070000000  0.5080630000000  0.4132500000000 1.0
C      1  0.5773270000000  0.5058680000000  0.4450390000000 1.0
C      1  0.5750810000000  0.5096560000000  0.5510540000000 1.0
C      1  0.4744850000000  0.5047660000000  0.5859970000000 1.0
C      1  0.4052890000000  0.5126400000000  0.5065100000000 1.0
C      1  0.5174250000000  0.5426270000000  0.4768430000000 1.0
C      1  0.5261320000000  0.5408720000000  0.5085170000000 1.0
C      1  0.4992530000000  0.5390760000000  0.5266560000000 1.0
C      1  0.4735920000000  0.5391550000000  0.5067980000000 1.0
C      1  0.4843370000000  0.5406520000000  0.4762000000000 1.0
C      1  0.4216810000000  0.4649450000000  0.5693390000000 1.0
C      1  0.4046300000000  0.4680680000000  0.4421400000000 1.0
C      1  0.5329630000000  0.4631890000000  0.4032260000000 1.0
C      1  0.6109460000000  0.4692890000000  0.4944700000000 1.0
C      1  0.5386280000000  0.4668380000000  0.5981150000000 1.0
C      1  0.5010910000000  0.5272510000000  0.5550560000000 1.0
C      1  0.4469690000000  0.5274480000000  0.5172150000000 1.0
C      1  0.4650170000000  0.5274460000000  0.4564200000000 1.0
C      1  0.5336710000000  0.5308250000000  0.4529390000000 1.0
C      1  0.5538310000000  0.5306900000000  0.5124410000000 1.0
C      1  0.4502870000000  0.5834190000000  0.4704080000000 1.0
C      1  0.5122500000000  0.5830460000000  0.4425100000000 1.0
C      1  0.5579000000000  0.5853070000000  0.4950600000000 1.0
C      1  0.5215530000000  0.5829290000000  0.5537310000000 1.0
C      1  0.4554620000000  0.5822400000000  0.5375780000000 1.0
C      1  0.5941390000000  0.4562060000000  0.4752480000000 1.0
C      1  0.5588610000000  0.4575930000000  0.5807750000000 1.0
C      1  0.4460540000000  0.4517440000000  0.5756180000000 1.0
C      1  0.4020030000000  0.4565020000000  0.4676710000000 1.0
C      1  0.5058520000000  0.4542180000000  0.3997850000000 1.0
C      1  0.5430390000000  0.4676190000000  0.4527610000000 1.0
C      1  0.5606930000000  0.4685330000000  0.5207610000000 1.0
C      1  0.4975500000000  0.4633630000000  0.5631590000000 1.0
C      1  0.4277260000000  0.4667360000000  0.5167190000000 1.0
C      1  0.4601260000000  0.4629650000000  0.4411630000000 1.0
C      1  0.4844540000000  0.4119980000000  0.4720420000000 1.0
END
