TITL C-2782237-5345-1446 0.00570465641944569 125000 -1069.33127414613 0 0 184 (C1) n - 1
REM
REM in /home/nfs/bkarasulu/CARBON/AIRSS/Generating-Clusters/REBO/Higher-Symm/SD-CG/HFTN-CG
REM
REM
REM
REM
REM
REM ./C.cell (12c818d87b63d06a65506943cc24bca4)
REM
REM compiler GCC version 9.2.1 20190827 (Red Hat 9.2.1-1)
REM options -cpp -mtune=generic -march=x86-64 -g -O0 -fpre-include=/usr/include/finclude/math-vector-fortran.h
REM seed 372040692 -289013849 -1357897512 1281427329 -1224082955 -1528212824 -70556515 741896709 1098047160 -1792412600 676146118 -868357391 -1736531770 -737493342 -260783082 -1972123662 203314238 220076297 1332976263 -1412157244 -1299429405 1920504120 1882184007 1177585774 -23097836 -2127372813 -2026736669 737114812 368613027 1323277171 -824892949 359492253 899978381
REM
CELL 1.54180   50.00000   50.00000   50.00000   90.00000   90.00000   90.00000
LATT -1
SFAC C  
C      1  0.5371430000000  0.5563580000000  0.4089940000000 1.0
C      1  0.4628430000000  0.4435440000000  0.5916000000000 1.0
C      1  0.5345410000000  0.4563580000000  0.5111950000000 1.0
C      1  0.4657810000000  0.5431840000000  0.4884220000000 1.0
C      1  0.4450550000000  0.5921380000000  0.5297830000000 1.0
C      1  0.5547060000000  0.4075380000000  0.4695900000000 1.0
C      1  0.4891550000000  0.5366290000000  0.5276820000000 1.0
C      1  0.5111590000000  0.4636420000000  0.4722570000000 1.0
C      1  0.5629850000000  0.4264290000000  0.5161030000000 1.0
C      1  0.4369830000000  0.5730510000000  0.4835490000000 1.0
C      1  0.4363130000000  0.4296250000000  0.4620700000000 1.0
C      1  0.5638890000000  0.5703260000000  0.5381850000000 1.0
C      1  0.5848890000000  0.4547580000000  0.4300490000000 1.0
C      1  0.4148150000000  0.5457830000000  0.5701990000000 1.0
C      1  0.5984940000000  0.4705000000000  0.4809810000000 1.0
C      1  0.4010520000000  0.5296230000000  0.5193880000000 1.0
C      1  0.5559520000000  0.5120580000000  0.5179970000000 1.0
C      1  0.4435840000000  0.4878820000000  0.4822080000000 1.0
C      1  0.4598850000000  0.4407330000000  0.4511400000000 1.0
C      1  0.5401990000000  0.5594690000000  0.5489100000000 1.0
C      1  0.5583230000000  0.5123160000000  0.4041840000000 1.0
C      1  0.4412720000000  0.4873100000000  0.5969980000000 1.0
C      1  0.4844380000000  0.5734100000000  0.4149760000000 1.0
C      1  0.5151570000000  0.4267380000000  0.5843060000000 1.0
C      1  0.5921180000000  0.4665340000000  0.5388150000000 1.0
C      1  0.4077920000000  0.5330930000000  0.4612290000000 1.0
C      1  0.5647820000000  0.5825300000000  0.5118730000000 1.0
C      1  0.4358320000000  0.4175690000000  0.4884520000000 1.0
C      1  0.4964500000000  0.4104840000000  0.4469000000000 1.0
C      1  0.5034180000000  0.5897110000000  0.5525380000000 1.0
C      1  0.5265890000000  0.5668220000000  0.4516380000000 1.0
C      1  0.4739250000000  0.4348150000000  0.5485810000000 1.0
C      1  0.5850640000000  0.5709610000000  0.4868770000000 1.0
C      1  0.4155760000000  0.4291180000000  0.5134790000000 1.0
C      1  0.5756990000000  0.4748800000000  0.4987050000000 1.0
C      1  0.4243150000000  0.5254050000000  0.5022940000000 1.0
C      1  0.6025360000000  0.5131960000000  0.4738590000000 1.0
C      1  0.3984120000000  0.4868560000000  0.5260820000000 1.0
C      1  0.5868600000000  0.5209430000000  0.5105190000000 1.0
C      1  0.4129330000000  0.4788660000000  0.4896870000000 1.0
C      1  0.4921950000000  0.3914410000000  0.4939960000000 1.0
C      1  0.5077840000000  0.6081590000000  0.5053930000000 1.0
C      1  0.4770900000000  0.5683400000000  0.5320070000000 1.0
C      1  0.5228140000000  0.4317630000000  0.4674940000000 1.0
C      1  0.4721220000000  0.5136300000000  0.4456170000000 1.0
C      1  0.5252610000000  0.4869840000000  0.5533030000000 1.0
C      1  0.4900890000000  0.4069720000000  0.5570920000000 1.0
C      1  0.5094130000000  0.5935500000000  0.4424420000000 1.0
C      1  0.5137920000000  0.5113990000000  0.3884680000000 1.0
C      1  0.4859980000000  0.4890700000000  0.6122790000000 1.0
C      1  0.4552940000000  0.5171460000000  0.4046790000000 1.0
C      1  0.5438540000000  0.4831670000000  0.5952850000000 1.0
C      1  0.6087050000000  0.4967720000000  0.5007410000000 1.0
C      1  0.3914490000000  0.5033330000000  0.4993740000000 1.0
C      1  0.5090280000000  0.4442470000000  0.5229310000000 1.0
C      1  0.4912940000000  0.5553300000000  0.4765580000000 1.0
C      1  0.5067520000000  0.5068040000000  0.4271440000000 1.0
C      1  0.4917840000000  0.4944500000000  0.5734970000000 1.0
C      1  0.5922180000000  0.4977160000000  0.4525360000000 1.0
C      1  0.4087380000000  0.5023260000000  0.5474070000000 1.0
C      1  0.4148290000000  0.4490290000000  0.4616840000000 1.0
C      1  0.5850910000000  0.5505900000000  0.5387340000000 1.0
C      1  0.5949400000000  0.4967910000000  0.5321620000000 1.0
C      1  0.4050780000000  0.5028160000000  0.4678750000000 1.0
C      1  0.4544520000000  0.5575930000000  0.5119660000000 1.0
C      1  0.5455570000000  0.4419390000000  0.4876960000000 1.0
C      1  0.6102650000000  0.4389000000000  0.5024930000000 1.0
C      1  0.3897220000000  0.5610020000000  0.4973310000000 1.0
C      1  0.4952980000000  0.5754430000000  0.5809790000000 1.0
C      1  0.5045310000000  0.4249720000000  0.4186830000000 1.0
C      1  0.5725490000000  0.5214980000000  0.5829580000000 1.0
C      1  0.4271000000000  0.4780820000000  0.4173580000000 1.0
C      1  0.4784030000000  0.4586870000000  0.5441080000000 1.0
C      1  0.5225690000000  0.5409720000000  0.4563760000000 1.0
C      1  0.4874330000000  0.5607290000000  0.4471740000000 1.0
C      1  0.5134720000000  0.4387870000000  0.5520570000000 1.0
C      1  0.4918040000000  0.5858950000000  0.4775270000000 1.0
C      1  0.5083760000000  0.4135730000000  0.5218800000000 1.0
C      1  0.4690300000000  0.5483970000000  0.4005600000000 1.0
C      1  0.5299910000000  0.4519300000000  0.5990690000000 1.0
C      1  0.4894560000000  0.4543850000000  0.4400840000000 1.0
C      1  0.5106180000000  0.5459400000000  0.5599330000000 1.0
C      1  0.4709140000000  0.5080500000000  0.5277420000000 1.0
C      1  0.5306530000000  0.4916090000000  0.4721110000000 1.0
C      1  0.4696130000000  0.5410730000000  0.4331330000000 1.0
C      1  0.5296980000000  0.4594550000000  0.5665940000000 1.0
C      1  0.4881250000000  0.4860240000000  0.5451660000000 1.0
C      1  0.5181030000000  0.5147700000000  0.4539550000000 1.0
C      1  0.5170220000000  0.4833710000000  0.5206650000000 1.0
C      1  0.4826870000000  0.5162990000000  0.4778820000000 1.0
C      1  0.5056980000000  0.4526470000000  0.4024080000000 1.0
C      1  0.4942130000000  0.5480920000000  0.5978770000000 1.0
C      1  0.4089970000000  0.4606440000000  0.5249820000000 1.0
C      1  0.5919190000000  0.5394010000000  0.4754580000000 1.0
C      1  0.5515320000000  0.4039350000000  0.4973570000000 1.0
C      1  0.4484900000000  0.5955460000000  0.5020490000000 1.0
C      1  0.4861120000000  0.4135270000000  0.4744800000000 1.0
C      1  0.5137510000000  0.5861230000000  0.5250630000000 1.0
C      1  0.4426570000000  0.5545740000000  0.4388670000000 1.0
C      1  0.5564100000000  0.4456290000000  0.5602530000000 1.0
C      1  0.4027630000000  0.4489080000000  0.4889130000000 1.0
C      1  0.5973220000000  0.5509610000000  0.5115960000000 1.0
C      1  0.5611010000000  0.5596590000000  0.4288540000000 1.0
C      1  0.4391500000000  0.4405270000000  0.5714920000000 1.0
C      1  0.5272350000000  0.5470810000000  0.5894100000000 1.0
C      1  0.4726400000000  0.4530540000000  0.4108180000000 1.0
C      1  0.4983540000000  0.4840540000000  0.4029810000000 1.0
C      1  0.5015200000000  0.5164410000000  0.5978230000000 1.0
C      1  0.5624870000000  0.4867460000000  0.4605170000000 1.0
C      1  0.4392520000000  0.5121430000000  0.5398510000000 1.0
C      1  0.4751200000000  0.6039670000000  0.4953320000000 1.0
C      1  0.5249090000000  0.3954630000000  0.5040620000000 1.0
C      1  0.5212730000000  0.5308800000000  0.5306440000000 1.0
C      1  0.4788660000000  0.4692560000000  0.4692390000000 1.0
C      1  0.4346090000000  0.4249410000000  0.5416130000000 1.0
C      1  0.5660540000000  0.5751850000000  0.4587160000000 1.0
C      1  0.4223500000000  0.5359050000000  0.4378270000000 1.0
C      1  0.5770680000000  0.4638280000000  0.5619330000000 1.0
C      1  0.5584930000000  0.4722490000000  0.5181140000000 1.0
C      1  0.4411200000000  0.5277060000000  0.4825010000000 1.0
C      1  0.5614410000000  0.5347470000000  0.4501540000000 1.0
C      1  0.4395690000000  0.4655000000000  0.5501980000000 1.0
C      1  0.5453750000000  0.5739320000000  0.4860140000000 1.0
C      1  0.4552670000000  0.4264160000000  0.5143370000000 1.0
C      1  0.5524090000000  0.5377730000000  0.5924520000000 1.0
C      1  0.4472700000000  0.4618110000000  0.4079250000000 1.0
C      1  0.5550750000000  0.4903390000000  0.5417860000000 1.0
C      1  0.4436550000000  0.5094940000000  0.4588280000000 1.0
C      1  0.4505020000000  0.5403240000000  0.5410340000000 1.0
C      1  0.5500440000000  0.4592760000000  0.4588970000000 1.0
C      1  0.4549410000000  0.4591770000000  0.4915080000000 1.0
C      1  0.5448250000000  0.5406310000000  0.5079720000000 1.0
C      1  0.5662520000000  0.4912120000000  0.5739870000000 1.0
C      1  0.4334300000000  0.5084060000000  0.4262290000000 1.0
C      1  0.5321220000000  0.4243070000000  0.4355710000000 1.0
C      1  0.4678440000000  0.5757400000000  0.5639360000000 1.0
C      1  0.4777480000000  0.5374420000000  0.5589620000000 1.0
C      1  0.5224710000000  0.4625100000000  0.4414680000000 1.0
C      1  0.4830020000000  0.4242980000000  0.5859330000000 1.0
C      1  0.5168290000000  0.5756150000000  0.4140700000000 1.0
C      1  0.4881340000000  0.5223300000000  0.4032170000000 1.0
C      1  0.5108590000000  0.4779600000000  0.5964510000000 1.0
C      1  0.5960310000000  0.5101080000000  0.4269610000000 1.0
C      1  0.4039250000000  0.4899010000000  0.5728640000000 1.0
C      1  0.4444710000000  0.5586900000000  0.5760480000000 1.0
C      1  0.5555220000000  0.4416090000000  0.4234890000000 1.0
C      1  0.5923130000000  0.4542530000000  0.4591860000000 1.0
C      1  0.4068520000000  0.5460230000000  0.5412070000000 1.0
C      1  0.5200080000000  0.5997050000000  0.4744520000000 1.0
C      1  0.4802400000000  0.3997960000000  0.5250840000000 1.0
C      1  0.5326160000000  0.4883110000000  0.4231480000000 1.0
C      1  0.4664690000000  0.5125890000000  0.5789950000000 1.0
C      1  0.4633160000000  0.4710210000000  0.6056720000000 1.0
C      1  0.5365060000000  0.5288290000000  0.3954230000000 1.0
C      1  0.4726490000000  0.6010130000000  0.5433620000000 1.0
C      1  0.5270460000000  0.3990340000000  0.4561410000000 1.0
C      1  0.5571580000000  0.5061970000000  0.4355320000000 1.0
C      1  0.4430690000000  0.4940050000000  0.5659010000000 1.0
C      1  0.5447960000000  0.5262490000000  0.5549270000000 1.0
C      1  0.4551400000000  0.4739970000000  0.4451990000000 1.0
C      1  0.4486370000000  0.5771950000000  0.4556050000000 1.0
C      1  0.5506310000000  0.4228580000000  0.5437990000000 1.0
C      1  0.5242990000000  0.4072360000000  0.5577370000000 1.0
C      1  0.4752670000000  0.5921710000000  0.4420280000000 1.0
C      1  0.5896040000000  0.4439150000000  0.5197550000000 1.0
C      1  0.4104030000000  0.5556440000000  0.4802100000000 1.0
C      1  0.4797810000000  0.4375190000000  0.4933770000000 1.0
C      1  0.5198530000000  0.5619440000000  0.5056720000000 1.0
C      1  0.5090080000000  0.5320060000000  0.4928440000000 1.0
C      1  0.4906510000000  0.4670380000000  0.5070240000000 1.0
C      1  0.4722370000000  0.4940830000000  0.4995550000000 1.0
C      1  0.5275590000000  0.5056930000000  0.5002920000000 1.0
C      1  0.5837810000000  0.5345290000000  0.4252610000000 1.0
C      1  0.4163840000000  0.4655850000000  0.5747480000000 1.0
C      1  0.5668980000000  0.4309010000000  0.4559030000000 1.0
C      1  0.4329130000000  0.5686260000000  0.5434860000000 1.0
C      1  0.4212780000000  0.4778710000000  0.4506100000000 1.0
C      1  0.5784990000000  0.5214310000000  0.5495990000000 1.0
C      1  0.5379240000000  0.4608370000000  0.4054120000000 1.0
C      1  0.4619260000000  0.5405210000000  0.5949480000000 1.0
C      1  0.4424020000000  0.4577060000000  0.5208490000000 1.0
C      1  0.5582650000000  0.5424330000000  0.4794290000000 1.0
C      1  0.5286080000000  0.5087890000000  0.5785660000000 1.0
C      1  0.4705660000000  0.4914380000000  0.4212650000000 1.0
END
