TITL C-2782233-7966-1262 -0.00270681433696288 125000 -1005.30748433282 0 0 174 (C1) n - 1
REM
REM in /home/nfs/bkarasulu/CARBON/AIRSS/Generating-Clusters/REBO/Higher-Symm/SD-CG/HFTN-CG
REM
REM
REM
REM
REM
REM ./C.cell (12c818d87b63d06a65506943cc24bca4)
REM
REM compiler GCC version 9.2.1 20190827 (Red Hat 9.2.1-1)
REM options -cpp -mtune=generic -march=x86-64 -g -O0 -fpre-include=/usr/include/finclude/math-vector-fortran.h
REM seed -467687995 -265503014 -1406451805 1857113425 665876570 -523395832 425570483 -1804363086 272066889 225748066 138412902 426171056 444581478 -1318338575 -652365947 -1588511512 -941959491 -131418934 -14760956 -1103372466 1050799004 -1477938151 -2092972545 -2033765477 -52222584 -1188780426 -1840167847 314999596 -466851549 1110526504 -364967257 1746760776 736473316
REM
CELL 1.54180   50.00000   50.00000   50.00000   90.00000   90.00000   90.00000
LATT -1
SFAC C  
C      1  0.4714430000000  0.5908320000000  0.4233480000000 1.0
C      1  0.4691580000000  0.3892570000000  0.4589450000000 1.0
C      1  0.4689620000000  0.5211100000000  0.6151660000000 1.0
C      1  0.5184120000000  0.4217500000000  0.5673400000000 1.0
C      1  0.5206880000000  0.5900300000000  0.5289010000000 1.0
C      1  0.5163450000000  0.4791760000000  0.3905700000000 1.0
C      1  0.5083900000000  0.5305590000000  0.5608780000000 1.0
C      1  0.5132950000000  0.5347000000000  0.4395730000000 1.0
C      1  0.5141140000000  0.4318850000000  0.4992180000000 1.0
C      1  0.5885550000000  0.4989390000000  0.4581630000000 1.0
C      1  0.5966770000000  0.4555850000000  0.5240940000000 1.0
C      1  0.5820370000000  0.5341340000000  0.5179150000000 1.0
C      1  0.4213670000000  0.5388510000000  0.5657100000000 1.0
C      1  0.4252060000000  0.5385380000000  0.4350970000000 1.0
C      1  0.4245520000000  0.4246240000000  0.4987770000000 1.0
C      1  0.5304560000000  0.4516300000000  0.5653020000000 1.0
C      1  0.5167540000000  0.5664240000000  0.5060280000000 1.0
C      1  0.5271280000000  0.4732210000000  0.4224920000000 1.0
C      1  0.4976170000000  0.4847620000000  0.5412410000000 1.0
C      1  0.5037890000000  0.5430190000000  0.4922100000000 1.0
C      1  0.5039720000000  0.4739790000000  0.4687120000000 1.0
C      1  0.4424180000000  0.5958970000000  0.4961830000000 1.0
C      1  0.4410870000000  0.4540760000000  0.4202280000000 1.0
C      1  0.4428840000000  0.4537580000000  0.5846600000000 1.0
C      1  0.5056810000000  0.4449940000000  0.5851740000000 1.0
C      1  0.5017330000000  0.5955590000000  0.5028460000000 1.0
C      1  0.5044540000000  0.4540330000000  0.4066200000000 1.0
C      1  0.4868880000000  0.5686550000000  0.4120200000000 1.0
C      1  0.4865440000000  0.3914120000000  0.4824640000000 1.0
C      1  0.4863130000000  0.5412610000000  0.6028810000000 1.0
C      1  0.4374800000000  0.5924860000000  0.5283100000000 1.0
C      1  0.4424030000000  0.4779120000000  0.4004570000000 1.0
C      1  0.4427270000000  0.4286440000000  0.5661020000000 1.0
C      1  0.4721230000000  0.4461250000000  0.5261110000000 1.0
C      1  0.4658230000000  0.5478260000000  0.5341240000000 1.0
C      1  0.4698920000000  0.5038750000000  0.4394280000000 1.0
C      1  0.4582740000000  0.4858600000000  0.5474140000000 1.0
C      1  0.4650290000000  0.5516270000000  0.4960960000000 1.0
C      1  0.4625360000000  0.4714050000000  0.4581810000000 1.0
C      1  0.5141900000000  0.5285780000000  0.6003150000000 1.0
C      1  0.5147530000000  0.5717180000000  0.4245340000000 1.0
C      1  0.5128700000000  0.4023520000000  0.4723000000000 1.0
C      1  0.5536250000000  0.4404280000000  0.4270830000000 1.0
C      1  0.5580380000000  0.4636070000000  0.5916480000000 1.0
C      1  0.5547100000000  0.6007630000000  0.4811850000000 1.0
C      1  0.4781170000000  0.5212010000000  0.4873710000000 1.0
C      1  0.4766360000000  0.4805110000000  0.4880290000000 1.0
C      1  0.4758450000000  0.4993950000000  0.5212280000000 1.0
C      1  0.5420520000000  0.5537770000000  0.4873290000000 1.0
C      1  0.5437050000000  0.4710990000000  0.4679580000000 1.0
C      1  0.5433220000000  0.4803220000000  0.5584830000000 1.0
C      1  0.4465080000000  0.5396030000000  0.4715870000000 1.0
C      1  0.4449420000000  0.4571180000000  0.4816100000000 1.0
C      1  0.4304820000000  0.5047200000000  0.5475910000000 1.0
C      1  0.5064070000000  0.5005400000000  0.5892340000000 1.0
C      1  0.5021670000000  0.5799610000000  0.4550910000000 1.0
C      1  0.5050820000000  0.4258020000000  0.4521000000000 1.0
C      1  0.4677740000000  0.4925030000000  0.4104850000000 1.0
C      1  0.4687730000000  0.4285890000000  0.5506010000000 1.0
C      1  0.4633040000000  0.5784180000000  0.5386570000000 1.0
C      1  0.5058310000000  0.5048190000000  0.4104910000000 1.0
C      1  0.5059620000000  0.4216870000000  0.5370090000000 1.0
C      1  0.5031640000000  0.5701780000000  0.5484940000000 1.0
C      1  0.4328580000000  0.4666130000000  0.5583100000000 1.0
C      1  0.4342910000000  0.5651860000000  0.4994670000000 1.0
C      1  0.4311560000000  0.4672690000000  0.4457470000000 1.0
C      1  0.4636100000000  0.4297620000000  0.4278860000000 1.0
C      1  0.4661560000000  0.4740900000000  0.5974860000000 1.0
C      1  0.4696880000000  0.5976740000000  0.4756190000000 1.0
C      1  0.5609700000000  0.4447450000000  0.4560750000000 1.0
C      1  0.5695870000000  0.4889710000000  0.5747930000000 1.0
C      1  0.5652930000000  0.5722580000000  0.4709000000000 1.0
C      1  0.5393990000000  0.4058240000000  0.4828720000000 1.0
C      1  0.5462690000000  0.5336530000000  0.5902180000000 1.0
C      1  0.5408160000000  0.5592520000000  0.4242730000000 1.0
C      1  0.4815830000000  0.4021400000000  0.5354100000000 1.0
C      1  0.4799430000000  0.5808110000000  0.5660720000000 1.0
C      1  0.4816030000000  0.5179370000000  0.3951550000000 1.0
C      1  0.5292380000000  0.5507400000000  0.5716080000000 1.0
C      1  0.5367100000000  0.5290250000000  0.4178070000000 1.0
C      1  0.5366390000000  0.4131790000000  0.5129850000000 1.0
C      1  0.4419240000000  0.4013170000000  0.5067750000000 1.0
C      1  0.4417650000000  0.5552830000000  0.5828960000000 1.0
C      1  0.4421470000000  0.5424080000000  0.4104500000000 1.0
C      1  0.5558030000000  0.5989230000000  0.5099200000000 1.0
C      1  0.5649390000000  0.4597900000000  0.4098040000000 1.0
C      1  0.5668180000000  0.4398360000000  0.5762180000000 1.0
C      1  0.4792440000000  0.5356550000000  0.4430320000000 1.0
C      1  0.4800170000000  0.4333060000000  0.4962660000000 1.0
C      1  0.4741220000000  0.5300200000000  0.5612960000000 1.0
C      1  0.5797450000000  0.5407540000000  0.5501220000000 1.0
C      1  0.5801810000000  0.5294120000000  0.4451150000000 1.0
C      1  0.5836420000000  0.4326200000000  0.5021920000000 1.0
C      1  0.4161630000000  0.5433020000000  0.4805610000000 1.0
C      1  0.4143480000000  0.4625290000000  0.4752430000000 1.0
C      1  0.4048560000000  0.4864860000000  0.5560600000000 1.0
C      1  0.4567380000000  0.4665530000000  0.5093640000000 1.0
C      1  0.4530230000000  0.5197900000000  0.5270450000000 1.0
C      1  0.4559280000000  0.5096520000000  0.4674510000000 1.0
C      1  0.5563830000000  0.4522610000000  0.5442970000000 1.0
C      1  0.5563190000000  0.5681140000000  0.5151000000000 1.0
C      1  0.5431180000000  0.4837110000000  0.4398730000000 1.0
C      1  0.5908070000000  0.5097350000000  0.5483280000000 1.0
C      1  0.5977040000000  0.5345510000000  0.4725090000000 1.0
C      1  0.6007310000000  0.4549500000000  0.4849430000000 1.0
C      1  0.4565790000000  0.4129840000000  0.4524740000000 1.0
C      1  0.4562450000000  0.5030710000000  0.5985800000000 1.0
C      1  0.4604810000000  0.5851160000000  0.4480700000000 1.0
C      1  0.5635410000000  0.4223080000000  0.4767480000000 1.0
C      1  0.5705020000000  0.5207270000000  0.5748430000000 1.0
C      1  0.5646120000000  0.5588930000000  0.4424010000000 1.0
C      1  0.3935220000000  0.5112500000000  0.4874750000000 1.0
C      1  0.3905380000000  0.4828550000000  0.5032590000000 1.0
C      1  0.3903050000000  0.5117170000000  0.5213190000000 1.0
C      1  0.5378180000000  0.5031750000000  0.3982600000000 1.0
C      1  0.5356980000000  0.4060770000000  0.5447250000000 1.0
C      1  0.5339480000000  0.5791340000000  0.5582580000000 1.0
C      1  0.4279570000000  0.5148260000000  0.5089890000000 1.0
C      1  0.4307690000000  0.4985670000000  0.4806110000000 1.0
C      1  0.4298770000000  0.4815190000000  0.5094920000000 1.0
C      1  0.5038550000000  0.4522860000000  0.5220960000000 1.0
C      1  0.4979300000000  0.5429660000000  0.5322740000000 1.0
C      1  0.5025860000000  0.5032830000000  0.4443250000000 1.0
C      1  0.5877710000000  0.4764370000000  0.5496170000000 1.0
C      1  0.5835390000000  0.5517790000000  0.4910610000000 1.0
C      1  0.5828410000000  0.4665140000000  0.4620840000000 1.0
C      1  0.4849250000000  0.5558730000000  0.4686530000000 1.0
C      1  0.4842320000000  0.4467540000000  0.4662020000000 1.0
C      1  0.4818470000000  0.4985440000000  0.5676220000000 1.0
C      1  0.6118340000000  0.4787290000000  0.5036860000000 1.0
C      1  0.6038430000000  0.5082670000000  0.5173330000000 1.0
C      1  0.6094920000000  0.5066950000000  0.4842730000000 1.0
C      1  0.4726960000000  0.5949450000000  0.5104480000000 1.0
C      1  0.4746920000000  0.4591120000000  0.4138070000000 1.0
C      1  0.4758220000000  0.4467000000000  0.5788000000000 1.0
C      1  0.4133580000000  0.5431430000000  0.5134730000000 1.0
C      1  0.4093960000000  0.4904260000000  0.4574540000000 1.0
C      1  0.4129890000000  0.4659810000000  0.5312770000000 1.0
C      1  0.5235050000000  0.4456880000000  0.4717810000000 1.0
C      1  0.5207520000000  0.4993240000000  0.5592890000000 1.0
C      1  0.5236320000000  0.5558930000000  0.4599940000000 1.0
C      1  0.4998130000000  0.4718650000000  0.6023830000000 1.0
C      1  0.5035130000000  0.6047100000000  0.4732420000000 1.0
C      1  0.4965670000000  0.4267140000000  0.4218340000000 1.0
C      1  0.5600470000000  0.5098490000000  0.4305910000000 1.0
C      1  0.5627260000000  0.4276390000000  0.5250160000000 1.0
C      1  0.5682360000000  0.5665460000000  0.5425300000000 1.0
C      1  0.5644830000000  0.4864990000000  0.4062410000000 1.0
C      1  0.5652810000000  0.4159210000000  0.5570180000000 1.0
C      1  0.5575160000000  0.5971310000000  0.5421420000000 1.0
C      1  0.5333720000000  0.6143280000000  0.4701550000000 1.0
C      1  0.5304320000000  0.4274910000000  0.4212840000000 1.0
C      1  0.5334940000000  0.4666590000000  0.6036840000000 1.0
C      1  0.5346630000000  0.4891970000000  0.4892200000000 1.0
C      1  0.5327010000000  0.5105060000000  0.5153250000000 1.0
C      1  0.5377790000000  0.5229650000000  0.4857510000000 1.0
C      1  0.4469110000000  0.5170560000000  0.5731090000000 1.0
C      1  0.4520560000000  0.5561530000000  0.4463930000000 1.0
C      1  0.4516270000000  0.4272880000000  0.4782730000000 1.0
C      1  0.5642640000000  0.5086240000000  0.5118370000000 1.0
C      1  0.5744020000000  0.4881070000000  0.4871410000000 1.0
C      1  0.5749930000000  0.4796840000000  0.5189250000000 1.0
C      1  0.4039530000000  0.5339660000000  0.5431070000000 1.0
C      1  0.4063020000000  0.5229220000000  0.4580330000000 1.0
C      1  0.4042530000000  0.4515220000000  0.5033900000000 1.0
C      1  0.4833950000000  0.6089810000000  0.5768350000000 1.0
C      1  0.4831360000000  0.5156280000000  0.3648710000000 1.0
C      1  0.4837480000000  0.3774490000000  0.5530700000000 1.0
C      1  0.5070590000000  0.4775550000000  0.5028850000000 1.0
C      1  0.5059330000000  0.5133660000000  0.5249430000000 1.0
C      1  0.5079640000000  0.5145220000000  0.4736170000000 1.0
C      1  0.4707250000000  0.3961280000000  0.5075420000000 1.0
C      1  0.4702190000000  0.5604670000000  0.5868310000000 1.0
C      1  0.4707620000000  0.5448190000000  0.4047900000000 1.0
END
