TITL C-2782237-5345-56 -1.40052884332422 125000 -184.207734609917 0 0 34 (C1) n - 1
REM
REM in /home/nfs/bkarasulu/CARBON/AIRSS/Generating-Clusters/REBO/Higher-Symm/SD-CG/HFTN-CG
REM
REM
REM
REM
REM
REM ./C.cell (12c818d87b63d06a65506943cc24bca4)
REM
REM compiler GCC version 9.2.1 20190827 (Red Hat 9.2.1-1)
REM options -cpp -mtune=generic -march=x86-64 -g -O0 -fpre-include=/usr/include/finclude/math-vector-fortran.h
REM seed -418569837 -1193430374 1972245010 788541429 531414768 -1567941376 323205790 947585639 -643226347 -804718950 755171653 1823412762 763691253 1157101398 1652906893 -1777906982 -2037668867 -323408667 -1281332622 -717880659 -1204228753 -375986040 -692682209 17402096 -508929366 -1201604873 -1512445378 1665769602 1936787830 -2013714544 -2009707469 -1790226168 598776526
REM
CELL 1.54180   50.00000   50.00000   50.00000   90.00000   90.00000   90.00000
LATT -1
SFAC C  
C      1  0.5689920000000  0.4200100000000  0.4220040000000 1.0
C      1  0.5153740000000  0.5207580000000  0.5063870000000 1.0
C      1  0.5174520000000  0.5700800000000  0.5338050000000 1.0
C      1  0.5462970000000  0.4678370000000  0.4311620000000 1.0
C      1  0.5438830000000  0.5699390000000  0.5436730000000 1.0
C      1  0.4953260000000  0.5356000000000  0.4506600000000 1.0
C      1  0.5244330000000  0.4988230000000  0.5707330000000 1.0
C      1  0.4833750000000  0.4634500000000  0.4631970000000 1.0
C      1  0.4320700000000  0.5032610000000  0.5298760000000 1.0
C      1  0.5217250000000  0.4855000000000  0.4428200000000 1.0
C      1  0.5913120000000  0.3729720000000  0.4129970000000 1.0
C      1  0.5802410000000  0.3963020000000  0.4174640000000 1.0
C      1  0.4787470000000  0.5048840000000  0.5427480000000 1.0
C      1  0.4527160000000  0.4955690000000  0.5470900000000 1.0
C      1  0.5483190000000  0.5101350000000  0.5759000000000 1.0
C      1  0.4846160000000  0.5118520000000  0.4600920000000 1.0
C      1  0.4473720000000  0.4785750000000  0.5686400000000 1.0
C      1  0.5635700000000  0.5319900000000  0.5712460000000 1.0
C      1  0.4432510000000  0.5476480000000  0.5074160000000 1.0
C      1  0.4840640000000  0.5230880000000  0.5195310000000 1.0
C      1  0.5003560000000  0.4981470000000  0.5589650000000 1.0
C      1  0.5012910000000  0.5915830000000  0.5380530000000 1.0
C      1  0.4610990000000  0.5290660000000  0.5015640000000 1.0
C      1  0.4423810000000  0.4838470000000  0.4760640000000 1.0
C      1  0.4593270000000  0.5128930000000  0.4765280000000 1.0
C      1  0.4972340000000  0.4869460000000  0.4552660000000 1.0
C      1  0.4423630000000  0.4626470000000  0.5888400000000 1.0
C      1  0.5471450000000  0.5002100000000  0.4290750000000 1.0
C      1  0.5616770000000  0.5556520000000  0.5581930000000 1.0
C      1  0.4277370000000  0.5089990000000  0.4642100000000 1.0
C      1  0.5577420000000  0.4437170000000  0.4265430000000 1.0
C      1  0.4577040000000  0.4609040000000  0.4726590000000 1.0
C      1  0.5080910000000  0.5466430000000  0.5228600000000 1.0
C      1  0.4127190000000  0.5104720000000  0.5137410000000 1.0
END
