TITL C-2782231-7322-1082 0.00299973281645292 125000 -332.767866691161 0 0 56 (C3i) n - 1
REM
REM in /home/nfs/bkarasulu/CARBON/AIRSS/Generating-Clusters/REBO/Higher-Symm/SD-CG/HFTN-CG
REM
REM
REM
REM
REM
REM ./C.cell (12c818d87b63d06a65506943cc24bca4)
REM
REM compiler GCC version 9.2.1 20190827 (Red Hat 9.2.1-1)
REM options -cpp -mtune=generic -march=x86-64 -g -O0 -fpre-include=/usr/include/finclude/math-vector-fortran.h
REM seed 273687802 -894657044 1726962375 -1849426409 -1883940908 987111280 251835554 -2035154031 -2089417238 -2002750657 -1476147558 -1457484248 34476840 1088450895 -1836737260 1207914571 1828951030 -131517091 1241113726 1921971455 1011268228 827802303 -2099086909 1210941760 572930411 -906625622 -1156528127 -765972561 -389384657 -697059772 -421342710 -487244123 1552296419
REM
CELL 1.54180   50.00000   50.00000   50.00000   90.00000   90.00000   90.00000
LATT -1
SFAC C  
C      1  0.5431000000000  0.5485730000000  0.5175600000000 1.0
C      1  0.5068730000000  0.4514540000000  0.5468020000000 1.0
C      1  0.4634290000000  0.5485600000000  0.5299950000000 1.0
C      1  0.4562680000000  0.4514270000000  0.4840230000000 1.0
C      1  0.4924950000000  0.5485460000000  0.4547800000000 1.0
C      1  0.5359390000000  0.4514400000000  0.4715880000000 1.0
C      1  0.5002620000000  0.5050120000000  0.5281700000000 1.0
C      1  0.4762630000000  0.4949950000000  0.5149840000000 1.0
C      1  0.4756820000000  0.5049960000000  0.4876010000000 1.0
C      1  0.4991060000000  0.4949880000000  0.4734120000000 1.0
C      1  0.5231050000000  0.5050050000000  0.4865980000000 1.0
C      1  0.5236860000000  0.4950040000000  0.5139810000000 1.0
C      1  0.4633590000000  0.5305320000000  0.4842200000000 1.0
C      1  0.4958740000000  0.4694450000000  0.4610650000000 1.0
C      1  0.5321810000000  0.5305440000000  0.4776110000000 1.0
C      1  0.5360090000000  0.4694680000000  0.5173620000000 1.0
C      1  0.5034940000000  0.5305550000000  0.5405180000000 1.0
C      1  0.4671870000000  0.4694560000000  0.5239720000000 1.0
C      1  0.5501020000000  0.5008230000000  0.4574460000000 1.0
C      1  0.5624310000000  0.4991930000000  0.5227830000000 1.0
C      1  0.5120120000000  0.5008450000000  0.5661270000000 1.0
C      1  0.4492660000000  0.4991770000000  0.5441360000000 1.0
C      1  0.4369370000000  0.5008070000000  0.4788000000000 1.0
C      1  0.4873560000000  0.4991550000000  0.4354550000000 1.0
C      1  0.4785110000000  0.4566650000000  0.5487340000000 1.0
C      1  0.4475750000000  0.5433350000000  0.5064020000000 1.0
C      1  0.4687740000000  0.4566380000000  0.4584940000000 1.0
C      1  0.5208570000000  0.5433350000000  0.4528490000000 1.0
C      1  0.5517930000000  0.4566650000000  0.4951810000000 1.0
C      1  0.5305940000000  0.5433620000000  0.5430890000000 1.0
C      1  0.4409610000000  0.4733340000000  0.4941450000000 1.0
C      1  0.4760770000000  0.5266330000000  0.4465970000000 1.0
C      1  0.5348150000000  0.4733420000000  0.4532650000000 1.0
C      1  0.5584070000000  0.5266660000000  0.5074370000000 1.0
C      1  0.5232910000000  0.4733670000000  0.5549850000000 1.0
C      1  0.4645530000000  0.5266580000000  0.5483170000000 1.0
C      1  0.5702590000000  0.4798550000000  0.4995640000000 1.0
C      1  0.5360330000000  0.5201820000000  0.5612860000000 1.0
C      1  0.4654700000000  0.4798510000000  0.5625290000000 1.0
C      1  0.4291090000000  0.5201450000000  0.5020180000000 1.0
C      1  0.4633350000000  0.4798180000000  0.4402970000000 1.0
C      1  0.5338980000000  0.5201490000000  0.4390530000000 1.0
C      1  0.4529670000000  0.5056380000000  0.4547030000000 1.0
C      1  0.5162390000000  0.4943270000000  0.4372920000000 1.0
C      1  0.5629530000000  0.5056670000000  0.4833760000000 1.0
C      1  0.5464010000000  0.4943620000000  0.5468790000000 1.0
C      1  0.4831290000000  0.5056730000000  0.5642900000000 1.0
C      1  0.4364150000000  0.4943330000000  0.5182070000000 1.0
C      1  0.5149280000000  0.4329930000000  0.4769190000000 1.0
C      1  0.5279760000000  0.5670100000000  0.5020190000000 1.0
C      1  0.5127710000000  0.4330060000000  0.5259450000000 1.0
C      1  0.4844400000000  0.5670070000000  0.5246630000000 1.0
C      1  0.4713920000000  0.4329900000000  0.4995640000000 1.0
C      1  0.4865970000000  0.5669940000000  0.4756370000000 1.0
C      1  0.4996700000000  0.5709830000000  0.5007720000000 1.0
C      1  0.4996980000000  0.4290170000000  0.5008100000000 1.0
END
