TITL C-2782237-5345-132 0.00116895867786083 125000 -1080.87958242688 0 0 185 (C1) n - 1
REM
REM in /home/nfs/bkarasulu/CARBON/AIRSS/Generating-Clusters/REBO/Higher-Symm/SD-CG/HFTN-CG
REM
REM
REM
REM
REM
REM ./C.cell (12c818d87b63d06a65506943cc24bca4)
REM
REM compiler GCC version 9.2.1 20190827 (Red Hat 9.2.1-1)
REM options -cpp -mtune=generic -march=x86-64 -g -O0 -fpre-include=/usr/include/finclude/math-vector-fortran.h
REM seed 1755068906 1156727686 1457537762 -1419160053 830101623 -1675789270 -1096356058 1686804686 -527769230 -2087571824 1303575306 -972135918 1159807158 -760492955 1670338091 -36407857 755609610 -942132587 -1745152447 1363213698 299818122 -833891476 -160804317 -89134408 173449191 -1869524367 1699171621 1146657518 757340662 -1685900994 440430162 -938250506 306456707
REM
CELL 1.54180   50.00000   50.00000   50.00000   90.00000   90.00000   90.00000
LATT -1
SFAC C  
C      1  0.5220970000000  0.5576400000000  0.5243410000000 1.0
C      1  0.4133590000000  0.4676030000000  0.4678680000000 1.0
C      1  0.5082630000000  0.5045730000000  0.5558770000000 1.0
C      1  0.4675490000000  0.4060590000000  0.4871660000000 1.0
C      1  0.4841000000000  0.5090550000000  0.5975490000000 1.0
C      1  0.4825650000000  0.5999320000000  0.5269530000000 1.0
C      1  0.5524700000000  0.4231790000000  0.4725180000000 1.0
C      1  0.4488390000000  0.4422880000000  0.4183490000000 1.0
C      1  0.4446320000000  0.4111920000000  0.4722930000000 1.0
C      1  0.4738260000000  0.5390840000000  0.5346410000000 1.0
C      1  0.5009920000000  0.5331680000000  0.5226760000000 1.0
C      1  0.4164900000000  0.5419670000000  0.5699600000000 1.0
C      1  0.4498310000000  0.5193390000000  0.5406100000000 1.0
C      1  0.5299030000000  0.5185140000000  0.5233650000000 1.0
C      1  0.6090600000000  0.5382500000000  0.5044680000000 1.0
C      1  0.5271780000000  0.5650690000000  0.5756190000000 1.0
C      1  0.4987890000000  0.4111140000000  0.5243730000000 1.0
C      1  0.5023230000000  0.4408490000000  0.4325180000000 1.0
C      1  0.4997440000000  0.5674040000000  0.6039800000000 1.0
C      1  0.6064760000000  0.4866220000000  0.4866680000000 1.0
C      1  0.4923060000000  0.4895550000000  0.4253900000000 1.0
C      1  0.4356740000000  0.4560490000000  0.3905660000000 1.0
C      1  0.5695630000000  0.5487390000000  0.5365870000000 1.0
C      1  0.4987900000000  0.5078200000000  0.4624120000000 1.0
C      1  0.4975950000000  0.4606600000000  0.5978040000000 1.0
C      1  0.4634040000000  0.4722440000000  0.5340440000000 1.0
C      1  0.5725040000000  0.4392630000000  0.5485420000000 1.0
C      1  0.4613980000000  0.4763830000000  0.4350270000000 1.0
C      1  0.4677450000000  0.5656950000000  0.4199500000000 1.0
C      1  0.5793880000000  0.4243250000000  0.5208630000000 1.0
C      1  0.4830170000000  0.4592640000000  0.4518280000000 1.0
C      1  0.6058050000000  0.4600160000000  0.5017820000000 1.0
C      1  0.5908910000000  0.5157480000000  0.4771720000000 1.0
C      1  0.5188440000000  0.4908410000000  0.5083210000000 1.0
C      1  0.4734040000000  0.4444250000000  0.4775220000000 1.0
C      1  0.4882960000000  0.4831100000000  0.5829570000000 1.0
C      1  0.4383250000000  0.4522560000000  0.5211790000000 1.0
C      1  0.4222130000000  0.4857820000000  0.5740410000000 1.0
C      1  0.4232460000000  0.5330970000000  0.4311830000000 1.0
C      1  0.4495680000000  0.5693140000000  0.5443990000000 1.0
C      1  0.4578310000000  0.5770260000000  0.4466290000000 1.0
C      1  0.4536450000000  0.4723890000000  0.4754610000000 1.0
C      1  0.4537520000000  0.5577050000000  0.4743900000000 1.0
C      1  0.5185010000000  0.4695000000000  0.4339210000000 1.0
C      1  0.5560890000000  0.4768560000000  0.4870520000000 1.0
C      1  0.4024980000000  0.5429100000000  0.4771740000000 1.0
C      1  0.5495580000000  0.5078900000000  0.5495420000000 1.0
C      1  0.4357740000000  0.5343680000000  0.4033960000000 1.0
C      1  0.5696760000000  0.5389270000000  0.4865370000000 1.0
C      1  0.3997490000000  0.5137780000000  0.4347510000000 1.0
C      1  0.5330250000000  0.4443200000000  0.5001050000000 1.0
C      1  0.4504210000000  0.4088250000000  0.5352120000000 1.0
C      1  0.4859800000000  0.5220950000000  0.3966380000000 1.0
C      1  0.5224960000000  0.5465910000000  0.6029860000000 1.0
C      1  0.4576420000000  0.5869920000000  0.5235880000000 1.0
C      1  0.4112990000000  0.5538220000000  0.5145880000000 1.0
C      1  0.4732790000000  0.5554500000000  0.5619380000000 1.0
C      1  0.5066290000000  0.4505170000000  0.5487910000000 1.0
C      1  0.5902200000000  0.5585040000000  0.5143790000000 1.0
C      1  0.4016480000000  0.4370970000000  0.4774180000000 1.0
C      1  0.5550790000000  0.4187400000000  0.5050190000000 1.0
C      1  0.5308730000000  0.5279780000000  0.4497870000000 1.0
C      1  0.5354540000000  0.5573710000000  0.4958900000000 1.0
C      1  0.4210620000000  0.4452640000000  0.5427090000000 1.0
C      1  0.4674390000000  0.4170150000000  0.4241400000000 1.0
C      1  0.4717820000000  0.5243870000000  0.4524250000000 1.0
C      1  0.4497140000000  0.4780890000000  0.5910020000000 1.0
C      1  0.5565850000000  0.5620580000000  0.4393480000000 1.0
C      1  0.5372780000000  0.4897640000000  0.6022500000000 1.0
C      1  0.5224860000000  0.5889790000000  0.4381230000000 1.0
C      1  0.4565020000000  0.4466730000000  0.5795010000000 1.0
C      1  0.5347690000000  0.3958590000000  0.5167240000000 1.0
C      1  0.4239530000000  0.5572060000000  0.5459870000000 1.0
C      1  0.5877550000000  0.4625100000000  0.5288070000000 1.0
C      1  0.5402430000000  0.4407430000000  0.5891730000000 1.0
C      1  0.5305230000000  0.3779880000000  0.4908280000000 1.0
C      1  0.5195610000000  0.6117030000000  0.4541110000000 1.0
C      1  0.5221370000000  0.4055370000000  0.5467500000000 1.0
C      1  0.4930230000000  0.5483710000000  0.4172470000000 1.0
C      1  0.5127170000000  0.5139640000000  0.6052910000000 1.0
C      1  0.5658780000000  0.4812800000000  0.5849410000000 1.0
C      1  0.6083430000000  0.4822910000000  0.4554860000000 1.0
C      1  0.5494840000000  0.5902800000000  0.5055480000000 1.0
C      1  0.5920390000000  0.5266080000000  0.5800620000000 1.0
C      1  0.5455100000000  0.4723560000000  0.4045290000000 1.0
C      1  0.4882790000000  0.4771120000000  0.5520700000000 1.0
C      1  0.4666230000000  0.5320180000000  0.5802010000000 1.0
C      1  0.4254400000000  0.5775020000000  0.4547550000000 1.0
C      1  0.4389160000000  0.4901190000000  0.5333070000000 1.0
C      1  0.4109280000000  0.5620150000000  0.4371110000000 1.0
C      1  0.3981090000000  0.5023470000000  0.5038300000000 1.0
C      1  0.4696730000000  0.4021740000000  0.5150890000000 1.0
C      1  0.4330190000000  0.5349360000000  0.4642110000000 1.0
C      1  0.5602680000000  0.5145070000000  0.5813170000000 1.0
C      1  0.4660870000000  0.5199970000000  0.4238710000000 1.0
C      1  0.4801430000000  0.4523090000000  0.4094200000000 1.0
C      1  0.4693870000000  0.5942810000000  0.4717460000000 1.0
C      1  0.5534400000000  0.5719480000000  0.4638810000000 1.0
C      1  0.5579310000000  0.5267850000000  0.5153470000000 1.0
C      1  0.6202810000000  0.4595330000000  0.4454090000000 1.0
C      1  0.5397280000000  0.5306780000000  0.4801100000000 1.0
C      1  0.5535150000000  0.5437150000000  0.4197770000000 1.0
C      1  0.4829860000000  0.4377950000000  0.5316260000000 1.0
C      1  0.3818140000000  0.4268780000000  0.4926640000000 1.0
C      1  0.4849290000000  0.4371660000000  0.5878460000000 1.0
C      1  0.5241510000000  0.5793330000000  0.4767850000000 1.0
C      1  0.5802240000000  0.5221490000000  0.5481450000000 1.0
C      1  0.5169090000000  0.5572210000000  0.4386770000000 1.0
C      1  0.4505850000000  0.5040440000000  0.5686200000000 1.0
C      1  0.5369060000000  0.4542450000000  0.5385980000000 1.0
C      1  0.3893670000000  0.5312310000000  0.5054330000000 1.0
C      1  0.4447470000000  0.5102130000000  0.4845750000000 1.0
C      1  0.5259740000000  0.5900040000000  0.5539640000000 1.0
C      1  0.4549210000000  0.5078890000000  0.3952020000000 1.0
C      1  0.4747640000000  0.4586900000000  0.5061840000000 1.0
C      1  0.4662740000000  0.5528860000000  0.5045880000000 1.0
C      1  0.5926200000000  0.4931450000000  0.5726900000000 1.0
C      1  0.3966770000000  0.4980930000000  0.5621160000000 1.0
C      1  0.5477280000000  0.4540950000000  0.4642980000000 1.0
C      1  0.5158080000000  0.4176880000000  0.4985170000000 1.0
C      1  0.5022100000000  0.4229910000000  0.5682270000000 1.0
C      1  0.4962650000000  0.5689390000000  0.5058510000000 1.0
C      1  0.4939590000000  0.5744760000000  0.5721250000000 1.0
C      1  0.5294590000000  0.6094450000000  0.4871720000000 1.0
C      1  0.4963220000000  0.5765240000000  0.4667650000000 1.0
C      1  0.4939170000000  0.6158910000000  0.4711280000000 1.0
C      1  0.5179450000000  0.5300060000000  0.5596740000000 1.0
C      1  0.5001370000000  0.5392430000000  0.4890320000000 1.0
C      1  0.5411380000000  0.4285900000000  0.5578960000000 1.0
C      1  0.5052780000000  0.4790530000000  0.4616940000000 1.0
C      1  0.4917070000000  0.5467930000000  0.4595980000000 1.0
C      1  0.5722870000000  0.5719530000000  0.4909860000000 1.0
C      1  0.6035550000000  0.5073860000000  0.5137940000000 1.0
C      1  0.5176160000000  0.4671900000000  0.4871110000000 1.0
C      1  0.4068050000000  0.4865640000000  0.5372270000000 1.0
C      1  0.3958900000000  0.4917280000000  0.4768350000000 1.0
C      1  0.5279750000000  0.4831140000000  0.5401280000000 1.0
C      1  0.4393090000000  0.5375710000000  0.5148910000000 1.0
C      1  0.4353250000000  0.4556760000000  0.4442160000000 1.0
C      1  0.4474840000000  0.5862640000000  0.4943120000000 1.0
C      1  0.4560460000000  0.4774850000000  0.4014060000000 1.0
C      1  0.5053150000000  0.5199790000000  0.4313910000000 1.0
C      1  0.6082080000000  0.5287740000000  0.4437800000000 1.0
C      1  0.5723450000000  0.5017380000000  0.5006580000000 1.0
C      1  0.4353100000000  0.5331050000000  0.5910040000000 1.0
C      1  0.5508920000000  0.4685290000000  0.4366360000000 1.0
C      1  0.4879670000000  0.4035860000000  0.4344100000000 1.0
C      1  0.4701230000000  0.4917040000000  0.4978950000000 1.0
C      1  0.5476890000000  0.5019050000000  0.4653850000000 1.0
C      1  0.4941800000000  0.4192180000000  0.4763680000000 1.0
C      1  0.6018330000000  0.4320140000000  0.5071390000000 1.0
C      1  0.4514450000000  0.5080990000000  0.6076140000000 1.0
C      1  0.4270570000000  0.4306470000000  0.4632540000000 1.0
C      1  0.5991580000000  0.4879720000000  0.5399410000000 1.0
C      1  0.6128590000000  0.5151390000000  0.5554240000000 1.0
C      1  0.4578610000000  0.4317250000000  0.5504110000000 1.0
C      1  0.5520180000000  0.5163090000000  0.4149510000000 1.0
C      1  0.3931340000000  0.5254750000000  0.5674840000000 1.0
C      1  0.5163090000000  0.4409010000000  0.4639380000000 1.0
C      1  0.4991680000000  0.6009760000000  0.5005160000000 1.0
C      1  0.6140000000000  0.5390700000000  0.4727070000000 1.0
C      1  0.5251810000000  0.4608010000000  0.6023960000000 1.0
C      1  0.5101350000000  0.3968210000000  0.4473370000000 1.0
C      1  0.5071580000000  0.4996380000000  0.3959510000000 1.0
C      1  0.5403230000000  0.5531600000000  0.5481670000000 1.0
C      1  0.5248070000000  0.3523340000000  0.4912860000000 1.0
C      1  0.4318000000000  0.4577120000000  0.4944760000000 1.0
C      1  0.5652340000000  0.4992810000000  0.4372850000000 1.0
C      1  0.4960060000000  0.5061070000000  0.4939090000000 1.0
C      1  0.5340980000000  0.3951530000000  0.4659010000000 1.0
C      1  0.4275680000000  0.5070250000000  0.5099200000000 1.0
C      1  0.4937050000000  0.4707140000000  0.3901740000000 1.0
C      1  0.4271970000000  0.4549300000000  0.5676710000000 1.0
C      1  0.5445150000000  0.5231400000000  0.6060760000000 1.0
C      1  0.3921640000000  0.5147400000000  0.4609060000000 1.0
C      1  0.4487290000000  0.5589400000000  0.4008680000000 1.0
C      1  0.5957450000000  0.5026670000000  0.4399290000000 1.0
C      1  0.5589390000000  0.4589500000000  0.5159220000000 1.0
C      1  0.4185060000000  0.5717140000000  0.4865780000000 1.0
C      1  0.5657700000000  0.4522070000000  0.5778600000000 1.0
C      1  0.5649860000000  0.4008140000000  0.4527160000000 1.0
C      1  0.5369810000000  0.4983580000000  0.3988010000000 1.0
C      1  0.5443360000000  0.5930940000000  0.5340810000000 1.0
C      1  0.4517680000000  0.4994820000000  0.4549460000000 1.0
C      1  0.4973330000000  0.5976640000000  0.5503570000000 1.0
END
