TITL C-2782239-8622-387 -0.00771351334544628 125000 -730.794409712678 0 0 119 (C1) n - 1
REM
REM in /home/nfs/bkarasulu/CARBON/AIRSS/Generating-Clusters/REBO/Higher-Symm/SD-CG/HFTN-CG
REM
REM
REM
REM
REM
REM ./C.cell (12c818d87b63d06a65506943cc24bca4)
REM
REM compiler GCC version 9.2.1 20190827 (Red Hat 9.2.1-1)
REM options -cpp -mtune=generic -march=x86-64 -g -O0 -fpre-include=/usr/include/finclude/math-vector-fortran.h
REM seed -942361810 -496425666 -959017454 920229829 -694880928 -614784311 30324933 -834284002 -666477406 -1243733508 -1844515997 -2137446516 -2103786572 2052552220 -438750088 -374722551 432636268 2005924635 345524810 -610232180 291336335 -733756349 2035079507 49583374 -427486227 -2095623899 -1565012615 1517673003 -2129345720 542140529 1573177404 615628209 -569222653
REM
CELL 1.54180   50.00000   50.00000   50.00000   90.00000   90.00000   90.00000
LATT -1
SFAC C  
C      1  0.5152600000000  0.4352530000000  0.5499700000000 1.0
C      1  0.5342050000000  0.4408090000000  0.4667340000000 1.0
C      1  0.4479170000000  0.4336390000000  0.4863360000000 1.0
C      1  0.5147780000000  0.5624030000000  0.5512550000000 1.0
C      1  0.5352130000000  0.5603120000000  0.4617290000000 1.0
C      1  0.4490890000000  0.5654530000000  0.4861890000000 1.0
C      1  0.4470780000000  0.5527990000000  0.5664900000000 1.0
C      1  0.5811620000000  0.5528320000000  0.5079590000000 1.0
C      1  0.4710150000000  0.5535070000000  0.4305870000000 1.0
C      1  0.4527810000000  0.4484240000000  0.5584940000000 1.0
C      1  0.5764710000000  0.4441480000000  0.5127830000000 1.0
C      1  0.4693470000000  0.4483770000000  0.4254210000000 1.0
C      1  0.5080280000000  0.4150600000000  0.5307340000000 1.0
C      1  0.5218540000000  0.4191380000000  0.4832010000000 1.0
C      1  0.4713890000000  0.4172870000000  0.4909150000000 1.0
C      1  0.5073620000000  0.5829220000000  0.5319570000000 1.0
C      1  0.5206470000000  0.5784860000000  0.4786970000000 1.0
C      1  0.4725340000000  0.5825290000000  0.4889630000000 1.0
C      1  0.4936950000000  0.4174060000000  0.4736680000000 1.0
C      1  0.4772740000000  0.4163160000000  0.5231350000000 1.0
C      1  0.5305100000000  0.4112990000000  0.5113290000000 1.0
C      1  0.4934730000000  0.5802710000000  0.4692400000000 1.0
C      1  0.4774130000000  0.5850870000000  0.5225490000000 1.0
C      1  0.5302810000000  0.5829290000000  0.5084690000000 1.0
C      1  0.5643120000000  0.4767290000000  0.4623090000000 1.0
C      1  0.4254150000000  0.4724720000000  0.4572070000000 1.0
C      1  0.5000600000000  0.4749950000000  0.5746220000000 1.0
C      1  0.5699010000000  0.5259490000000  0.4579730000000 1.0
C      1  0.4247910000000  0.5294590000000  0.4566310000000 1.0
C      1  0.5007920000000  0.5278700000000  0.5831130000000 1.0
C      1  0.4304960000000  0.5138180000000  0.4315350000000 1.0
C      1  0.4758550000000  0.5150920000000  0.5906890000000 1.0
C      1  0.5904000000000  0.5139410000000  0.4748380000000 1.0
C      1  0.4313010000000  0.4848080000000  0.4320000000000 1.0
C      1  0.4760220000000  0.4854600000000  0.5866710000000 1.0
C      1  0.5876490000000  0.4844590000000  0.4768860000000 1.0
C      1  0.4736040000000  0.5532830000000  0.5158560000000 1.0
C      1  0.5227240000000  0.5509780000000  0.5137580000000 1.0
C      1  0.4923590000000  0.5363080000000  0.4763950000000 1.0
C      1  0.4814430000000  0.4476940000000  0.5147290000000 1.0
C      1  0.5284060000000  0.4508260000000  0.5104440000000 1.0
C      1  0.4979030000000  0.4569840000000  0.4705050000000 1.0
C      1  0.5275600000000  0.4887540000000  0.4982730000000 1.0
C      1  0.4634580000000  0.4792800000000  0.4670030000000 1.0
C      1  0.5065750000000  0.4812600000000  0.5241470000000 1.0
C      1  0.5385630000000  0.5205890000000  0.4935530000000 1.0
C      1  0.4585040000000  0.5131910000000  0.4705200000000 1.0
C      1  0.4806470000000  0.5232830000000  0.5409240000000 1.0
C      1  0.5558240000000  0.5152370000000  0.4327780000000 1.0
C      1  0.4167510000000  0.5178030000000  0.4835770000000 1.0
C      1  0.5290290000000  0.5173140000000  0.5837100000000 1.0
C      1  0.5574160000000  0.4824860000000  0.4328000000000 1.0
C      1  0.4230470000000  0.4865440000000  0.4839560000000 1.0
C      1  0.5292040000000  0.4849920000000  0.5792850000000 1.0
C      1  0.5534380000000  0.5363350000000  0.5736180000000 1.0
C      1  0.5354840000000  0.5347710000000  0.4157280000000 1.0
C      1  0.4142020000000  0.5379400000000  0.5091370000000 1.0
C      1  0.5526830000000  0.4614640000000  0.5720790000000 1.0
C      1  0.5356600000000  0.4622080000000  0.4196900000000 1.0
C      1  0.4195470000000  0.4681450000000  0.5097460000000 1.0
C      1  0.4931010000000  0.5677420000000  0.4418320000000 1.0
C      1  0.4501950000000  0.5708400000000  0.5378010000000 1.0
C      1  0.5548100000000  0.5641850000000  0.5229120000000 1.0
C      1  0.4910990000000  0.4349590000000  0.4450260000000 1.0
C      1  0.4502620000000  0.4327990000000  0.5347920000000 1.0
C      1  0.5563860000000  0.4269610000000  0.5259690000000 1.0
C      1  0.4540970000000  0.4841510000000  0.4975770000000 1.0
C      1  0.5315000000000  0.4825790000000  0.5457370000000 1.0
C      1  0.5284410000000  0.4900560000000  0.4473420000000 1.0
C      1  0.4455610000000  0.5144630000000  0.5016320000000 1.0
C      1  0.5319140000000  0.5124540000000  0.5505060000000 1.0
C      1  0.5254700000000  0.5182840000000  0.4501810000000 1.0
C      1  0.4470340000000  0.4657620000000  0.4167800000000 1.0
C      1  0.4556190000000  0.4646640000000  0.5854490000000 1.0
C      1  0.5955940000000  0.4608530000000  0.4927230000000 1.0
C      1  0.4444300000000  0.5400350000000  0.4234590000000 1.0
C      1  0.4557140000000  0.5362790000000  0.5869530000000 1.0
C      1  0.5990240000000  0.5343060000000  0.4935270000000 1.0
C      1  0.5449540000000  0.4384500000000  0.5547450000000 1.0
C      1  0.5235500000000  0.4429640000000  0.4381060000000 1.0
C      1  0.4349340000000  0.4430960000000  0.5112460000000 1.0
C      1  0.5443640000000  0.5562920000000  0.5539410000000 1.0
C      1  0.5222630000000  0.5557090000000  0.4342560000000 1.0
C      1  0.4329420000000  0.5604270000000  0.5103980000000 1.0
C      1  0.4558200000000  0.4793740000000  0.5485100000000 1.0
C      1  0.5751080000000  0.4754530000000  0.5233620000000 1.0
C      1  0.4845800000000  0.4759190000000  0.4260080000000 1.0
C      1  0.4326800000000  0.5356620000000  0.5443070000000 1.0
C      1  0.5715280000000  0.5261870000000  0.5213900000000 1.0
C      1  0.4809980000000  0.5242010000000  0.4252460000000 1.0
C      1  0.5740540000000  0.4825500000000  0.5732240000000 1.0
C      1  0.5254970000000  0.4809030000000  0.3988710000000 1.0
C      1  0.4102960000000  0.4849120000000  0.5300680000000 1.0
C      1  0.5752800000000  0.5166220000000  0.5711070000000 1.0
C      1  0.5227360000000  0.5151180000000  0.3977240000000 1.0
C      1  0.4053170000000  0.5183460000000  0.5344110000000 1.0
C      1  0.5896560000000  0.5175540000000  0.5438520000000 1.0
C      1  0.4916450000000  0.5155860000000  0.3988690000000 1.0
C      1  0.4171220000000  0.5160860000000  0.5667950000000 1.0
C      1  0.5885150000000  0.4877720000000  0.5469790000000 1.0
C      1  0.4957770000000  0.4859390000000  0.4001760000000 1.0
C      1  0.4285790000000  0.4913400000000  0.5523950000000 1.0
C      1  0.4966030000000  0.5406780000000  0.5575820000000 1.0
C      1  0.5501410000000  0.5392360000000  0.4734960000000 1.0
C      1  0.4488550000000  0.5455540000000  0.4660450000000 1.0
C      1  0.4993700000000  0.4596000000000  0.5499930000000 1.0
C      1  0.5422790000000  0.4668080000000  0.4767470000000 1.0
C      1  0.4463580000000  0.4510690000000  0.4640520000000 1.0
C      1  0.4545120000000  0.5300810000000  0.5246960000000 1.0
C      1  0.5397940000000  0.5273660000000  0.5268200000000 1.0
C      1  0.4997860000000  0.5275830000000  0.4515930000000 1.0
C      1  0.4641960000000  0.4689090000000  0.5196740000000 1.0
C      1  0.5450690000000  0.4653050000000  0.5253910000000 1.0
C      1  0.5046250000000  0.4760420000000  0.4499550000000 1.0
C      1  0.4831880000000  0.4951230000000  0.5421450000000 1.0
C      1  0.5592420000000  0.4980890000000  0.5077940000000 1.0
C      1  0.4719230000000  0.5001830000000  0.4430750000000 1.0
C      1  0.5035130000000  0.4516740000000  0.4974230000000 1.0
C      1  0.4967720000000  0.5440100000000  0.5015050000000 1.0
END
