TITL C-2782225-7408-797 0.00146795829357675 125000 -905.276003248964 0 0 158 (C1) n - 1
REM
REM in /home/nfs/bkarasulu/CARBON/AIRSS/Generating-Clusters/REBO/Higher-Symm/SD-CG/HFTN-CG
REM
REM
REM
REM
REM
REM ./C.cell (12c818d87b63d06a65506943cc24bca4)
REM
REM compiler GCC version 9.2.1 20190827 (Red Hat 9.2.1-1)
REM options -cpp -mtune=generic -march=x86-64 -g -O0 -fpre-include=/usr/include/finclude/math-vector-fortran.h
REM seed 1919910093 -4402891 1481183741 -654047476 148349503 -1070223590 68267584 -1720618862 -1008474611 -1059046677 1482233648 1929028398 1270435385 -1197649754 1691428921 26425027 -1097310304 -1207064558 1794113815 992279382 776049253 -215702204 -1750142205 1843195729 -1090889545 585783407 -2003555187 546996618 -1453262115 -1386579973 -172647798 -1441437099 -771459360
REM
CELL 1.54180   50.00000   50.00000   50.00000   90.00000   90.00000   90.00000
LATT -1
SFAC C  
C      1  0.5256630000000  0.4432610000000  0.4747830000000 1.0
C      1  0.5588050000000  0.4968660000000  0.5314020000000 1.0
C      1  0.5360860000000  0.5579270000000  0.4758750000000 1.0
C      1  0.4482030000000  0.5694340000000  0.5365850000000 1.0
C      1  0.4279120000000  0.4938750000000  0.4679160000000 1.0
C      1  0.4700110000000  0.4406350000000  0.5299230000000 1.0
C      1  0.4203700000000  0.5648970000000  0.5048590000000 1.0
C      1  0.4044680000000  0.4603430000000  0.4938670000000 1.0
C      1  0.4837350000000  0.3968600000000  0.5018330000000 1.0
C      1  0.5670630000000  0.4419460000000  0.4938950000000 1.0
C      1  0.6027850000000  0.5361350000000  0.5028200000000 1.0
C      1  0.5231240000000  0.6027530000000  0.4984660000000 1.0
C      1  0.4835120000000  0.4967380000000  0.5230710000000 1.0
C      1  0.4913040000000  0.4692770000000  0.4808770000000 1.0
C      1  0.5239400000000  0.4850630000000  0.5223520000000 1.0
C      1  0.5211410000000  0.5129670000000  0.4775230000000 1.0
C      1  0.5073940000000  0.5324040000000  0.5096190000000 1.0
C      1  0.4699890000000  0.5167320000000  0.4773170000000 1.0
C      1  0.4449940000000  0.4250770000000  0.5468460000000 1.0
C      1  0.5358110000000  0.4123340000000  0.4515920000000 1.0
C      1  0.5837540000000  0.4879770000000  0.5472050000000 1.0
C      1  0.5594590000000  0.5743710000000  0.4530450000000 1.0
C      1  0.4649690000000  0.5907320000000  0.5512270000000 1.0
C      1  0.4036910000000  0.5128980000000  0.4534610000000 1.0
C      1  0.5172130000000  0.5582510000000  0.4511730000000 1.0
C      1  0.4488100000000  0.5436750000000  0.5533310000000 1.0
C      1  0.4434580000000  0.4802820000000  0.4462080000000 1.0
C      1  0.4923930000000  0.4472470000000  0.5489870000000 1.0
C      1  0.5360960000000  0.4606040000000  0.4534080000000 1.0
C      1  0.5477420000000  0.5241050000000  0.5441430000000 1.0
C      1  0.5919020000000  0.4831580000000  0.5142290000000 1.0
C      1  0.5695220000000  0.5761830000000  0.4864220000000 1.0
C      1  0.4731410000000  0.5912400000000  0.5176520000000 1.0
C      1  0.4020520000000  0.5163530000000  0.4879770000000 1.0
C      1  0.4378940000000  0.4240820000000  0.5132120000000 1.0
C      1  0.5343260000000  0.4059270000000  0.4852190000000 1.0
C      1  0.5094150000000  0.4126590000000  0.5045190000000 1.0
C      1  0.5707880000000  0.4689720000000  0.4924910000000 1.0
C      1  0.5771370000000  0.5516090000000  0.5073360000000 1.0
C      1  0.5004690000000  0.5823750000000  0.5010330000000 1.0
C      1  0.4221610000000  0.5331130000000  0.5096100000000 1.0
C      1  0.4331150000000  0.4474950000000  0.4912420000000 1.0
C      1  0.5201050000000  0.4414920000000  0.6095420000000 1.0
C      1  0.5611170000000  0.4877920000000  0.3950950000000 1.0
C      1  0.5423610000000  0.5435990000000  0.6079140000000 1.0
C      1  0.4819800000000  0.5573740000000  0.3915430000000 1.0
C      1  0.4393860000000  0.5076720000000  0.6043580000000 1.0
C      1  0.4629510000000  0.4487900000000  0.3913570000000 1.0
C      1  0.5617630000000  0.4497060000000  0.5409660000000 1.0
C      1  0.5706600000000  0.5217580000000  0.4546800000000 1.0
C      1  0.5155350000000  0.5840590000000  0.5464690000000 1.0
C      1  0.4477370000000  0.5445310000000  0.4596940000000 1.0
C      1  0.4324350000000  0.4780300000000  0.5441600000000 1.0
C      1  0.4830900000000  0.4263900000000  0.4515340000000 1.0
C      1  0.4812750000000  0.5595380000000  0.5903140000000 1.0
C      1  0.4372780000000  0.5092010000000  0.4077600000000 1.0
C      1  0.4627980000000  0.4542930000000  0.5873650000000 1.0
C      1  0.5234700000000  0.4448310000000  0.4133850000000 1.0
C      1  0.5544960000000  0.4909990000000  0.5858390000000 1.0
C      1  0.5389250000000  0.5483160000000  0.4113040000000 1.0
C      1  0.4793250000000  0.4714040000000  0.5649030000000 1.0
C      1  0.5125700000000  0.4673050000000  0.4348390000000 1.0
C      1  0.5343160000000  0.5019610000000  0.5624660000000 1.0
C      1  0.5226040000000  0.5338360000000  0.4346300000000 1.0
C      1  0.4761500000000  0.5406800000000  0.5646870000000 1.0
C      1  0.4578330000000  0.5026170000000  0.4304210000000 1.0
C      1  0.4547950000000  0.4146860000000  0.4635740000000 1.0
C      1  0.5509100000000  0.4187670000000  0.5343690000000 1.0
C      1  0.5942540000000  0.5019170000000  0.4663010000000 1.0
C      1  0.5484610000000  0.5868700000000  0.5384580000000 1.0
C      1  0.4555240000000  0.5750650000000  0.4691550000000 1.0
C      1  0.4053850000000  0.4933480000000  0.5336540000000 1.0
C      1  0.5109170000000  0.4708030000000  0.6057470000000 1.0
C      1  0.5313410000000  0.4944770000000  0.3956380000000 1.0
C      1  0.5198650000000  0.5228600000000  0.6042740000000 1.0
C      1  0.4897130000000  0.5275140000000  0.3939450000000 1.0
C      1  0.4699280000000  0.5042720000000  0.6014620000000 1.0
C      1  0.4819150000000  0.4738800000000  0.3939140000000 1.0
C      1  0.5546470000000  0.5537850000000  0.5861000000000 1.0
C      1  0.4820670000000  0.5727290000000  0.4138570000000 1.0
C      1  0.4201230000000  0.5102590000000  0.5838170000000 1.0
C      1  0.4497490000000  0.4367780000000  0.4136020000000 1.0
C      1  0.5234500000000  0.4266190000000  0.5871150000000 1.0
C      1  0.5752880000000  0.4818500000000  0.4188720000000 1.0
C      1  0.5218750000000  0.4058210000000  0.5421480000000 1.0
C      1  0.5870000000000  0.4712870000000  0.4569130000000 1.0
C      1  0.5739930000000  0.5669860000000  0.5421630000000 1.0
C      1  0.4803440000000  0.5934580000000  0.4579080000000 1.0
C      1  0.4042590000000  0.5250350000000  0.5423100000000 1.0
C      1  0.4286730000000  0.4332660000000  0.4560720000000 1.0
C      1  0.4497670000000  0.4323250000000  0.5773980000000 1.0
C      1  0.5376280000000  0.4237410000000  0.4266470000000 1.0
C      1  0.5797700000000  0.4851210000000  0.5741660000000 1.0
C      1  0.5533910000000  0.5688620000000  0.4238630000000 1.0
C      1  0.4743100000000  0.5850010000000  0.5768630000000 1.0
C      1  0.4123410000000  0.5131210000000  0.4205670000000 1.0
C      1  0.4789430000000  0.5106780000000  0.5716880000000 1.0
C      1  0.4765950000000  0.4799630000000  0.4239830000000 1.0
C      1  0.5092990000000  0.4735340000000  0.5737110000000 1.0
C      1  0.5183190000000  0.4954250000000  0.4258350000000 1.0
C      1  0.5103970000000  0.5219020000000  0.5724550000000 1.0
C      1  0.4958740000000  0.5201650000000  0.4249180000000 1.0
C      1  0.4109630000000  0.4884670000000  0.5671590000000 1.0
C      1  0.4610570000000  0.4154300000000  0.4297620000000 1.0
C      1  0.5430730000000  0.4351710000000  0.5638420000000 1.0
C      1  0.5881820000000  0.5029600000000  0.4328030000000 1.0
C      1  0.5371310000000  0.5698560000000  0.5662480000000 1.0
C      1  0.4643710000000  0.5626890000000  0.4380340000000 1.0
C      1  0.4537210000000  0.5456810000000  0.5137320000000 1.0
C      1  0.4386070000000  0.4805220000000  0.4940250000000 1.0
C      1  0.4849940000000  0.4366530000000  0.5027580000000 1.0
C      1  0.5291060000000  0.4504000000000  0.5031500000000 1.0
C      1  0.5672220000000  0.5187670000000  0.5072340000000 1.0
C      1  0.5286480000000  0.5638700000000  0.5055120000000 1.0
C      1  0.5355320000000  0.5137000000000  0.5063860000000 1.0
C      1  0.4968650000000  0.5368590000000  0.4779800000000 1.0
C      1  0.4739080000000  0.5258770000000  0.5084940000000 1.0
C      1  0.4672180000000  0.4888570000000  0.4950500000000 1.0
C      1  0.4950180000000  0.4674320000000  0.5140760000000 1.0
C      1  0.5225860000000  0.4806280000000  0.4885130000000 1.0
C      1  0.5317900000000  0.4940860000000  0.6059970000000 1.0
C      1  0.5225440000000  0.5251070000000  0.3956640000000 1.0
C      1  0.4884300000000  0.5318880000000  0.6042320000000 1.0
C      1  0.4669420000000  0.5043360000000  0.3917490000000 1.0
C      1  0.4792180000000  0.4749830000000  0.6046920000000 1.0
C      1  0.5127140000000  0.4684350000000  0.3949130000000 1.0
C      1  0.5563280000000  0.4847260000000  0.4660380000000 1.0
C      1  0.5489270000000  0.5493180000000  0.5251480000000 1.0
C      1  0.4945080000000  0.5679950000000  0.4741190000000 1.0
C      1  0.4376060000000  0.5167900000000  0.5357800000000 1.0
C      1  0.4544870000000  0.4545640000000  0.4654470000000 1.0
C      1  0.5157920000000  0.4364200000000  0.5280440000000 1.0
C      1  0.5555240000000  0.4192060000000  0.5032830000000 1.0
C      1  0.5969300000000  0.5074540000000  0.4950200000000 1.0
C      1  0.5500380000000  0.5932260000000  0.5071260000000 1.0
C      1  0.4497710000000  0.5766730000000  0.4991770000000 1.0
C      1  0.4067360000000  0.4896130000000  0.5037160000000 1.0
C      1  0.4605090000000  0.4144470000000  0.4932360000000 1.0
C      1  0.5071010000000  0.4188550000000  0.4652740000000 1.0
C      1  0.5857670000000  0.4538220000000  0.5271280000000 1.0
C      1  0.5671360000000  0.5463460000000  0.4691270000000 1.0
C      1  0.4990320000000  0.6030680000000  0.5350310000000 1.0
C      1  0.4285750000000  0.5279760000000  0.4704270000000 1.0
C      1  0.4386320000000  0.4538160000000  0.5303680000000 1.0
C      1  0.5074850000000  0.5539350000000  0.5606830000000 1.0
C      1  0.4699610000000  0.5291840000000  0.4399140000000 1.0
C      1  0.4583890000000  0.4947580000000  0.5517640000000 1.0
C      1  0.4821230000000  0.4577610000000  0.4456180000000 1.0
C      1  0.5380700000000  0.4682960000000  0.5573880000000 1.0
C      1  0.5423630000000  0.5086230000000  0.4460580000000 1.0
C      1  0.5057930000000  0.4211280000000  0.5634560000000 1.0
C      1  0.5650990000000  0.4592930000000  0.4369020000000 1.0
C      1  0.5667790000000  0.5438310000000  0.5605090000000 1.0
C      1  0.4993760000000  0.5816010000000  0.4369490000000 1.0
C      1  0.4206520000000  0.5341560000000  0.5672510000000 1.0
C      1  0.4332990000000  0.4525340000000  0.4318320000000 1.0
C      1  0.4940920000000  0.4985130000000  0.4671340000000 1.0
C      1  0.5089660000000  0.5123670000000  0.5358120000000 1.0
END
