TITL C-2782238-9940-879 0.00278124133950498 125000 -811.312689460289 0 0 143 (C1) n - 1
REM
REM in /home/nfs/bkarasulu/CARBON/AIRSS/Generating-Clusters/REBO/Higher-Symm/SD-CG/HFTN-CG
REM
REM
REM
REM
REM
REM ./C.cell (12c818d87b63d06a65506943cc24bca4)
REM
REM compiler GCC version 9.2.1 20190827 (Red Hat 9.2.1-1)
REM options -cpp -mtune=generic -march=x86-64 -g -O0 -fpre-include=/usr/include/finclude/math-vector-fortran.h
REM seed 1057346442 -663920670 1090361544 -1770478953 1625656624 2000496494 1074892106 1993727372 449397579 -326289670 -753866035 -881378372 -1315534676 1328011513 -1764355249 1120415130 -1070480892 -1843144953 61414768 566902389 -181594214 -1582804525 -515034103 1099056110 1059104112 343104098 2132920481 -170671313 -1089059461 -1187663579 1491356635 -422192952 180809152
REM
CELL 1.54180   50.00000   50.00000   50.00000   90.00000   90.00000   90.00000
LATT -1
SFAC C  
C      1  0.4834660000000  0.4329880000000  0.5708620000000 1.0
C      1  0.5306820000000  0.5670740000000  0.5672420000000 1.0
C      1  0.5599080000000  0.4337810000000  0.5341660000000 1.0
C      1  0.5729750000000  0.5664240000000  0.4921070000000 1.0
C      1  0.5560840000000  0.4325480000000  0.4512830000000 1.0
C      1  0.5170100000000  0.5650340000000  0.4286050000000 1.0
C      1  0.4708500000000  0.4355920000000  0.4337090000000 1.0
C      1  0.4371580000000  0.5668460000000  0.4628430000000 1.0
C      1  0.4259580000000  0.4339430000000  0.5053520000000 1.0
C      1  0.4469590000000  0.5655780000000  0.5467440000000 1.0
C      1  0.5348500000000  0.4270890000000  0.5130580000000 1.0
C      1  0.5394130000000  0.5637020000000  0.4909880000000 1.0
C      1  0.5288420000000  0.4286930000000  0.4716670000000 1.0
C      1  0.5058380000000  0.5676140000000  0.4603350000000 1.0
C      1  0.4792000000000  0.4347440000000  0.4660940000000 1.0
C      1  0.4636090000000  0.5661400000000  0.4829230000000 1.0
C      1  0.4590810000000  0.4284220000000  0.5072850000000 1.0
C      1  0.4752130000000  0.5735540000000  0.5300560000000 1.0
C      1  0.4931460000000  0.4335090000000  0.5389420000000 1.0
C      1  0.5186090000000  0.5692430000000  0.5353590000000 1.0
C      1  0.4357810000000  0.4395590000000  0.5375940000000 1.0
C      1  0.4734550000000  0.5578180000000  0.5667170000000 1.0
C      1  0.5171030000000  0.4388240000000  0.5703080000000 1.0
C      1  0.5554440000000  0.5585220000000  0.5462590000000 1.0
C      1  0.5704660000000  0.4419970000000  0.5026050000000 1.0
C      1  0.5644700000000  0.5614220000000  0.4599100000000 1.0
C      1  0.5284720000000  0.4408220000000  0.4337170000000 1.0
C      1  0.4837950000000  0.5573160000000  0.4288110000000 1.0
C      1  0.4422970000000  0.4395230000000  0.4515940000000 1.0
C      1  0.4256010000000  0.5644150000000  0.4948670000000 1.0
C      1  0.4902370000000  0.4484520000000  0.3942270000000 1.0
C      1  0.4305450000000  0.5516320000000  0.4218730000000 1.0
C      1  0.3896970000000  0.4469600000000  0.4771360000000 1.0
C      1  0.3974170000000  0.5565780000000  0.5492610000000 1.0
C      1  0.4447260000000  0.4437450000000  0.5929030000000 1.0
C      1  0.5085320000000  0.5562450000000  0.5993890000000 1.0
C      1  0.5700190000000  0.4564370000000  0.5892560000000 1.0
C      1  0.6042310000000  0.5567630000000  0.5243970000000 1.0
C      1  0.6169540000000  0.4622610000000  0.4638690000000 1.0
C      1  0.5549250000000  0.5542160000000  0.4015090000000 1.0
C      1  0.5020430000000  0.4251840000000  0.4423740000000 1.0
C      1  0.4678110000000  0.5742890000000  0.4500000000000 1.0
C      1  0.4434410000000  0.4221230000000  0.4784420000000 1.0
C      1  0.4453860000000  0.5798180000000  0.5156760000000 1.0
C      1  0.4614170000000  0.4233800000000  0.5467800000000 1.0
C      1  0.4986700000000  0.5753830000000  0.5623520000000 1.0
C      1  0.5305050000000  0.4218880000000  0.5465010000000 1.0
C      1  0.5548030000000  0.5748190000000  0.5194480000000 1.0
C      1  0.5602060000000  0.4219440000000  0.4826570000000 1.0
C      1  0.5376470000000  0.5763910000000  0.4532010000000 1.0
C      1  0.4355330000000  0.5149490000000  0.5029960000000 1.0
C      1  0.4484080000000  0.4904370000000  0.5357670000000 1.0
C      1  0.4784860000000  0.5043780000000  0.5579370000000 1.0
C      1  0.5157400000000  0.4905420000000  0.5541940000000 1.0
C      1  0.5447260000000  0.5077990000000  0.5327390000000 1.0
C      1  0.5671310000000  0.4951470000000  0.5024170000000 1.0
C      1  0.5529260000000  0.5100930000000  0.4619810000000 1.0
C      1  0.5207380000000  0.4916940000000  0.4436660000000 1.0
C      1  0.4838860000000  0.5069990000000  0.4457200000000 1.0
C      1  0.4515930000000  0.4894610000000  0.4649380000000 1.0
C      1  0.4694300000000  0.4579600000000  0.4818900000000 1.0
C      1  0.4635630000000  0.5434290000000  0.5014110000000 1.0
C      1  0.4643290000000  0.4584570000000  0.5158080000000 1.0
C      1  0.4878920000000  0.5447050000000  0.5255010000000 1.0
C      1  0.5093760000000  0.4576160000000  0.5324830000000 1.0
C      1  0.5259430000000  0.5418120000000  0.5239270000000 1.0
C      1  0.5238000000000  0.4558130000000  0.5028170000000 1.0
C      1  0.5295270000000  0.5390110000000  0.4766830000000 1.0
C      1  0.5194760000000  0.4594980000000  0.4693330000000 1.0
C      1  0.4967310000000  0.5380820000000  0.4672740000000 1.0
C      1  0.4334180000000  0.5418340000000  0.5175520000000 1.0
C      1  0.4563050000000  0.4629070000000  0.5487160000000 1.0
C      1  0.4924870000000  0.5329720000000  0.5572430000000 1.0
C      1  0.5335700000000  0.4635260000000  0.5558250000000 1.0
C      1  0.5594530000000  0.5353730000000  0.5231770000000 1.0
C      1  0.5712450000000  0.4681420000000  0.4856430000000 1.0
C      1  0.5463440000000  0.5375720000000  0.4478130000000 1.0
C      1  0.5064650000000  0.4646010000000  0.4382510000000 1.0
C      1  0.4690060000000  0.5344950000000  0.4476820000000 1.0
C      1  0.4368730000000  0.4623860000000  0.4741310000000 1.0
C      1  0.5131890000000  0.5135930000000  0.5291640000000 1.0
C      1  0.5413980000000  0.4787360000000  0.5163190000000 1.0
C      1  0.5384050000000  0.5104800000000  0.4922000000000 1.0
C      1  0.5419260000000  0.4806950000000  0.4754900000000 1.0
C      1  0.5082110000000  0.5062210000000  0.4691580000000 1.0
C      1  0.4840810000000  0.4837650000000  0.4707950000000 1.0
C      1  0.4633290000000  0.5147000000000  0.4849250000000 1.0
C      1  0.4563320000000  0.4880710000000  0.5043850000000 1.0
C      1  0.4698640000000  0.5160480000000  0.5291570000000 1.0
C      1  0.4897920000000  0.4821730000000  0.5346500000000 1.0
C      1  0.5910130000000  0.4992640000000  0.5220670000000 1.0
C      1  0.5852440000000  0.5098620000000  0.4635930000000 1.0
C      1  0.5472220000000  0.4918120000000  0.4261770000000 1.0
C      1  0.4945190000000  0.5066350000000  0.4157980000000 1.0
C      1  0.4421920000000  0.4937310000000  0.4352860000000 1.0
C      1  0.4105100000000  0.5112270000000  0.4844070000000 1.0
C      1  0.4166320000000  0.4914780000000  0.5360920000000 1.0
C      1  0.4528980000000  0.5066450000000  0.5767970000000 1.0
C      1  0.5069840000000  0.4901990000000  0.5853350000000 1.0
C      1  0.5550120000000  0.5069260000000  0.5629090000000 1.0
C      1  0.4729680000000  0.4048760000000  0.4784970000000 1.0
C      1  0.4695930000000  0.5953750000000  0.4973320000000 1.0
C      1  0.4732540000000  0.4041560000000  0.5212650000000 1.0
C      1  0.4910400000000  0.5975480000000  0.5406910000000 1.0
C      1  0.5065420000000  0.4045950000000  0.5294760000000 1.0
C      1  0.5259490000000  0.5923770000000  0.5151410000000 1.0
C      1  0.5410230000000  0.4009150000000  0.4973610000000 1.0
C      1  0.5277530000000  0.5935190000000  0.4809210000000 1.0
C      1  0.5064860000000  0.4063100000000  0.4704960000000 1.0
C      1  0.4888460000000  0.5931890000000  0.4689020000000 1.0
C      1  0.4091730000000  0.4632870000000  0.4839790000000 1.0
C      1  0.4165280000000  0.5401600000000  0.5418190000000 1.0
C      1  0.4571030000000  0.4620020000000  0.5783930000000 1.0
C      1  0.5100240000000  0.5363890000000  0.5822110000000 1.0
C      1  0.5608610000000  0.4676290000000  0.5672220000000 1.0
C      1  0.5883290000000  0.5377160000000  0.5151230000000 1.0
C      1  0.5921280000000  0.4705190000000  0.4641310000000 1.0
C      1  0.5444040000000  0.5371780000000  0.4185090000000 1.0
C      1  0.4886790000000  0.4655190000000  0.4143150000000 1.0
C      1  0.4403820000000  0.5345890000000  0.4395290000000 1.0
C      1  0.4742370000000  0.4850360000000  0.5922090000000 1.0
C      1  0.5302590000000  0.5122320000000  0.5844620000000 1.0
C      1  0.5791720000000  0.4879720000000  0.5494390000000 1.0
C      1  0.5996740000000  0.5161700000000  0.4937310000000 1.0
C      1  0.5766580000000  0.4858730000000  0.4409730000000 1.0
C      1  0.5271350000000  0.5119260000000  0.4100240000000 1.0
C      1  0.4671040000000  0.4889520000000  0.4142780000000 1.0
C      1  0.4214660000000  0.5129370000000  0.4530780000000 1.0
C      1  0.4052160000000  0.4872950000000  0.5043160000000 1.0
C      1  0.4251620000000  0.5138030000000  0.5582530000000 1.0
C      1  0.5687170000000  0.4647540000000  0.5282990000000 1.0
C      1  0.5880510000000  0.5419450000000  0.4748040000000 1.0
C      1  0.5565810000000  0.4599550000000  0.4316480000000 1.0
C      1  0.5052340000000  0.5381520000000  0.4115740000000 1.0
C      1  0.4510260000000  0.4617740000000  0.4272340000000 1.0
C      1  0.4165970000000  0.5418380000000  0.4708310000000 1.0
C      1  0.4134840000000  0.4600620000000  0.5233310000000 1.0
C      1  0.4461200000000  0.5389510000000  0.5681430000000 1.0
C      1  0.4957270000000  0.4586960000000  0.5880270000000 1.0
C      1  0.5486380000000  0.5387010000000  0.5727830000000 1.0
C      1  0.5010320000000  0.6059070000000  0.4976540000000 1.0
C      1  0.4968020000000  0.3931070000000  0.4997060000000 1.0
C      1  0.4917230000000  0.5023280000000  0.5072160000000 1.0
END
