TITL C-2782230-7391-693 -0.000873494216979135 125000 -1086.97165177832 0 0 181 (C1) n - 1
REM
REM in /home/nfs/bkarasulu/CARBON/AIRSS/Generating-Clusters/REBO/Higher-Symm/SD-CG/HFTN-CG
REM
REM
REM
REM
REM
REM ./C.cell (12c818d87b63d06a65506943cc24bca4)
REM
REM compiler GCC version 9.2.1 20190827 (Red Hat 9.2.1-1)
REM options -cpp -mtune=generic -march=x86-64 -g -O0 -fpre-include=/usr/include/finclude/math-vector-fortran.h
REM seed 794482633 -1117771093 -839299945 1601029270 -300923219 -1237105531 404805540 -1350652505 283730650 658406248 785782882 -1309471611 -406517634 975094651 -806172535 -326103268 990245272 -927136890 523407920 -433974722 1030569707 -2080074668 2020627450 -1556047751 -1013159508 1797979599 1725022500 -1501082830 1633909366 -709934891 -134061885 1145297227 1271020866
REM
CELL 1.54180   50.00000   50.00000   50.00000   90.00000   90.00000   90.00000
LATT -1
SFAC C  
C      1  0.4760390000000  0.5632390000000  0.5234830000000 1.0
C      1  0.5259730000000  0.4435150000000  0.5372310000000 1.0
C      1  0.5251700000000  0.5628700000000  0.5201170000000 1.0
C      1  0.4858780000000  0.4434840000000  0.5275110000000 1.0
C      1  0.4863920000000  0.4727870000000  0.5443160000000 1.0
C      1  0.5194720000000  0.5278790000000  0.5384420000000 1.0
C      1  0.5347370000000  0.4897400000000  0.5426860000000 1.0
C      1  0.4882900000000  0.5158940000000  0.5404480000000 1.0
C      1  0.4736900000000  0.5773870000000  0.4464580000000 1.0
C      1  0.5264140000000  0.4208050000000  0.4462490000000 1.0
C      1  0.5223060000000  0.5756270000000  0.4465340000000 1.0
C      1  0.4751850000000  0.4204390000000  0.4530460000000 1.0
C      1  0.4306840000000  0.5263280000000  0.5823900000000 1.0
C      1  0.5745150000000  0.4755710000000  0.5833300000000 1.0
C      1  0.5709400000000  0.5251760000000  0.5810410000000 1.0
C      1  0.4359650000000  0.4739000000000  0.5870150000000 1.0
C      1  0.4308580000000  0.5463500000000  0.5364750000000 1.0
C      1  0.5789240000000  0.4550430000000  0.5399650000000 1.0
C      1  0.5704420000000  0.5416380000000  0.5358960000000 1.0
C      1  0.4312630000000  0.4619880000000  0.5407510000000 1.0
C      1  0.5914000000000  0.5245080000000  0.5242250000000 1.0
C      1  0.4143620000000  0.4828860000000  0.5290200000000 1.0
C      1  0.4097660000000  0.5296850000000  0.5238200000000 1.0
C      1  0.5963000000000  0.4752510000000  0.5268430000000 1.0
C      1  0.5527500000000  0.4833190000000  0.4933530000000 1.0
C      1  0.4522280000000  0.5163740000000  0.4883890000000 1.0
C      1  0.4553460000000  0.4835620000000  0.4906510000000 1.0
C      1  0.5468580000000  0.5145780000000  0.4874840000000 1.0
C      1  0.4156390000000  0.4487360000000  0.4775760000000 1.0
C      1  0.5899380000000  0.5554710000000  0.4733060000000 1.0
C      1  0.5942780000000  0.4423010000000  0.4745490000000 1.0
C      1  0.4103450000000  0.5581170000000  0.4717380000000 1.0
C      1  0.5487540000000  0.4846450000000  0.5932130000000 1.0
C      1  0.4615520000000  0.5130500000000  0.5877700000000 1.0
C      1  0.4637540000000  0.4839200000000  0.5871010000000 1.0
C      1  0.5471810000000  0.5135790000000  0.5928330000000 1.0
C      1  0.4439810000000  0.5453340000000  0.4415920000000 1.0
C      1  0.5619030000000  0.4581730000000  0.4416740000000 1.0
C      1  0.5575850000000  0.5410460000000  0.4418220000000 1.0
C      1  0.4454250000000  0.4588610000000  0.4433020000000 1.0
C      1  0.5724870000000  0.4338770000000  0.4560990000000 1.0
C      1  0.4296010000000  0.5685940000000  0.4511520000000 1.0
C      1  0.4237310000000  0.4442570000000  0.4507410000000 1.0
C      1  0.5704150000000  0.5654680000000  0.4520230000000 1.0
C      1  0.5180270000000  0.5359550000000  0.4440200000000 1.0
C      1  0.4912760000000  0.4744810000000  0.4575170000000 1.0
C      1  0.4844400000000  0.5318180000000  0.4435300000000 1.0
C      1  0.5208820000000  0.4625350000000  0.4494430000000 1.0
C      1  0.5651760000000  0.5469580000000  0.5632470000000 1.0
C      1  0.4343390000000  0.4527250000000  0.5671790000000 1.0
C      1  0.4352510000000  0.5507770000000  0.5639800000000 1.0
C      1  0.5722990000000  0.4522820000000  0.5670310000000 1.0
C      1  0.5344410000000  0.4766520000000  0.5172850000000 1.0
C      1  0.4683060000000  0.5185080000000  0.5168520000000 1.0
C      1  0.4759340000000  0.4795610000000  0.5143080000000 1.0
C      1  0.5238740000000  0.5141990000000  0.5096310000000 1.0
C      1  0.5495620000000  0.5877040000000  0.4629300000000 1.0
C      1  0.4563750000000  0.4089820000000  0.4788030000000 1.0
C      1  0.4481640000000  0.5923780000000  0.4633190000000 1.0
C      1  0.5517380000000  0.4117260000000  0.4656760000000 1.0
C      1  0.4611290000000  0.4127560000000  0.5514310000000 1.0
C      1  0.5270550000000  0.5802940000000  0.5461240000000 1.0
C      1  0.5416940000000  0.4165500000000  0.5465910000000 1.0
C      1  0.4741970000000  0.5831020000000  0.5474380000000 1.0
C      1  0.4738280000000  0.4443210000000  0.4076970000000 1.0
C      1  0.5279580000000  0.5453410000000  0.4156130000000 1.0
C      1  0.5276850000000  0.4558020000000  0.4214080000000 1.0
C      1  0.4744710000000  0.5423490000000  0.4162800000000 1.0
C      1  0.5563980000000  0.4033150000000  0.4985320000000 1.0
C      1  0.4451230000000  0.5966600000000  0.4974060000000 1.0
C      1  0.4373590000000  0.4068570000000  0.5068580000000 1.0
C      1  0.5532220000000  0.5953620000000  0.4963640000000 1.0
C      1  0.5188200000000  0.5781920000000  0.4146470000000 1.0
C      1  0.4708560000000  0.4193290000000  0.4228540000000 1.0
C      1  0.4789130000000  0.5762840000000  0.4145960000000 1.0
C      1  0.5219330000000  0.4230020000000  0.4138450000000 1.0
C      1  0.5432150000000  0.4404550000000  0.4919710000000 1.0
C      1  0.4629090000000  0.5629480000000  0.4857830000000 1.0
C      1  0.4671450000000  0.4412690000000  0.4860790000000 1.0
C      1  0.5367500000000  0.5600430000000  0.4886750000000 1.0
C      1  0.4413530000000  0.4017080000000  0.5334560000000 1.0
C      1  0.5431890000000  0.5982850000000  0.5219250000000 1.0
C      1  0.5480230000000  0.3995390000000  0.5244700000000 1.0
C      1  0.4574050000000  0.5984590000000  0.5220050000000 1.0
C      1  0.5695460000000  0.5686320000000  0.4917120000000 1.0
C      1  0.4369440000000  0.4379130000000  0.4982210000000 1.0
C      1  0.4318600000000  0.5686750000000  0.4909930000000 1.0
C      1  0.5746820000000  0.4305670000000  0.4958990000000 1.0
C      1  0.4828390000000  0.5861460000000  0.4897890000000 1.0
C      1  0.5207390000000  0.4203420000000  0.4931240000000 1.0
C      1  0.5141700000000  0.5855560000000  0.4892840000000 1.0
C      1  0.4904850000000  0.4198030000000  0.4957800000000 1.0
C      1  0.4450200000000  0.5287830000000  0.4150010000000 1.0
C      1  0.5549840000000  0.4719390000000  0.4151930000000 1.0
C      1  0.5543250000000  0.5254350000000  0.4158160000000 1.0
C      1  0.4554650000000  0.4681370000000  0.4161980000000 1.0
C      1  0.5471540000000  0.4369240000000  0.5704380000000 1.0
C      1  0.4605990000000  0.5637160000000  0.5695560000000 1.0
C      1  0.4569990000000  0.4345410000000  0.5696430000000 1.0
C      1  0.5386860000000  0.5593580000000  0.5686080000000 1.0
C      1  0.4251660000000  0.4893010000000  0.4998280000000 1.0
C      1  0.5791410000000  0.5131060000000  0.4968180000000 1.0
C      1  0.5843630000000  0.4824430000000  0.4990790000000 1.0
C      1  0.4210780000000  0.5201800000000  0.4957340000000 1.0
C      1  0.5964930000000  0.5274200000000  0.4746650000000 1.0
C      1  0.4066950000000  0.4754660000000  0.4807730000000 1.0
C      1  0.4047980000000  0.5274520000000  0.4696180000000 1.0
C      1  0.6002490000000  0.4700070000000  0.4758880000000 1.0
C      1  0.5247470000000  0.3927930000000  0.4746550000000 1.0
C      1  0.4760930000000  0.6090420000000  0.4709120000000 1.0
C      1  0.4850610000000  0.3909740000000  0.4781720000000 1.0
C      1  0.5228970000000  0.6073490000000  0.4706930000000 1.0
C      1  0.5297870000000  0.4608020000000  0.5873590000000 1.0
C      1  0.4775610000000  0.5422220000000  0.5826540000000 1.0
C      1  0.4789970000000  0.4544450000000  0.5789860000000 1.0
C      1  0.5255110000000  0.5350000000000  0.5884850000000 1.0
C      1  0.5383640000000  0.5361240000000  0.4681980000000 1.0
C      1  0.4640840000000  0.4656510000000  0.4666120000000 1.0
C      1  0.4631660000000  0.5369490000000  0.4670550000000 1.0
C      1  0.5448930000000  0.4634270000000  0.4706500000000 1.0
C      1  0.4548780000000  0.5456160000000  0.5220150000000 1.0
C      1  0.5570370000000  0.4440960000000  0.5221300000000 1.0
C      1  0.5452950000000  0.5381970000000  0.5210570000000 1.0
C      1  0.4540200000000  0.4543460000000  0.5213130000000 1.0
C      1  0.5070140000000  0.3841170000000  0.5024800000000 1.0
C      1  0.4997810000000  0.6194290000000  0.4584390000000 1.0
C      1  0.3978260000000  0.5071780000000  0.5463420000000 1.0
C      1  0.6036700000000  0.5016880000000  0.5461800000000 1.0
C      1  0.4984270000000  0.6032550000000  0.4116570000000 1.0
C      1  0.4976670000000  0.4030130000000  0.4250820000000 1.0
C      1  0.4729820000000  0.4957710000000  0.4204720000000 1.0
C      1  0.5262700000000  0.4989520000000  0.3898820000000 1.0
C      1  0.6154550000000  0.5017020000000  0.5147310000000 1.0
C      1  0.3904640000000  0.5027810000000  0.5139720000000 1.0
C      1  0.5004120000000  0.4672120000000  0.5990250000000 1.0
C      1  0.4972210000000  0.5242100000000  0.6023240000000 1.0
C      1  0.5088220000000  0.4544440000000  0.5621080000000 1.0
C      1  0.5030110000000  0.5352500000000  0.5645820000000 1.0
C      1  0.5013220000000  0.5945420000000  0.5556740000000 1.0
C      1  0.4866050000000  0.4154710000000  0.5380950000000 1.0
C      1  0.5018680000000  0.3951330000000  0.5264570000000 1.0
C      1  0.5028670000000  0.6162710000000  0.5707230000000 1.0
C      1  0.5875830000000  0.5010840000000  0.5702490000000 1.0
C      1  0.4009850000000  0.5130420000000  0.5741750000000 1.0
C      1  0.5105490000000  0.4555470000000  0.5091390000000 1.0
C      1  0.4982190000000  0.5550930000000  0.5093540000000 1.0
C      1  0.5454890000000  0.4982150000000  0.4436860000000 1.0
C      1  0.4514470000000  0.5036690000000  0.4454260000000 1.0
C      1  0.4992300000000  0.6231150000000  0.4301980000000 1.0
C      1  0.5017460000000  0.3897060000000  0.4500770000000 1.0
C      1  0.4427450000000  0.4987110000000  0.4068570000000 1.0
C      1  0.5505150000000  0.4988680000000  0.4040420000000 1.0
C      1  0.4302560000000  0.5104750000000  0.4555150000000 1.0
C      1  0.5719140000000  0.4966210000000  0.4462610000000 1.0
C      1  0.5569050000000  0.4979620000000  0.5554270000000 1.0
C      1  0.4188490000000  0.4954500000000  0.5925430000000 1.0
C      1  0.5018940000000  0.4289680000000  0.4589960000000 1.0
C      1  0.4975150000000  0.5664620000000  0.4585470000000 1.0
C      1  0.5002060000000  0.5538130000000  0.3996900000000 1.0
C      1  0.5018470000000  0.4478320000000  0.4018010000000 1.0
C      1  0.5062170000000  0.4548850000000  0.4799360000000 1.0
C      1  0.4991960000000  0.5469790000000  0.4812330000000 1.0
C      1  0.3939120000000  0.4954010000000  0.4659360000000 1.0
C      1  0.5945180000000  0.4980400000000  0.4631600000000 1.0
C      1  0.4576590000000  0.5009560000000  0.3068330000000 1.0
C      1  0.4713000000000  0.5004110000000  0.3292030000000 1.0
C      1  0.4851610000000  0.4998570000000  0.3519360000000 1.0
C      1  0.4634470000000  0.4855080000000  0.7488880000000 1.0
C      1  0.5005260000000  0.5192230000000  0.4776400000000 1.0
C      1  0.4953900000000  0.5028380000000  0.5033760000000 1.0
C      1  0.4991690000000  0.4992970000000  0.3749090000000 1.0
C      1  0.4956210000000  0.4946300000000  0.6176590000000 1.0
C      1  0.4986510000000  0.4984200000000  0.4089030000000 1.0
C      1  0.5077440000000  0.4939510000000  0.5559910000000 1.0
C      1  0.4974640000000  0.5028820000000  0.4511810000000 1.0
C      1  0.5219200000000  0.4984340000000  0.4319870000000 1.0
C      1  0.5071240000000  0.4965380000000  0.5851830000000 1.0
C      1  0.4885970000000  0.4926390000000  0.6463070000000 1.0
C      1  0.4823270000000  0.4908610000000  0.6718800000000 1.0
C      1  0.4696730000000  0.4872730000000  0.7234930000000 1.0
C      1  0.4760000000000  0.4890670000000  0.6976860000000 1.0
END
