TITL C-2782230-7391-69 -0.0017432979453245 125000 -149.985149024688 0 0 28 (C1) n - 1
REM
REM in /home/nfs/bkarasulu/CARBON/AIRSS/Generating-Clusters/REBO/Higher-Symm/SD-CG/HFTN-CG
REM
REM
REM
REM
REM
REM ./C.cell (12c818d87b63d06a65506943cc24bca4)
REM
REM compiler GCC version 9.2.1 20190827 (Red Hat 9.2.1-1)
REM options -cpp -mtune=generic -march=x86-64 -g -O0 -fpre-include=/usr/include/finclude/math-vector-fortran.h
REM seed 1828753117 549054953 -50446756 1821509665 -1490588831 -428199865 278789135 -988653465 1469880001 -87321325 2018801018 322705807 1110477856 -648715218 -1056977838 -583022843 -495401611 957951614 -1430411827 -1149755979 -1572769237 1541048947 -1127900926 415792526 -1225433974 -1023550723 -1752168279 1266779625 1607767380 895494247 1978416981 -1063000689 -861822618
REM
CELL 1.54180   50.00000   50.00000   50.00000   90.00000   90.00000   90.00000
LATT -1
SFAC C  
C      1  0.5430790000000  0.5399910000000  0.5124430000000 1.0
C      1  0.4482940000000  0.5170740000000  0.5094590000000 1.0
C      1  0.5124350000000  0.4473430000000  0.5081630000000 1.0
C      1  0.5358790000000  0.4666310000000  0.5114800000000 1.0
C      1  0.4509190000000  0.4868900000000  0.5146620000000 1.0
C      1  0.5144220000000  0.5501780000000  0.5148360000000 1.0
C      1  0.4739230000000  0.4828340000000  0.5393500000000 1.0
C      1  0.5295840000000  0.4860700000000  0.5385620000000 1.0
C      1  0.4992050000000  0.5325270000000  0.5396040000000 1.0
C      1  0.4705710000000  0.5146200000000  0.5355100000000 1.0
C      1  0.5288660000000  0.5200170000000  0.5365270000000 1.0
C      1  0.5036850000000  0.4669680000000  0.5349670000000 1.0
C      1  0.4719290000000  0.4813640000000  0.4659520000000 1.0
C      1  0.5299440000000  0.4811650000000  0.4617750000000 1.0
C      1  0.5004710000000  0.5307710000000  0.4673700000000 1.0
C      1  0.4720760000000  0.5126530000000  0.4625210000000 1.0
C      1  0.5301360000000  0.5149510000000  0.4664250000000 1.0
C      1  0.5006820000000  0.4664140000000  0.4603120000000 1.0
C      1  0.4583620000000  0.4669030000000  0.4907910000000 1.0
C      1  0.5468170000000  0.4859740000000  0.4881210000000 1.0
C      1  0.4941450000000  0.5512160000000  0.4900900000000 1.0
C      1  0.4654500000000  0.5325580000000  0.4864430000000 1.0
C      1  0.5517580000000  0.5200430000000  0.4889360000000 1.0
C      1  0.4889820000000  0.4517220000000  0.4863970000000 1.0
C      1  0.4757680000000  0.4563720000000  0.5179940000000 1.0
C      1  0.4756460000000  0.5434090000000  0.5175470000000 1.0
C      1  0.5515730000000  0.5020790000000  0.5180390000000 1.0
C      1  0.5026730000000  0.5002860000000  0.4488350000000 1.0
END
