TITL C-2782228-2999-810 -0.0786614789522911 125000 -886.475038484397 0 0 146 (C1) n - 1
REM
REM in /home/nfs/bkarasulu/CARBON/AIRSS/Generating-Clusters/REBO/Higher-Symm/SD-CG/HFTN-CG
REM
REM
REM
REM
REM
REM ./C.cell (12c818d87b63d06a65506943cc24bca4)
REM
REM compiler GCC version 9.2.1 20190827 (Red Hat 9.2.1-1)
REM options -cpp -mtune=generic -march=x86-64 -g -O0 -fpre-include=/usr/include/finclude/math-vector-fortran.h
REM seed 1130748467 -942846284 -1879422956 836825524 1110352986 -571195377 -376521237 -227220753 67414791 615409468 -1787286635 -1287914308 -754664202 -968977048 1846743918 1862009024 -495420377 1420919135 1901720422 1407311627 1560773218 1819929578 1432005143 1891472410 -2038124430 -1946899590 -1307696702 556244879 1269486932 -1030446812 1639025584 1602530482 158018166
REM
CELL 1.54180   50.00000   50.00000   50.00000   90.00000   90.00000   90.00000
LATT -1
SFAC C  
C      1  0.5235780000000  0.5518370000000  0.5067930000000 1.0
C      1  0.5123340000000  0.5523310000000  0.4806370000000 1.0
C      1  0.4838090000000  0.5535860000000  0.4831730000000 1.0
C      1  0.4776620000000  0.5541570000000  0.5114760000000 1.0
C      1  0.5024550000000  0.5521320000000  0.5263740000000 1.0
C      1  0.5718710000000  0.5062570000000  0.5775830000000 1.0
C      1  0.5940780000000  0.5059730000000  0.4559350000000 1.0
C      1  0.4871760000000  0.5063570000000  0.3966960000000 1.0
C      1  0.3964220000000  0.5078770000000  0.4804930000000 1.0
C      1  0.4510900000000  0.5091760000000  0.5902010000000 1.0
C      1  0.4717710000000  0.4556250000000  0.4134220000000 1.0
C      1  0.4123520000000  0.4590320000000  0.4987040000000 1.0
C      1  0.4733170000000  0.4632780000000  0.5829640000000 1.0
C      1  0.5732340000000  0.4559590000000  0.5540620000000 1.0
C      1  0.5710160000000  0.4580450000000  0.4492550000000 1.0
C      1  0.4810760000000  0.5308480000000  0.4367720000000 1.0
C      1  0.4311800000000  0.5345710000000  0.4982980000000 1.0
C      1  0.4773240000000  0.5209860000000  0.5624250000000 1.0
C      1  0.5540530000000  0.5273680000000  0.5397950000000 1.0
C      1  0.5527720000000  0.5279500000000  0.4620750000000 1.0
C      1  0.4423130000000  0.4359500000000  0.5462440000000 1.0
C      1  0.5248510000000  0.4352420000000  0.5702530000000 1.0
C      1  0.5748550000000  0.4303480000000  0.4998360000000 1.0
C      1  0.5209530000000  0.4350650000000  0.4292140000000 1.0
C      1  0.4379900000000  0.4293590000000  0.4569740000000 1.0
C      1  0.5767170000000  0.5518430000000  0.4228320000000 1.0
C      1  0.4486480000000  0.5512090000000  0.4026000000000 1.0
C      1  0.3912940000000  0.5529490000000  0.5219270000000 1.0
C      1  0.4935480000000  0.5515980000000  0.5820080000000 1.0
C      1  0.5980140000000  0.5523030000000  0.5500000000000 1.0
C      1  0.4934000000000  0.4759470000000  0.4292360000000 1.0
C      1  0.4320550000000  0.4768760000000  0.4786650000000 1.0
C      1  0.4675250000000  0.4705490000000  0.5515390000000 1.0
C      1  0.5458000000000  0.4754050000000  0.5517760000000 1.0
C      1  0.5598230000000  0.4776520000000  0.4729040000000 1.0
C      1  0.4965130000000  0.5157750000000  0.4814880000000 1.0
C      1  0.4783180000000  0.5152660000000  0.5029090000000 1.0
C      1  0.4925140000000  0.5134710000000  0.5268270000000 1.0
C      1  0.5217240000000  0.5146330000000  0.5210030000000 1.0
C      1  0.5253310000000  0.5150690000000  0.4911850000000 1.0
C      1  0.4251400000000  0.4583110000000  0.5274240000000 1.0
C      1  0.5042890000000  0.4598770000000  0.5769070000000 1.0
C      1  0.5827500000000  0.4451540000000  0.5266040000000 1.0
C      1  0.5401540000000  0.4611130000000  0.4370890000000 1.0
C      1  0.4483620000000  0.4452300000000  0.4315710000000 1.0
C      1  0.5019650000000  0.6014160000000  0.5759650000000 1.0
C      1  0.5656790000000  0.5724470000000  0.5174900000000 1.0
C      1  0.5352950000000  0.5716590000000  0.4422290000000 1.0
C      1  0.4565060000000  0.5739340000000  0.4466550000000 1.0
C      1  0.4375080000000  0.5718510000000  0.5294190000000 1.0
C      1  0.5449500000000  0.5106570000000  0.5859970000000 1.0
C      1  0.5949970000000  0.5103550000000  0.4845180000000 1.0
C      1  0.5140150000000  0.5118710000000  0.4049630000000 1.0
C      1  0.4142600000000  0.5104470000000  0.4580170000000 1.0
C      1  0.4344500000000  0.5104270000000  0.5673170000000 1.0
C      1  0.4720220000000  0.4884380000000  0.5999180000000 1.0
C      1  0.5843230000000  0.4859320000000  0.5582640000000 1.0
C      1  0.5807260000000  0.4859730000000  0.4364870000000 1.0
C      1  0.4649120000000  0.4858030000000  0.4031340000000 1.0
C      1  0.3970990000000  0.4872410000000  0.5035640000000 1.0
C      1  0.4598870000000  0.4951640000000  0.5005820000000 1.0
C      1  0.4998030000000  0.4816690000000  0.5308610000000 1.0
C      1  0.5282290000000  0.4830490000000  0.5168870000000 1.0
C      1  0.5206540000000  0.4845380000000  0.4768190000000 1.0
C      1  0.4907370000000  0.4904800000000  0.4660320000000 1.0
C      1  0.5657110000000  0.5262610000000  0.4911580000000 1.0
C      1  0.5129900000000  0.5234330000000  0.4360260000000 1.0
C      1  0.4416280000000  0.5288670000000  0.4668340000000 1.0
C      1  0.4516070000000  0.5190960000000  0.5411980000000 1.0
C      1  0.5288130000000  0.5209940000000  0.5597680000000 1.0
C      1  0.4622460000000  0.5248100000000  0.4105860000000 1.0
C      1  0.4010790000000  0.5264410000000  0.5088360000000 1.0
C      1  0.4795480000000  0.5270900000000  0.5958310000000 1.0
C      1  0.5839270000000  0.5252330000000  0.5520130000000 1.0
C      1  0.5730810000000  0.5249280000000  0.4369210000000 1.0
C      1  0.4999400000000  0.5019190000000  0.6064270000000 1.0
C      1  0.5972240000000  0.5000540000000  0.5341690000000 1.0
C      1  0.5614400000000  0.5003520000000  0.4164290000000 1.0
C      1  0.4412620000000  0.4995080000000  0.4172160000000 1.0
C      1  0.4012570000000  0.5009150000000  0.5314000000000 1.0
C      1  0.4657580000000  0.5473550000000  0.4586630000000 1.0
C      1  0.4496790000000  0.5442280000000  0.5211770000000 1.0
C      1  0.5044620000000  0.5395170000000  0.5544570000000 1.0
C      1  0.5526480000000  0.5447230000000  0.5134850000000 1.0
C      1  0.5279400000000  0.5448380000000  0.4551500000000 1.0
C      1  0.4820030000000  0.6037550000000  0.4819870000000 1.0
C      1  0.4767640000000  0.6050780000000  0.5107480000000 1.0
C      1  0.5025970000000  0.6095360000000  0.5239610000000 1.0
C      1  0.5238210000000  0.6049410000000  0.5043350000000 1.0
C      1  0.5110250000000  0.6031340000000  0.4780590000000 1.0
C      1  0.4611180000000  0.4662870000000  0.5124630000000 1.0
C      1  0.5070210000000  0.4499080000000  0.5236020000000 1.0
C      1  0.5516780000000  0.4625080000000  0.5086220000000 1.0
C      1  0.5150280000000  0.4540580000000  0.4726130000000 1.0
C      1  0.4673010000000  0.4676000000000  0.4628440000000 1.0
C      1  0.5250410000000  0.4050450000000  0.5122580000000 1.0
C      1  0.5186670000000  0.4055890000000  0.4794630000000 1.0
C      1  0.4859660000000  0.4057880000000  0.4755350000000 1.0
C      1  0.4716610000000  0.4046460000000  0.5055720000000 1.0
C      1  0.4962600000000  0.4049580000000  0.5286870000000 1.0
C      1  0.4968020000000  0.5774910000000  0.5872060000000 1.0
C      1  0.5887450000000  0.5720640000000  0.5335870000000 1.0
C      1  0.5577000000000  0.5712210000000  0.4253380000000 1.0
C      1  0.4468350000000  0.5719390000000  0.4203280000000 1.0
C      1  0.4093200000000  0.5713140000000  0.5313920000000 1.0
C      1  0.6016370000000  0.4919280000000  0.5072330000000 1.0
C      1  0.5371840000000  0.4940250000000  0.4013940000000 1.0
C      1  0.4217140000000  0.4912540000000  0.4362650000000 1.0
C      1  0.4122070000000  0.4939720000000  0.5577270000000 1.0
C      1  0.5279950000000  0.4938350000000  0.6029270000000 1.0
C      1  0.4776850000000  0.4485590000000  0.5325980000000 1.0
C      1  0.5374850000000  0.4487610000000  0.5350440000000 1.0
C      1  0.5450330000000  0.4483840000000  0.4805810000000 1.0
C      1  0.4924630000000  0.4519750000000  0.4511300000000 1.0
C      1  0.4538450000000  0.4516130000000  0.4860070000000 1.0
C      1  0.5236480000000  0.4191130000000  0.5426890000000 1.0
C      1  0.5471730000000  0.4178840000000  0.4911640000000 1.0
C      1  0.5048340000000  0.4209130000000  0.4528690000000 1.0
C      1  0.4571200000000  0.4208570000000  0.4806120000000 1.0
C      1  0.4666860000000  0.4195530000000  0.5345070000000 1.0
C      1  0.5862510000000  0.4480630000000  0.4767420000000 1.0
C      1  0.5033250000000  0.4458220000000  0.4053540000000 1.0
C      1  0.4126790000000  0.4443530000000  0.4679580000000 1.0
C      1  0.4432570000000  0.4495430000000  0.5748860000000 1.0
C      1  0.5526410000000  0.4468760000000  0.5787540000000 1.0
C      1  0.4517730000000  0.4979640000000  0.4615880000000 1.0
C      1  0.4444720000000  0.4859460000000  0.5358140000000 1.0
C      1  0.5204920000000  0.4878950000000  0.5642500000000 1.0
C      1  0.5624720000000  0.4940460000000  0.5001550000000 1.0
C      1  0.5207220000000  0.4897460000000  0.4373590000000 1.0
C      1  0.4541610000000  0.5938880000000  0.5235250000000 1.0
C      1  0.5047950000000  0.6123620000000  0.5515480000000 1.0
C      1  0.5491730000000  0.5941520000000  0.5104430000000 1.0
C      1  0.5237760000000  0.5938030000000  0.4548980000000 1.0
C      1  0.4641960000000  0.5961710000000  0.4617090000000 1.0
C      1  0.5957330000000  0.4638690000000  0.5027750000000 1.0
C      1  0.5280440000000  0.4661920000000  0.4059400000000 1.0
C      1  0.4225400000000  0.4627830000000  0.4425020000000 1.0
C      1  0.4200990000000  0.4656060000000  0.5599180000000 1.0
C      1  0.5320740000000  0.4654320000000  0.5950250000000 1.0
C      1  0.4885170000000  0.4925430000000  0.5604010000000 1.0
C      1  0.5561070000000  0.4973310000000  0.5314780000000 1.0
C      1  0.5433310000000  0.4993680000000  0.4583160000000 1.0
C      1  0.4747640000000  0.4998910000000  0.4392080000000 1.0
C      1  0.4327000000000  0.5036640000000  0.4962200000000 1.0
C      1  0.5076030000000  0.4397890000000  0.4970120000000 1.0
END
