TITL C-2782228-2999-865 0.0208970756144543 125000 -1026.80038881648 0 0 176 (C1) n - 1
REM
REM in /home/nfs/bkarasulu/CARBON/AIRSS/Generating-Clusters/REBO/Higher-Symm/SD-CG/HFTN-CG
REM
REM
REM
REM
REM
REM ./C.cell (12c818d87b63d06a65506943cc24bca4)
REM
REM compiler GCC version 9.2.1 20190827 (Red Hat 9.2.1-1)
REM options -cpp -mtune=generic -march=x86-64 -g -O0 -fpre-include=/usr/include/finclude/math-vector-fortran.h
REM seed -1106895611 -1696103232 1963899286 -1386141422 1473516801 -402190723 892541041 -1359001217 1772323329 -769649589 -1504922349 1438968210 -976118634 1728333757 -843530469 320385291 -857043229 846141432 -2088184414 -1865191519 918147426 -1667821980 1519739413 121911779 2048033687 -1482931840 -51073934 -330750269 -2110723436 -1170156637 1991932159 1215151094 1422183740
REM
CELL 1.54180   50.00000   50.00000   50.00000   90.00000   90.00000   90.00000
LATT -1
SFAC C  
C      1  0.5752640000000  0.4654530000000  0.5702990000000 1.0
C      1  0.4351100000000  0.5302740000000  0.5747940000000 1.0
C      1  0.5377960000000  0.5501820000000  0.4526240000000 1.0
C      1  0.4580520000000  0.4452800000000  0.4605070000000 1.0
C      1  0.4187010000000  0.5055260000000  0.5868910000000 1.0
C      1  0.5718690000000  0.4883700000000  0.5900100000000 1.0
C      1  0.4974440000000  0.4716500000000  0.4037520000000 1.0
C      1  0.4971890000000  0.5334010000000  0.4079020000000 1.0
C      1  0.4894090000000  0.5691290000000  0.4479670000000 1.0
C      1  0.5026530000000  0.4378170000000  0.4442320000000 1.0
C      1  0.5294410000000  0.5528990000000  0.5936570000000 1.0
C      1  0.4902200000000  0.4443510000000  0.5990390000000 1.0
C      1  0.4696930000000  0.5034290000000  0.5467920000000 1.0
C      1  0.5273540000000  0.4954060000000  0.5431360000000 1.0
C      1  0.4936390000000  0.5613700000000  0.4150150000000 1.0
C      1  0.5002000000000  0.4437390000000  0.4106600000000 1.0
C      1  0.5607320000000  0.4660430000000  0.4584820000000 1.0
C      1  0.4426100000000  0.5300610000000  0.4537250000000 1.0
C      1  0.5283030000000  0.5279450000000  0.6043120000000 1.0
C      1  0.4857060000000  0.4720470000000  0.6010310000000 1.0
C      1  0.6126450000000  0.5650120000000  0.4965710000000 1.0
C      1  0.3877550000000  0.4282140000000  0.4936090000000 1.0
C      1  0.4343420000000  0.4304200000000  0.5459300000000 1.0
C      1  0.5605100000000  0.5744440000000  0.5436340000000 1.0
C      1  0.4651570000000  0.5280830000000  0.5632460000000 1.0
C      1  0.5447800000000  0.4777930000000  0.5625960000000 1.0
C      1  0.4306580000000  0.5118250000000  0.5484270000000 1.0
C      1  0.5671340000000  0.4952130000000  0.5449450000000 1.0
C      1  0.4522300000000  0.4669000000000  0.5124210000000 1.0
C      1  0.5465580000000  0.5305830000000  0.5101360000000 1.0
C      1  0.4592680000000  0.5705150000000  0.4324960000000 1.0
C      1  0.5330360000000  0.4371270000000  0.4317990000000 1.0
C      1  0.4688610000000  0.5199510000000  0.4106890000000 1.0
C      1  0.5263940000000  0.4849660000000  0.4046550000000 1.0
C      1  0.4157340000000  0.4881440000000  0.4428640000000 1.0
C      1  0.5808430000000  0.5056260000000  0.4511990000000 1.0
C      1  0.5777600000000  0.4202250000000  0.4965500000000 1.0
C      1  0.4225180000000  0.5764530000000  0.4873670000000 1.0
C      1  0.4626780000000  0.4708430000000  0.4410430000000 1.0
C      1  0.5466350000000  0.5297990000000  0.4353320000000 1.0
C      1  0.5561070000000  0.5805390000000  0.4961980000000 1.0
C      1  0.4438360000000  0.4152840000000  0.5025550000000 1.0
C      1  0.5208800000000  0.4353180000000  0.5090840000000 1.0
C      1  0.4727900000000  0.5764600000000  0.5105530000000 1.0
C      1  0.4715170000000  0.5531700000000  0.5326480000000 1.0
C      1  0.5321390000000  0.4530700000000  0.5339090000000 1.0
C      1  0.5012060000000  0.4905690000000  0.5862330000000 1.0
C      1  0.5250650000000  0.5006650000000  0.5994110000000 1.0
C      1  0.5631660000000  0.4538990000000  0.5248110000000 1.0
C      1  0.4397910000000  0.5490120000000  0.5244030000000 1.0
C      1  0.5388080000000  0.4983680000000  0.5145070000000 1.0
C      1  0.4570750000000  0.4988180000000  0.5154560000000 1.0
C      1  0.4536770000000  0.5788900000000  0.4628720000000 1.0
C      1  0.5399560000000  0.4320550000000  0.4600850000000 1.0
C      1  0.6160590000000  0.5154270000000  0.5097610000000 1.0
C      1  0.3838150000000  0.4784490000000  0.5058380000000 1.0
C      1  0.3879570000000  0.5131930000000  0.6304860000000 1.0
C      1  0.5459410000000  0.4631810000000  0.6233960000000 1.0
C      1  0.5458860000000  0.5457120000000  0.5366350000000 1.0
C      1  0.4541310000000  0.4537100000000  0.5411170000000 1.0
C      1  0.6037880000000  0.5225740000000  0.4787190000000 1.0
C      1  0.4006090000000  0.4738780000000  0.4765930000000 1.0
C      1  0.4272540000000  0.5603370000000  0.4576330000000 1.0
C      1  0.5715630000000  0.4343580000000  0.4662260000000 1.0
C      1  0.4589820000000  0.5793620000000  0.5601230000000 1.0
C      1  0.5542100000000  0.4234320000000  0.5489930000000 1.0
C      1  0.5521260000000  0.5228700000000  0.5582420000000 1.0
C      1  0.4454220000000  0.4814640000000  0.5517080000000 1.0
C      1  0.4919050000000  0.4652100000000  0.4531760000000 1.0
C      1  0.4930450000000  0.5423000000000  0.4656870000000 1.0
C      1  0.5096550000000  0.4932120000000  0.4527970000000 1.0
C      1  0.4845010000000  0.5116450000000  0.4586620000000 1.0
C      1  0.3839190000000  0.4643450000000  0.5362790000000 1.0
C      1  0.6138380000000  0.5279540000000  0.5410650000000 1.0
C      1  0.4764920000000  0.4888760000000  0.4015210000000 1.0
C      1  0.5170520000000  0.5170250000000  0.3989140000000 1.0
C      1  0.5146590000000  0.5998540000000  0.5302080000000 1.0
C      1  0.4880910000000  0.4096860000000  0.5360660000000 1.0
C      1  0.3958120000000  0.5051870000000  0.4639530000000 1.0
C      1  0.6055500000000  0.4905410000000  0.4665970000000 1.0
C      1  0.4280010000000  0.4950790000000  0.4979720000000 1.0
C      1  0.5703380000000  0.4999040000000  0.5015010000000 1.0
C      1  0.5572850000000  0.4966760000000  0.4730950000000 1.0
C      1  0.4355040000000  0.5010720000000  0.4665050000000 1.0
C      1  0.4773760000000  0.5122790000000  0.4921710000000 1.0
C      1  0.5232010000000  0.4766380000000  0.4946330000000 1.0
C      1  0.4196640000000  0.4814830000000  0.5714630000000 1.0
C      1  0.5768410000000  0.5149940000000  0.5779190000000 1.0
C      1  0.4659090000000  0.5702370000000  0.4000270000000 1.0
C      1  0.5283540000000  0.4334270000000  0.3987280000000 1.0
C      1  0.5420220000000  0.5521400000000  0.4849800000000 1.0
C      1  0.4615760000000  0.4441300000000  0.4915790000000 1.0
C      1  0.5104430000000  0.3989600000000  0.5213720000000 1.0
C      1  0.4889330000000  0.6105660000000  0.5229960000000 1.0
C      1  0.5027690000000  0.4645800000000  0.5368900000000 1.0
C      1  0.5019860000000  0.5418700000000  0.5348680000000 1.0
C      1  0.5956260000000  0.4340930000000  0.5125410000000 1.0
C      1  0.4124740000000  0.5611910000000  0.5102900000000 1.0
C      1  0.4924700000000  0.4309970000000  0.4970100000000 1.0
C      1  0.5022690000000  0.5800660000000  0.4978410000000 1.0
C      1  0.5181940000000  0.5246350000000  0.5558320000000 1.0
C      1  0.4964600000000  0.4913490000000  0.5548830000000 1.0
C      1  0.5328760000000  0.5013220000000  0.4318390000000 1.0
C      1  0.4646800000000  0.5010610000000  0.4376190000000 1.0
C      1  0.4793900000000  0.6123420000000  0.4945310000000 1.0
C      1  0.5167110000000  0.3999470000000  0.4912410000000 1.0
C      1  0.3974640000000  0.5074560000000  0.4976820000000 1.0
C      1  0.6006020000000  0.4887460000000  0.4993880000000 1.0
C      1  0.4671900000000  0.3991240000000  0.4628940000000 1.0
C      1  0.5283300000000  0.5965050000000  0.4576750000000 1.0
C      1  0.5803370000000  0.5346970000000  0.3983250000000 1.0
C      1  0.4357160000000  0.4454840000000  0.4053200000000 1.0
C      1  0.5171730000000  0.4348680000000  0.5841310000000 1.0
C      1  0.5061010000000  0.5628730000000  0.5749680000000 1.0
C      1  0.5384430000000  0.5702250000000  0.5673000000000 1.0
C      1  0.4888040000000  0.4286410000000  0.5711130000000 1.0
C      1  0.4671010000000  0.5951630000000  0.5386420000000 1.0
C      1  0.5376300000000  0.4127140000000  0.5295530000000 1.0
C      1  0.4801860000000  0.5555490000000  0.5654670000000 1.0
C      1  0.5380390000000  0.4457000000000  0.5667090000000 1.0
C      1  0.4246720000000  0.4613780000000  0.4963560000000 1.0
C      1  0.5756110000000  0.5328290000000  0.4948520000000 1.0
C      1  0.5477350000000  0.4590720000000  0.4103150000000 1.0
C      1  0.4478060000000  0.5445170000000  0.4136980000000 1.0
C      1  0.5395310000000  0.6132000000000  0.5268360000000 1.0
C      1  0.4643160000000  0.3945390000000  0.5399370000000 1.0
C      1  0.4120360000000  0.5385180000000  0.4776130000000 1.0
C      1  0.5930980000000  0.4555490000000  0.4789740000000 1.0
C      1  0.5162860000000  0.5323710000000  0.4841480000000 1.0
C      1  0.4919250000000  0.4759540000000  0.4842130000000 1.0
C      1  0.4522360000000  0.5926210000000  0.4904460000000 1.0
C      1  0.5443100000000  0.4187760000000  0.4906060000000 1.0
C      1  0.5479820000000  0.4842370000000  0.6062720000000 1.0
C      1  0.4029080000000  0.5094640000000  0.6092870000000 1.0
C      1  0.4344100000000  0.5095200000000  0.4276740000000 1.0
C      1  0.5606750000000  0.4881640000000  0.4343180000000 1.0
C      1  0.3970040000000  0.4691250000000  0.5599540000000 1.0
C      1  0.6014590000000  0.5224010000000  0.5651580000000 1.0
C      1  0.4626070000000  0.5484070000000  0.4717610000000 1.0
C      1  0.5406770000000  0.4577320000000  0.4825280000000 1.0
C      1  0.4360880000000  0.4566570000000  0.4292610000000 1.0
C      1  0.5728930000000  0.5344040000000  0.4248680000000 1.0
C      1  0.5279160000000  0.5895210000000  0.4851620000000 1.0
C      1  0.4709390000000  0.4055820000000  0.4894870000000 1.0
C      1  0.6026340000000  0.5602730000000  0.4654480000000 1.0
C      1  0.4026740000000  0.4313550000000  0.4644220000000 1.0
C      1  0.4611320000000  0.4859210000000  0.4779540000000 1.0
C      1  0.5300570000000  0.5081270000000  0.4710880000000 1.0
C      1  0.6212990000000  0.5476780000000  0.5162940000000 1.0
C      1  0.3758550000000  0.4462960000000  0.5109080000000 1.0
C      1  0.4396200000000  0.5383340000000  0.4925930000000 1.0
C      1  0.5678970000000  0.4587620000000  0.4976920000000 1.0
C      1  0.4829550000000  0.4424820000000  0.5435280000000 1.0
C      1  0.5206640000000  0.5693170000000  0.5383230000000 1.0
C      1  0.5020530000000  0.4178750000000  0.4676100000000 1.0
C      1  0.4907140000000  0.5917440000000  0.4699330000000 1.0
C      1  0.5000590000000  0.4886680000000  0.5147240000000 1.0
C      1  0.5023690000000  0.5223650000000  0.5108040000000 1.0
C      1  0.6020380000000  0.4615790000000  0.5181540000000 1.0
C      1  0.3969430000000  0.5358800000000  0.5138150000000 1.0
C      1  0.5988360000000  0.4635010000000  0.4471680000000 1.0
C      1  0.3992270000000  0.5337370000000  0.4481400000000 1.0
C      1  0.4207390000000  0.4312020000000  0.4919940000000 1.0
C      1  0.5801740000000  0.5633620000000  0.4892660000000 1.0
C      1  0.4089900000000  0.5182110000000  0.5342930000000 1.0
C      1  0.5889010000000  0.4820670000000  0.5367010000000 1.0
C      1  0.4409790000000  0.4079960000000  0.5311660000000 1.0
C      1  0.5599690000000  0.5937960000000  0.5228330000000 1.0
C      1  0.4390520000000  0.5570070000000  0.5555650000000 1.0
C      1  0.5783580000000  0.4446800000000  0.5506240000000 1.0
C      1  0.4584500000000  0.4205910000000  0.4478040000000 1.0
C      1  0.5316370000000  0.5752630000000  0.4405750000000 1.0
C      1  0.5950980000000  0.5353450000000  0.4480060000000 1.0
C      1  0.4100990000000  0.4569290000000  0.4483480000000 1.0
C      1  0.4168580000000  0.5367660000000  0.4241750000000 1.0
C      1  0.5789300000000  0.4631630000000  0.4233780000000 1.0
END
