TITL C-2782226-7400-203 -0.000195356980485039 125000 -287.928702162527 0 0 48 (C3) n - 1
REM
REM in /home/nfs/bkarasulu/CARBON/AIRSS/Generating-Clusters/REBO/Higher-Symm/SD-CG/HFTN-CG
REM
REM
REM
REM
REM
REM ./C.cell (12c818d87b63d06a65506943cc24bca4)
REM
REM compiler GCC version 9.2.1 20190827 (Red Hat 9.2.1-1)
REM options -cpp -mtune=generic -march=x86-64 -g -O0 -fpre-include=/usr/include/finclude/math-vector-fortran.h
REM seed 1795591921 1315657164 1961470978 -560738157 1332177622 996661292 344639020 1816977072 1519464707 1976874312 -923818669 -644187872 91865479 69504762 957607440 -1011262779 -816612928 520700229 -1800608997 -971053448 -423013675 1101504151 1452242772 881712539 -790813258 543134840 -699719558 -573676355 1359361474 1717142905 1664976367 -535312160 -1291276085
REM
CELL 1.54180   50.00000   50.00000   50.00000   90.00000   90.00000   90.00000
LATT -1
SFAC C  
C      1  0.4455220000000  0.4826820000000  0.4931110000000 1.0
C      1  0.5502190000000  0.4966580000000  0.4817270000000 1.0
C      1  0.4455220000000  0.5146230000000  0.4884430000000 1.0
C      1  0.5502180000000  0.5174970000000  0.5062450000000 1.0
C      1  0.4455210000000  0.5026960000000  0.5184390000000 1.0
C      1  0.5502180000000  0.4858440000000  0.5120340000000 1.0
C      1  0.5004230000000  0.5103700000000  0.5704870000000 1.0
C      1  0.4979260000000  0.4413710000000  0.5444330000000 1.0
C      1  0.5004260000000  0.4337710000000  0.4737370000000 1.0
C      1  0.4979310000000  0.4908350000000  0.4270090000000 1.0
C      1  0.5004280000000  0.5558590000000  0.4557760000000 1.0
C      1  0.4979270000000  0.5677940000000  0.5285580000000 1.0
C      1  0.5412670000000  0.4689380000000  0.5319590000000 1.0
C      1  0.4572700000000  0.4580170000000  0.4881190000000 1.0
C      1  0.5412710000000  0.4878550000000  0.4571230000000 1.0
C      1  0.4572710000000  0.5312790000000  0.4695790000000 1.0
C      1  0.5412690000000  0.5432060000000  0.5109240000000 1.0
C      1  0.4572680000000  0.5107040000000  0.5422960000000 1.0
C      1  0.5213540000000  0.4307730000000  0.4984300000000 1.0
C      1  0.4782250000000  0.4698650000000  0.4423050000000 1.0
C      1  0.5213570000000  0.5359740000000  0.4408340000000 1.0
C      1  0.4782230000000  0.5650320000000  0.5027480000000 1.0
C      1  0.5213520000000  0.5332530000000  0.5607390000000 1.0
C      1  0.4782200000000  0.4651040000000  0.5549440000000 1.0
C      1  0.5075800000000  0.4752450000000  0.5113920000000 1.0
C      1  0.5025680000000  0.4777330000000  0.4841870000000 1.0
C      1  0.5075810000000  0.5025120000000  0.4728660000000 1.0
C      1  0.5025680000000  0.5248280000000  0.4886230000000 1.0
C      1  0.5075800000000  0.5222430000000  0.5157430000000 1.0
C      1  0.5025660000000  0.4974390000000  0.5271900000000 1.0
C      1  0.4823060000000  0.5465180000000  0.4789560000000 1.0
C      1  0.5183490000000  0.5459490000000  0.5332480000000 1.0
C      1  0.4823030000000  0.4949660000000  0.5508060000000 1.0
C      1  0.5183480000000  0.4482330000000  0.5231700000000 1.0
C      1  0.4823060000000  0.4585170000000  0.4702360000000 1.0
C      1  0.5183520000000  0.5058180000000  0.4435840000000 1.0
C      1  0.4670860000000  0.4411890000000  0.5356270000000 1.0
C      1  0.5316320000000  0.4381940000000  0.4680950000000 1.0
C      1  0.4670910000000  0.4985510000000  0.4312530000000 1.0
C      1  0.5316330000000  0.5585340000000  0.4624300000000 1.0
C      1  0.4670870000000  0.5602610000000  0.5331160000000 1.0
C      1  0.5316280000000  0.5032710000000  0.5694800000000 1.0
C      1  0.4567080000000  0.4398050000000  0.5097230000000 1.0
C      1  0.5415620000000  0.4598620000000  0.4534190000000 1.0
C      1  0.4567120000000  0.5216760000000  0.4430050000000 1.0
C      1  0.5415610000000  0.5604100000000  0.4885330000000 1.0
C      1  0.4567070000000  0.5385200000000  0.5472660000000 1.0
C      1  0.5415580000000  0.4797270000000  0.5580530000000 1.0
END
