TITL C-2782237-5345-1271 -0.00285518647247474 125000 -798.948112127479 0 0 138 (C1) n - 1
REM
REM in /home/nfs/bkarasulu/CARBON/AIRSS/Generating-Clusters/REBO/Higher-Symm/SD-CG/HFTN-CG
REM
REM
REM
REM
REM
REM ./C.cell (12c818d87b63d06a65506943cc24bca4)
REM
REM compiler GCC version 9.2.1 20190827 (Red Hat 9.2.1-1)
REM options -cpp -mtune=generic -march=x86-64 -g -O0 -fpre-include=/usr/include/finclude/math-vector-fortran.h
REM seed 1187179091 -1715932855 -1097686084 -2085708806 -1986638484 -1820333234 550662883 -79636521 -902133922 -934249019 -1672044500 1652201076 2088973069 1098566011 981581918 -1370012815 -716014026 473388368 1483779259 710925041 692905442 1116759657 -518186530 1341698364 572455190 -1909961329 492231408 1627041537 326745485 -174320564 65848439 1239410167 1117634480
REM
CELL 1.54180   50.00000   50.00000   50.00000   90.00000   90.00000   90.00000
LATT -1
SFAC C  
C      1  0.5234650000000  0.5398340000000  0.6063460000000 1.0
C      1  0.5252180000000  0.4603580000000  0.3921950000000 1.0
C      1  0.5139680000000  0.4687330000000  0.6010100000000 1.0
C      1  0.5171650000000  0.5318500000000  0.3973000000000 1.0
C      1  0.5333240000000  0.4267310000000  0.5556190000000 1.0
C      1  0.5346690000000  0.5740210000000  0.4430360000000 1.0
C      1  0.5350210000000  0.5773800000000  0.5519250000000 1.0
C      1  0.5352900000000  0.4229840000000  0.4469920000000 1.0
C      1  0.5676760000000  0.5613520000000  0.4649980000000 1.0
C      1  0.5647880000000  0.4392940000000  0.5343790000000 1.0
C      1  0.5694640000000  0.4353240000000  0.4690950000000 1.0
C      1  0.5692310000000  0.5647650000000  0.5303940000000 1.0
C      1  0.5403730000000  0.5643580000000  0.5145300000000 1.0
C      1  0.5403600000000  0.4358920000000  0.4844620000000 1.0
C      1  0.5349430000000  0.4397250000000  0.5179490000000 1.0
C      1  0.5374910000000  0.5612050000000  0.4806890000000 1.0
C      1  0.4627240000000  0.5317500000000  0.5689610000000 1.0
C      1  0.4632980000000  0.4689130000000  0.4296050000000 1.0
C      1  0.4584720000000  0.4645500000000  0.5655590000000 1.0
C      1  0.4597670000000  0.5347900000000  0.4341540000000 1.0
C      1  0.4121620000000  0.4822600000000  0.5583880000000 1.0
C      1  0.4142490000000  0.5165500000000  0.4444200000000 1.0
C      1  0.4156510000000  0.5137860000000  0.5621430000000 1.0
C      1  0.4169190000000  0.4855080000000  0.4387810000000 1.0
C      1  0.4822940000000  0.5124120000000  0.5489290000000 1.0
C      1  0.4826870000000  0.4882690000000  0.4497550000000 1.0
C      1  0.4832370000000  0.4840330000000  0.5555720000000 1.0
C      1  0.4854920000000  0.5161130000000  0.4423930000000 1.0
C      1  0.4603750000000  0.5782230000000  0.4603720000000 1.0
C      1  0.4591780000000  0.4203120000000  0.5393310000000 1.0
C      1  0.4589170000000  0.4212610000000  0.4492910000000 1.0
C      1  0.4586710000000  0.5794480000000  0.5496060000000 1.0
C      1  0.4838640000000  0.4181570000000  0.4349110000000 1.0
C      1  0.4837770000000  0.5826670000000  0.5635950000000 1.0
C      1  0.4825610000000  0.5829320000000  0.4418480000000 1.0
C      1  0.4819770000000  0.4167070000000  0.5570110000000 1.0
C      1  0.5098140000000  0.4482060000000  0.4715250000000 1.0
C      1  0.5093210000000  0.5522630000000  0.5267020000000 1.0
C      1  0.5045220000000  0.5636500000000  0.4723670000000 1.0
C      1  0.5017230000000  0.4374670000000  0.5257120000000 1.0
C      1  0.5396800000000  0.5305690000000  0.5124440000000 1.0
C      1  0.5398610000000  0.4698590000000  0.4862460000000 1.0
C      1  0.5326320000000  0.4737010000000  0.5171400000000 1.0
C      1  0.5345890000000  0.5272260000000  0.4809920000000 1.0
C      1  0.5182920000000  0.5168730000000  0.6193850000000 1.0
C      1  0.5209170000000  0.4835090000000  0.3791470000000 1.0
C      1  0.5146080000000  0.4902680000000  0.6169220000000 1.0
C      1  0.5178340000000  0.5102000000000  0.3815350000000 1.0
C      1  0.4372860000000  0.4834830000000  0.5760390000000 1.0
C      1  0.4378350000000  0.5161640000000  0.4245430000000 1.0
C      1  0.4417060000000  0.5130780000000  0.5801950000000 1.0
C      1  0.4412400000000  0.4865170000000  0.4187470000000 1.0
C      1  0.5334280000000  0.5191570000000  0.5607440000000 1.0
C      1  0.5345900000000  0.4812040000000  0.4377230000000 1.0
C      1  0.5247180000000  0.4869280000000  0.5540080000000 1.0
C      1  0.5262630000000  0.5135340000000  0.4443530000000 1.0
C      1  0.4162360000000  0.5421220000000  0.5454710000000 1.0
C      1  0.4201130000000  0.4605990000000  0.4588930000000 1.0
C      1  0.4168550000000  0.4580420000000  0.5378440000000 1.0
C      1  0.4208110000000  0.5373500000000  0.4672390000000 1.0
C      1  0.5204720000000  0.5406620000000  0.4266200000000 1.0
C      1  0.5183210000000  0.4598900000000  0.5718720000000 1.0
C      1  0.5288330000000  0.4532040000000  0.4218360000000 1.0
C      1  0.5277320000000  0.5471220000000  0.5768400000000 1.0
C      1  0.4478400000000  0.4830140000000  0.4939900000000 1.0
C      1  0.4455260000000  0.5138090000000  0.5192300000000 1.0
C      1  0.4540110000000  0.5131820000000  0.4857790000000 1.0
C      1  0.4503500000000  0.4827650000000  0.5279710000000 1.0
C      1  0.4776290000000  0.5220460000000  0.5166100000000 1.0
C      1  0.4782030000000  0.4792740000000  0.4809670000000 1.0
C      1  0.4819110000000  0.4823750000000  0.5145340000000 1.0
C      1  0.4861270000000  0.5185090000000  0.4853050000000 1.0
C      1  0.5336150000000  0.4058230000000  0.4722820000000 1.0
C      1  0.5335420000000  0.5942930000000  0.5265020000000 1.0
C      1  0.5381060000000  0.5936110000000  0.4663140000000 1.0
C      1  0.5367350000000  0.4072360000000  0.5324340000000 1.0
C      1  0.4391920000000  0.4457190000000  0.4828280000000 1.0
C      1  0.4344520000000  0.5522050000000  0.5204100000000 1.0
C      1  0.4383550000000  0.5493100000000  0.4922140000000 1.0
C      1  0.4332010000000  0.4499210000000  0.5109180000000 1.0
C      1  0.5964940000000  0.5575410000000  0.5121560000000 1.0
C      1  0.5960060000000  0.4422670000000  0.4883170000000 1.0
C      1  0.5933050000000  0.4441660000000  0.5171650000000 1.0
C      1  0.5951880000000  0.5554650000000  0.4832300000000 1.0
C      1  0.5667370000000  0.5169570000000  0.5180750000000 1.0
C      1  0.5671590000000  0.4832870000000  0.4816570000000 1.0
C      1  0.5625500000000  0.4866190000000  0.5145010000000 1.0
C      1  0.5636470000000  0.5137580000000  0.4852040000000 1.0
C      1  0.5154370000000  0.6094750000000  0.5109510000000 1.0
C      1  0.5153660000000  0.3903590000000  0.4875090000000 1.0
C      1  0.5187440000000  0.3903640000000  0.5178680000000 1.0
C      1  0.5197260000000  0.6101550000000  0.4805930000000 1.0
C      1  0.5786270000000  0.4693620000000  0.5346800000000 1.0
C      1  0.5802740000000  0.5308240000000  0.4650840000000 1.0
C      1  0.5842510000000  0.5354450000000  0.5349460000000 1.0
C      1  0.5848280000000  0.4645710000000  0.4651650000000 1.0
C      1  0.4921340000000  0.5936240000000  0.4790450000000 1.0
C      1  0.4912240000000  0.4070330000000  0.5195080000000 1.0
C      1  0.4871770000000  0.3994220000000  0.4809200000000 1.0
C      1  0.4872450000000  0.6009730000000  0.5176140000000 1.0
C      1  0.4443520000000  0.5564090000000  0.5581920000000 1.0
C      1  0.4456310000000  0.4454830000000  0.4436270000000 1.0
C      1  0.4432560000000  0.4419100000000  0.5482360000000 1.0
C      1  0.4450840000000  0.5555810000000  0.4536030000000 1.0
C      1  0.5180440000000  0.5199740000000  0.5325400000000 1.0
C      1  0.5189380000000  0.4805190000000  0.4656640000000 1.0
C      1  0.5080520000000  0.4906380000000  0.5251090000000 1.0
C      1  0.5103430000000  0.5103310000000  0.4730510000000 1.0
C      1  0.5563430000000  0.5516710000000  0.5585570000000 1.0
C      1  0.5570320000000  0.4484630000000  0.4407390000000 1.0
C      1  0.5497400000000  0.4563960000000  0.5590170000000 1.0
C      1  0.5512700000000  0.5442710000000  0.4410460000000 1.0
C      1  0.5049260000000  0.4304260000000  0.5649300000000 1.0
C      1  0.5061920000000  0.5703100000000  0.4330500000000 1.0
C      1  0.5094370000000  0.5727890000000  0.5668830000000 1.0
C      1  0.5097510000000  0.4278490000000  0.4318340000000 1.0
C      1  0.4672260000000  0.4513330000000  0.5109780000000 1.0
C      1  0.4704800000000  0.5491660000000  0.4868040000000 1.0
C      1  0.4666580000000  0.5537550000000  0.5200310000000 1.0
C      1  0.4704480000000  0.4462390000000  0.4782410000000 1.0
C      1  0.5587740000000  0.4889160000000  0.5542240000000 1.0
C      1  0.5602590000000  0.5115990000000  0.4454190000000 1.0
C      1  0.5669410000000  0.5192790000000  0.5579590000000 1.0
C      1  0.5679500000000  0.4807910000000  0.4417840000000 1.0
C      1  0.4587500000000  0.5927430000000  0.5229440000000 1.0
C      1  0.4589040000000  0.4080370000000  0.4758370000000 1.0
C      1  0.4603010000000  0.4092400000000  0.5087860000000 1.0
C      1  0.4608750000000  0.5902650000000  0.4898430000000 1.0
C      1  0.4846300000000  0.5462720000000  0.5471930000000 1.0
C      1  0.4860410000000  0.4547950000000  0.4506330000000 1.0
C      1  0.4809620000000  0.4537140000000  0.5420250000000 1.0
C      1  0.4837270000000  0.5458400000000  0.4564490000000 1.0
C      1  0.4165050000000  0.4783740000000  0.4856650000000 1.0
C      1  0.4128940000000  0.5187520000000  0.5217180000000 1.0
C      1  0.4198720000000  0.5120430000000  0.4890480000000 1.0
C      1  0.4171630000000  0.4856710000000  0.5189280000000 1.0
C      1  0.5015020000000  0.5725020000000  0.5051650000000 1.0
C      1  0.5022340000000  0.4275980000000  0.4931400000000 1.0
END
