TITL C-2782230-7391-518 0.000545938677754777 125000 -896.902185016064 0 0 146 (C1) n - 1
REM
REM in /home/nfs/bkarasulu/CARBON/AIRSS/Generating-Clusters/REBO/Higher-Symm/SD-CG/HFTN-CG
REM
REM
REM
REM
REM
REM ./C.cell (12c818d87b63d06a65506943cc24bca4)
REM
REM compiler GCC version 9.2.1 20190827 (Red Hat 9.2.1-1)
REM options -cpp -mtune=generic -march=x86-64 -g -O0 -fpre-include=/usr/include/finclude/math-vector-fortran.h
REM seed -1686426148 -243054537 366712313 -1670419807 -2076904016 -519797800 32100742 776336640 1640905690 1180084069 1900634696 692119620 145805484 -1631499182 1014445149 2052651852 -262667074 -523927489 1816978688 479195692 -1875901085 -594966786 -2051218580 1961639954 -837334538 1884157610 844840006 1334730653 -127049364 437852814 -392578603 -784617090 1990492767
REM
CELL 1.54180   50.00000   50.00000   50.00000   90.00000   90.00000   90.00000
LATT -1
SFAC C  
C      1  0.5267090000000  0.5579380000000  0.5848240000000 1.0
C      1  0.4717040000000  0.5580500000000  0.5842280000000 1.0
C      1  0.4394330000000  0.5147110000000  0.5832550000000 1.0
C      1  0.4519000000000  0.4599960000000  0.5856730000000 1.0
C      1  0.5020960000000  0.4377580000000  0.5837800000000 1.0
C      1  0.5482620000000  0.4606840000000  0.5843740000000 1.0
C      1  0.5617240000000  0.5143810000000  0.5837130000000 1.0
C      1  0.5472010000000  0.5380470000000  0.4204840000000 1.0
C      1  0.4974230000000  0.5633540000000  0.4142290000000 1.0
C      1  0.4489310000000  0.5389220000000  0.4166100000000 1.0
C      1  0.4379630000000  0.4851320000000  0.4146620000000 1.0
C      1  0.4722380000000  0.4415040000000  0.4159690000000 1.0
C      1  0.5299750000000  0.4436940000000  0.4155050000000 1.0
C      1  0.5606620000000  0.4878700000000  0.4191860000000 1.0
C      1  0.4823060000000  0.5333870000000  0.5660910000000 1.0
C      1  0.4656750000000  0.5055840000000  0.5669620000000 1.0
C      1  0.4751870000000  0.4769670000000  0.5763370000000 1.0
C      1  0.5002370000000  0.4661100000000  0.5733380000000 1.0
C      1  0.5281630000000  0.4788920000000  0.5663610000000 1.0
C      1  0.5366570000000  0.5110320000000  0.5635180000000 1.0
C      1  0.5134040000000  0.5325620000000  0.5714950000000 1.0
C      1  0.5785040000000  0.4469730000000  0.5044550000000 1.0
C      1  0.5851430000000  0.5251180000000  0.5034050000000 1.0
C      1  0.5337220000000  0.5857660000000  0.5028130000000 1.0
C      1  0.4527740000000  0.5791930000000  0.5024810000000 1.0
C      1  0.4093350000000  0.5117270000000  0.5039880000000 1.0
C      1  0.4355750000000  0.4370740000000  0.5025500000000 1.0
C      1  0.5087650000000  0.4071650000000  0.5030750000000 1.0
C      1  0.5230640000000  0.5196840000000  0.4139400000000 1.0
C      1  0.4963970000000  0.5355320000000  0.4082670000000 1.0
C      1  0.4714980000000  0.5226040000000  0.4107260000000 1.0
C      1  0.4679000000000  0.4932670000000  0.4161210000000 1.0
C      1  0.4870470000000  0.4687480000000  0.4194920000000 1.0
C      1  0.5175090000000  0.4685340000000  0.4107880000000 1.0
C      1  0.5333190000000  0.4915430000000  0.4116710000000 1.0
C      1  0.4860900000000  0.4604490000000  0.5363560000000 1.0
C      1  0.5200780000000  0.4577010000000  0.5336600000000 1.0
C      1  0.5421650000000  0.4834910000000  0.5357170000000 1.0
C      1  0.5308490000000  0.5298670000000  0.5357830000000 1.0
C      1  0.5009320000000  0.5442760000000  0.5327250000000 1.0
C      1  0.4697600000000  0.5303070000000  0.5358180000000 1.0
C      1  0.4630260000000  0.4855510000000  0.5395070000000 1.0
C      1  0.4505000000000  0.5759730000000  0.5347490000000 1.0
C      1  0.4143140000000  0.5077730000000  0.5356720000000 1.0
C      1  0.4408580000000  0.4357310000000  0.5345820000000 1.0
C      1  0.5135040000000  0.4095470000000  0.5352380000000 1.0
C      1  0.5787270000000  0.4523170000000  0.5364460000000 1.0
C      1  0.5816910000000  0.5303740000000  0.5356650000000 1.0
C      1  0.5274000000000  0.5852480000000  0.5347230000000 1.0
C      1  0.6042400000000  0.4836390000000  0.4807250000000 1.0
C      1  0.5784780000000  0.5694240000000  0.4825700000000 1.0
C      1  0.4930930000000  0.6029350000000  0.4777350000000 1.0
C      1  0.4144370000000  0.5600090000000  0.4780580000000 1.0
C      1  0.4013060000000  0.4709300000000  0.4785550000000 1.0
C      1  0.4625560000000  0.4042010000000  0.4785560000000 1.0
C      1  0.5518380000000  0.4084980000000  0.4819230000000 1.0
C      1  0.4336630000000  0.4838980000000  0.5768010000000 1.0
C      1  0.4717670000000  0.4371690000000  0.5758520000000 1.0
C      1  0.5312750000000  0.4363780000000  0.5759450000000 1.0
C      1  0.5665200000000  0.4844240000000  0.5761340000000 1.0
C      1  0.5536990000000  0.5445760000000  0.5766830000000 1.0
C      1  0.4993720000000  0.5697790000000  0.5748070000000 1.0
C      1  0.4450260000000  0.5439410000000  0.5757230000000 1.0
C      1  0.4478480000000  0.4650290000000  0.4916170000000 1.0
C      1  0.4958970000000  0.4341920000000  0.4890010000000 1.0
C      1  0.5509840000000  0.4529310000000  0.4851560000000 1.0
C      1  0.5585430000000  0.5160060000000  0.4918560000000 1.0
C      1  0.5344690000000  0.5564520000000  0.4853040000000 1.0
C      1  0.4754470000000  0.5592580000000  0.4889330000000 1.0
C      1  0.4390370000000  0.5182880000000  0.4926300000000 1.0
C      1  0.4522410000000  0.5820740000000  0.4549100000000 1.0
C      1  0.4061950000000  0.5153490000000  0.4571060000000 1.0
C      1  0.4347940000000  0.4365570000000  0.4557600000000 1.0
C      1  0.5114130000000  0.4047180000000  0.4566420000000 1.0
C      1  0.5796890000000  0.4508170000000  0.4575940000000 1.0
C      1  0.5849010000000  0.5246030000000  0.4630500000000 1.0
C      1  0.5315740000000  0.5858330000000  0.4560790000000 1.0
C      1  0.5259570000000  0.3981390000000  0.4802840000000 1.0
C      1  0.5944700000000  0.4572180000000  0.4803870000000 1.0
C      1  0.5942640000000  0.5461790000000  0.4825160000000 1.0
C      1  0.5211400000000  0.5995150000000  0.4782580000000 1.0
C      1  0.4342410000000  0.5804920000000  0.4780760000000 1.0
C      1  0.3966720000000  0.4987560000000  0.4795480000000 1.0
C      1  0.4392050000000  0.4196750000000  0.4781920000000 1.0
C      1  0.4602130000000  0.5139650000000  0.4493460000000 1.0
C      1  0.4693190000000  0.4850880000000  0.4513900000000 1.0
C      1  0.5029580000000  0.4641420000000  0.4476960000000 1.0
C      1  0.5291900000000  0.4817890000000  0.4502100000000 1.0
C      1  0.5304720000000  0.5093200000000  0.4517870000000 1.0
C      1  0.5093140000000  0.5308860000000  0.4456980000000 1.0
C      1  0.4797070000000  0.5336350000000  0.4482590000000 1.0
C      1  0.4494620000000  0.4656980000000  0.4612940000000 1.0
C      1  0.5007560000000  0.4362510000000  0.4581390000000 1.0
C      1  0.5525480000000  0.4673760000000  0.4542450000000 1.0
C      1  0.5542050000000  0.5208020000000  0.4630860000000 1.0
C      1  0.5209710000000  0.5562970000000  0.4549550000000 1.0
C      1  0.4717610000000  0.5581130000000  0.4605840000000 1.0
C      1  0.4368170000000  0.5182540000000  0.4642910000000 1.0
C      1  0.4104510000000  0.5457610000000  0.4526090000000 1.0
C      1  0.4138330000000  0.4610470000000  0.4529050000000 1.0
C      1  0.4792070000000  0.4065820000000  0.4538800000000 1.0
C      1  0.5568010000000  0.4282340000000  0.4595010000000 1.0
C      1  0.5967850000000  0.4989120000000  0.4567740000000 1.0
C      1  0.5582340000000  0.5683380000000  0.4603040000000 1.0
C      1  0.4798270000000  0.5962840000000  0.4522020000000 1.0
C      1  0.4116090000000  0.5456510000000  0.5024180000000 1.0
C      1  0.4098830000000  0.4590220000000  0.5025350000000 1.0
C      1  0.4758800000000  0.4025440000000  0.5030370000000 1.0
C      1  0.5627800000000  0.4171870000000  0.5057890000000 1.0
C      1  0.6026500000000  0.4976940000000  0.5052300000000 1.0
C      1  0.5666980000000  0.5787770000000  0.5059440000000 1.0
C      1  0.4800950000000  0.5981960000000  0.5020370000000 1.0
C      1  0.5611190000000  0.5509390000000  0.4361060000000 1.0
C      1  0.4940990000000  0.5856780000000  0.4295990000000 1.0
C      1  0.4280410000000  0.5499770000000  0.4302400000000 1.0
C      1  0.4182240000000  0.4761900000000  0.4270600000000 1.0
C      1  0.4693520000000  0.4201810000000  0.4285520000000 1.0
C      1  0.5410560000000  0.4274350000000  0.4337960000000 1.0
C      1  0.5837010000000  0.4872300000000  0.4339390000000 1.0
C      1  0.5600860000000  0.4279220000000  0.5341020000000 1.0
C      1  0.5915370000000  0.5008590000000  0.5340680000000 1.0
C      1  0.5556560000000  0.5735840000000  0.5336910000000 1.0
C      1  0.4782280000000  0.5888640000000  0.5313870000000 1.0
C      1  0.4192080000000  0.5380930000000  0.5317790000000 1.0
C      1  0.4202460000000  0.4586440000000  0.5320670000000 1.0
C      1  0.4825790000000  0.4098010000000  0.5326900000000 1.0
C      1  0.5280510000000  0.4686080000000  0.5019190000000 1.0
C      1  0.5379650000000  0.5005880000000  0.5086410000000 1.0
C      1  0.5232590000000  0.5310480000000  0.5026300000000 1.0
C      1  0.4895860000000  0.5362270000000  0.5021120000000 1.0
C      1  0.4651250000000  0.5131840000000  0.5076240000000 1.0
C      1  0.4682840000000  0.4807930000000  0.5073550000000 1.0
C      1  0.4949820000000  0.4607490000000  0.5034110000000 1.0
C      1  0.5727140000000  0.4804370000000  0.5455710000000 1.0
C      1  0.5576340000000  0.5457220000000  0.5454100000000 1.0
C      1  0.5012620000000  0.5734160000000  0.5437910000000 1.0
C      1  0.4441820000000  0.5482960000000  0.5445970000000 1.0
C      1  0.4298240000000  0.4840100000000  0.5453870000000 1.0
C      1  0.4692620000000  0.4340750000000  0.5448640000000 1.0
C      1  0.5320560000000  0.4313620000000  0.5451940000000 1.0
C      1  0.5003460000000  0.5008820000000  0.5218130000000 1.0
C      1  0.4984330000000  0.4909210000000  0.6062270000000 1.0
C      1  0.4952640000000  0.4872940000000  0.4705510000000 1.0
C      1  0.5007290000000  0.5019550000000  0.5493570000000 1.0
C      1  0.5010690000000  0.4989870000000  0.4938550000000 1.0
C      1  0.5029730000000  0.5045530000000  0.5833360000000 1.0
END
