TITL C-2782240-8521-1096 0.00106524062142841 125000 -712.808769660276 0 0 124 (C1) n - 1
REM
REM in /home/nfs/bkarasulu/CARBON/AIRSS/Generating-Clusters/REBO/Higher-Symm/SD-CG/HFTN-CG
REM
REM
REM
REM
REM
REM ./C.cell (12c818d87b63d06a65506943cc24bca4)
REM
REM compiler GCC version 9.2.1 20190827 (Red Hat 9.2.1-1)
REM options -cpp -mtune=generic -march=x86-64 -g -O0 -fpre-include=/usr/include/finclude/math-vector-fortran.h
REM seed -815913866 1938871304 -1718438213 1408506814 -282992644 1726124888 -1463277595 1276486274 130468123 -115583518 1215904218 -237000498 -1482973633 -1362373222 1727463548 548322284 -966635228 1100782318 811660336 1249452325 1375671389 -2106800302 38529602 -1062190421 335208557 399733638 1538506134 -397320712 632654835 793837646 -582285365 1730751954 -169925113
REM
CELL 1.54180   50.00000   50.00000   50.00000   90.00000   90.00000   90.00000
LATT -1
SFAC C  
C      1  0.4688450000000  0.5155700000000  0.4434940000000 1.0
C      1  0.5372520000000  0.4768130000000  0.4423670000000 1.0
C      1  0.4601990000000  0.4409330000000  0.4689060000000 1.0
C      1  0.5341050000000  0.4469500000000  0.5032250000000 1.0
C      1  0.4583000000000  0.4387520000000  0.5445440000000 1.0
C      1  0.5436010000000  0.4902130000000  0.5729490000000 1.0
C      1  0.4654130000000  0.5171430000000  0.5485450000000 1.0
C      1  0.5450740000000  0.5620000000000  0.5414990000000 1.0
C      1  0.4604380000000  0.5640830000000  0.4875220000000 1.0
C      1  0.5385130000000  0.5572410000000  0.4593610000000 1.0
C      1  0.5718790000000  0.5493110000000  0.4818960000000 1.0
C      1  0.4282070000000  0.5239290000000  0.4515970000000 1.0
C      1  0.5722060000000  0.5034120000000  0.4495410000000 1.0
C      1  0.4283250000000  0.4653090000000  0.4623100000000 1.0
C      1  0.5761360000000  0.4564730000000  0.4837580000000 1.0
C      1  0.4240530000000  0.4566500000000  0.5147960000000 1.0
C      1  0.5777620000000  0.4785660000000  0.5395070000000 1.0
C      1  0.4220840000000  0.5052400000000  0.5428470000000 1.0
C      1  0.5753190000000  0.5363770000000  0.5359800000000 1.0
C      1  0.4258880000000  0.5479730000000  0.5060180000000 1.0
C      1  0.4023200000000  0.4777790000000  0.5040300000000 1.0
C      1  0.5976610000000  0.4926280000000  0.5177370000000 1.0
C      1  0.4015890000000  0.5031920000000  0.5179990000000 1.0
C      1  0.5973180000000  0.5216110000000  0.5164270000000 1.0
C      1  0.4042360000000  0.5242750000000  0.4984420000000 1.0
C      1  0.5955710000000  0.5290510000000  0.4884570000000 1.0
C      1  0.4056330000000  0.5120730000000  0.4723470000000 1.0
C      1  0.5955570000000  0.5048340000000  0.4726350000000 1.0
C      1  0.4047760000000  0.4832280000000  0.4758780000000 1.0
C      1  0.5972130000000  0.4820680000000  0.4908120000000 1.0
C      1  0.4837720000000  0.4633010000000  0.4217240000000 1.0
C      1  0.5011270000000  0.4311620000000  0.4715790000000 1.0
C      1  0.4913940000000  0.4074650000000  0.5244670000000 1.0
C      1  0.5110710000000  0.4509290000000  0.5590400000000 1.0
C      1  0.4832320000000  0.4881800000000  0.5889470000000 1.0
C      1  0.5129890000000  0.5360230000000  0.5817820000000 1.0
C      1  0.4921740000000  0.5711490000000  0.5316530000000 1.0
C      1  0.5135570000000  0.5840380000000  0.4787760000000 1.0
C      1  0.4902690000000  0.5613630000000  0.4353080000000 1.0
C      1  0.5111760000000  0.5111170000000  0.4078320000000 1.0
C      1  0.4933160000000  0.5350060000000  0.4538200000000 1.0
C      1  0.5213700000000  0.5039680000000  0.4372910000000 1.0
C      1  0.4802840000000  0.4645890000000  0.4558120000000 1.0
C      1  0.5073480000000  0.4606540000000  0.4872410000000 1.0
C      1  0.4774380000000  0.4373000000000  0.5201360000000 1.0
C      1  0.5246310000000  0.4772560000000  0.5473330000000 1.0
C      1  0.4707470000000  0.4875870000000  0.5590760000000 1.0
C      1  0.5264500000000  0.5356550000000  0.5508050000000 1.0
C      1  0.4763440000000  0.5517690000000  0.5135210000000 1.0
C      1  0.5182670000000  0.5525560000000  0.4863830000000 1.0
C      1  0.4521410000000  0.4677700000000  0.5520330000000 1.0
C      1  0.5372340000000  0.5087300000000  0.5464020000000 1.0
C      1  0.4704400000000  0.5225380000000  0.5181810000000 1.0
C      1  0.5291180000000  0.5320450000000  0.5030440000000 1.0
C      1  0.4728740000000  0.5334540000000  0.4788440000000 1.0
C      1  0.5239860000000  0.5264240000000  0.4571830000000 1.0
C      1  0.4730700000000  0.4925700000000  0.4663330000000 1.0
C      1  0.5287010000000  0.4823480000000  0.4748820000000 1.0
C      1  0.4757090000000  0.4562110000000  0.4946140000000 1.0
C      1  0.5306120000000  0.4776930000000  0.5154760000000 1.0
C      1  0.5479270000000  0.4328860000000  0.4210700000000 1.0
C      1  0.4372810000000  0.3937130000000  0.4783290000000 1.0
C      1  0.5596760000000  0.4116760000000  0.5286150000000 1.0
C      1  0.4531490000000  0.4246290000000  0.5940240000000 1.0
C      1  0.5404570000000  0.4859840000000  0.6231390000000 1.0
C      1  0.4642840000000  0.5450990000000  0.5908400000000 1.0
C      1  0.5592880000000  0.5992110000000  0.5146570000000 1.0
C      1  0.4470110000000  0.6061580000000  0.4631090000000 1.0
C      1  0.5617690000000  0.5486520000000  0.4141700000000 1.0
C      1  0.4404980000000  0.5102810000000  0.3997000000000 1.0
C      1  0.5057000000000  0.5084030000000  0.5943730000000 1.0
C      1  0.4998300000000  0.5546180000000  0.5559460000000 1.0
C      1  0.5139080000000  0.5824320000000  0.5124400000000 1.0
C      1  0.4915170000000  0.5839220000000  0.4571380000000 1.0
C      1  0.5120800000000  0.5427350000000  0.4194920000000 1.0
C      1  0.4871280000000  0.4905430000000  0.4074140000000 1.0
C      1  0.5034410000000  0.4445330000000  0.4408070000000 1.0
C      1  0.4841620000000  0.4172320000000  0.4925180000000 1.0
C      1  0.5129000000000  0.4246340000000  0.5403620000000 1.0
C      1  0.4887610000000  0.4569050000000  0.5781830000000 1.0
C      1  0.4468650000000  0.5378360000000  0.4310780000000 1.0
C      1  0.5576100000000  0.4948500000000  0.4235290000000 1.0
C      1  0.4414410000000  0.4453430000000  0.4427530000000 1.0
C      1  0.5517370000000  0.4369800000000  0.4795420000000 1.0
C      1  0.4385920000000  0.4284630000000  0.5185840000000 1.0
C      1  0.5614320000000  0.4668760000000  0.5620970000000 1.0
C      1  0.4395750000000  0.5102980000000  0.5691900000000 1.0
C      1  0.5623110000000  0.5479500000000  0.5632960000000 1.0
C      1  0.4427880000000  0.5731550000000  0.5137770000000 1.0
C      1  0.5633180000000  0.5760340000000  0.4681410000000 1.0
C      1  0.4613270000000  0.5601260000000  0.4227680000000 1.0
C      1  0.5430010000000  0.5049140000000  0.4020030000000 1.0
C      1  0.4549650000000  0.4498310000000  0.4190010000000 1.0
C      1  0.5327330000000  0.4233940000000  0.4635760000000 1.0
C      1  0.4576900000000  0.4032310000000  0.5264910000000 1.0
C      1  0.5444390000000  0.4445070000000  0.5602720000000 1.0
C      1  0.4511680000000  0.4984790000000  0.5921280000000 1.0
C      1  0.5464520000000  0.5414140000000  0.5848990000000 1.0
C      1  0.4607620000000  0.5828930000000  0.5330580000000 1.0
C      1  0.5413160000000  0.5957400000000  0.4697680000000 1.0
C      1  0.4405390000000  0.4952550000000  0.4627850000000 1.0
C      1  0.5617410000000  0.4835820000000  0.4727080000000 1.0
C      1  0.4442130000000  0.4688290000000  0.4923800000000 1.0
C      1  0.5639450000000  0.4723010000000  0.5107450000000 1.0
C      1  0.4277890000000  0.4747970000000  0.5401480000000 1.0
C      1  0.5623450000000  0.5073800000000  0.5293290000000 1.0
C      1  0.4377470000000  0.5200210000000  0.5198100000000 1.0
C      1  0.5562160000000  0.5413000000000  0.5092800000000 1.0
C      1  0.4399850000000  0.5304230000000  0.4814240000000 1.0
C      1  0.5544670000000  0.5227260000000  0.4715510000000 1.0
C      1  0.4669600000000  0.4384530000000  0.5746750000000 1.0
C      1  0.5308730000000  0.4947350000000  0.5989160000000 1.0
C      1  0.4753300000000  0.5395460000000  0.5675910000000 1.0
C      1  0.5402440000000  0.5817750000000  0.5232000000000 1.0
C      1  0.4654170000000  0.5865220000000  0.4688210000000 1.0
C      1  0.5383010000000  0.5503090000000  0.4285260000000 1.0
C      1  0.4633820000000  0.5057350000000  0.4140820000000 1.0
C      1  0.5316180000000  0.4493940000000  0.4332340000000 1.0
C      1  0.4511570000000  0.4179790000000  0.4899770000000 1.0
C      1  0.5368430000000  0.4266050000000  0.5248600000000 1.0
C      1  0.4461220000000  0.5002130000000  0.4956440000000 1.0
C      1  0.5562080000000  0.5031120000000  0.4983730000000 1.0
C      1  0.5162890000000  0.5030200000000  0.4986930000000 1.0
C      1  0.4856600000000  0.5061180000000  0.4945910000000 1.0
END
