TITL C-2782232-2968-532 0.00115765477017828 125000 -195.122601976636 0 0 35 (C1) n - 1
REM
REM in /home/nfs/bkarasulu/CARBON/AIRSS/Generating-Clusters/REBO/Higher-Symm/SD-CG/HFTN-CG
REM
REM
REM
REM
REM
REM ./C.cell (12c818d87b63d06a65506943cc24bca4)
REM
REM compiler GCC version 9.2.1 20190827 (Red Hat 9.2.1-1)
REM options -cpp -mtune=generic -march=x86-64 -g -O0 -fpre-include=/usr/include/finclude/math-vector-fortran.h
REM seed 265580082 33537075 261283353 -1045874295 -958763040 108476503 -1429198080 -1457154412 -1144581371 -1791498359 1894662535 852317423 -1063800583 -220928960 -943688939 -731523617 1323718936 1537486621 -1244932626 1159067489 -1432712301 1548935170 891261790 -1171079931 -1138663210 -463496747 -1554039360 724935197 1583107340 203882312 1324098688 -554227455 345669206
REM
CELL 1.54180   50.00000   50.00000   50.00000   90.00000   90.00000   90.00000
LATT -1
SFAC C  
C      1  0.4056360000000  0.5137810000000  0.4960150000000 1.0
C      1  0.5405490000000  0.5181990000000  0.4129170000000 1.0
C      1  0.5594400000000  0.5184430000000  0.5793750000000 1.0
C      1  0.4139910000000  0.4821650000000  0.4901540000000 1.0
C      1  0.5401290000000  0.4901470000000  0.4129990000000 1.0
C      1  0.5590290000000  0.4903910000000  0.5794690000000 1.0
C      1  0.5153720000000  0.5479910000000  0.4769620000000 1.0
C      1  0.5166220000000  0.5481170000000  0.5254380000000 1.0
C      1  0.4741930000000  0.5462260000000  0.5022770000000 1.0
C      1  0.5140450000000  0.4615160000000  0.4772190000000 1.0
C      1  0.5153560000000  0.4616410000000  0.5257060000000 1.0
C      1  0.4730470000000  0.4653870000000  0.5025840000000 1.0
C      1  0.4246900000000  0.5264820000000  0.5194680000000 1.0
C      1  0.5197470000000  0.5307020000000  0.4290210000000 1.0
C      1  0.5558800000000  0.5305510000000  0.5531240000000 1.0
C      1  0.4250240000000  0.4899220000000  0.5214820000000 1.0
C      1  0.5189620000000  0.4783670000000  0.4291720000000 1.0
C      1  0.5551130000000  0.4782160000000  0.5533000000000 1.0
C      1  0.4183190000000  0.4912800000000  0.5527870000000 1.0
C      1  0.4933960000000  0.4908500000000  0.4227830000000 1.0
C      1  0.5734780000000  0.4900000000000  0.5339590000000 1.0
C      1  0.4192100000000  0.5184970000000  0.5488450000000 1.0
C      1  0.4938180000000  0.5189540000000  0.4227030000000 1.0
C      1  0.5738890000000  0.5181040000000  0.5338640000000 1.0
C      1  0.5272200000000  0.4788860000000  0.5443920000000 1.0
C      1  0.4508000000000  0.4792510000000  0.5032030000000 1.0
C      1  0.5249240000000  0.4786520000000  0.4578460000000 1.0
C      1  0.5279770000000  0.5306400000000  0.5442190000000 1.0
C      1  0.4512140000000  0.5336350000000  0.5028490000000 1.0
C      1  0.5257030000000  0.5304050000000  0.4576970000000 1.0
C      1  0.4386320000000  0.5065800000000  0.4880450000000 1.0
C      1  0.5155770000000  0.5049500000000  0.5475620000000 1.0
C      1  0.5340590000000  0.5044230000000  0.4666410000000 1.0
C      1  0.5018980000000  0.5507880000000  0.5015570000000 1.0
C      1  0.5005000000000  0.4594730000000  0.5018510000000 1.0
END
