TITL C-2782228-2999-480 -0.000906346417517246 125000 -619.351356432722 0 0 107 (C1) n - 1
REM
REM in /home/nfs/bkarasulu/CARBON/AIRSS/Generating-Clusters/REBO/Higher-Symm/SD-CG/HFTN-CG
REM
REM
REM
REM
REM
REM ./C.cell (12c818d87b63d06a65506943cc24bca4)
REM
REM compiler GCC version 9.2.1 20190827 (Red Hat 9.2.1-1)
REM options -cpp -mtune=generic -march=x86-64 -g -O0 -fpre-include=/usr/include/finclude/math-vector-fortran.h
REM seed 1144099932 -27108007 387509244 1283705366 -2139493830 1866224341 573372643 -1082912533 1790377651 -1714501775 -179906051 -241017002 352887749 280725897 -597682218 -804948178 -1624750269 -1749117298 399497003 1771290367 -1696831908 423385847 -824030445 -1771409974 -1620870725 647811051 -392255379 1490669535 -615441861 113259986 825811730 -257347095 1842572779
REM
CELL 1.54180   50.00000   50.00000   50.00000   90.00000   90.00000   90.00000
LATT -1
SFAC C  
C      1  0.5425220000000  0.5272500000000  0.5039550000000 1.0
C      1  0.4966000000000  0.5431870000000  0.5303220000000 1.0
C      1  0.5307080000000  0.5083840000000  0.5370870000000 1.0
C      1  0.4627000000000  0.4649140000000  0.5056380000000 1.0
C      1  0.4558810000000  0.5223810000000  0.5162660000000 1.0
C      1  0.5422460000000  0.4766690000000  0.4870990000000 1.0
C      1  0.5095020000000  0.4646310000000  0.5293750000000 1.0
C      1  0.5166870000000  0.5461200000000  0.4676120000000 1.0
C      1  0.5030680000000  0.4496650000000  0.4698110000000 1.0
C      1  0.4742270000000  0.5027790000000  0.5373680000000 1.0
C      1  0.4647230000000  0.4987490000000  0.4453710000000 1.0
C      1  0.5170970000000  0.4917710000000  0.4508170000000 1.0
C      1  0.5055790000000  0.4828910000000  0.6043430000000 1.0
C      1  0.6134760000000  0.4890650000000  0.4847790000000 1.0
C      1  0.4980170000000  0.5898140000000  0.4965170000000 1.0
C      1  0.5171060000000  0.5243110000000  0.5856970000000 1.0
C      1  0.4754480000000  0.4812570000000  0.4102100000000 1.0
C      1  0.4974050000000  0.5226700000000  0.4137390000000 1.0
C      1  0.3883110000000  0.4763620000000  0.4737790000000 1.0
C      1  0.3813750000000  0.4976580000000  0.5182050000000 1.0
C      1  0.5739970000000  0.4974680000000  0.5098290000000 1.0
C      1  0.5160250000000  0.3945580000000  0.5185060000000 1.0
C      1  0.5326970000000  0.5961060000000  0.5150950000000 1.0
C      1  0.4717100000000  0.4158890000000  0.5051050000000 1.0
C      1  0.4527280000000  0.4709060000000  0.4295100000000 1.0
C      1  0.4456090000000  0.4446710000000  0.4956430000000 1.0
C      1  0.4960600000000  0.4383640000000  0.4434850000000 1.0
C      1  0.5374410000000  0.5079350000000  0.4364800000000 1.0
C      1  0.5489930000000  0.4877810000000  0.5695920000000 1.0
C      1  0.4498120000000  0.5122540000000  0.5564800000000 1.0
C      1  0.5655460000000  0.5430500000000  0.4982610000000 1.0
C      1  0.5533930000000  0.4529770000000  0.4984910000000 1.0
C      1  0.4405680000000  0.5439870000000  0.4951250000000 1.0
C      1  0.5253020000000  0.5787060000000  0.4606590000000 1.0
C      1  0.5000070000000  0.4357970000000  0.5447560000000 1.0
C      1  0.4873220000000  0.5724190000000  0.5405800000000 1.0
C      1  0.5190180000000  0.5026520000000  0.4125870000000 1.0
C      1  0.3705230000000  0.4929590000000  0.4908920000000 1.0
C      1  0.4919910000000  0.4115890000000  0.5294440000000 1.0
C      1  0.4733970000000  0.5096830000000  0.4046830000000 1.0
C      1  0.5039130000000  0.5148680000000  0.6115090000000 1.0
C      1  0.5313920000000  0.4969270000000  0.5889000000000 1.0
C      1  0.5701880000000  0.5047140000000  0.4815270000000 1.0
C      1  0.6017740000000  0.4877150000000  0.5105380000000 1.0
C      1  0.4030930000000  0.4744150000000  0.5044260000000 1.0
C      1  0.5024140000000  0.5928490000000  0.5260980000000 1.0
C      1  0.4951520000000  0.3967850000000  0.4926880000000 1.0
C      1  0.5247420000000  0.5962030000000  0.4843360000000 1.0
C      1  0.5028430000000  0.5851580000000  0.4401620000000 1.0
C      1  0.4415710000000  0.4651880000000  0.5499020000000 1.0
C      1  0.5506890000000  0.4331070000000  0.4540510000000 1.0
C      1  0.5409310000000  0.4432930000000  0.4304400000000 1.0
C      1  0.4861160000000  0.5732450000000  0.5725290000000 1.0
C      1  0.4848450000000  0.4434460000000  0.5704840000000 1.0
C      1  0.5877260000000  0.5279260000000  0.5599290000000 1.0
C      1  0.6013170000000  0.5083730000000  0.4126880000000 1.0
C      1  0.4312930000000  0.4912240000000  0.4446160000000 1.0
C      1  0.4400770000000  0.5441320000000  0.4623710000000 1.0
C      1  0.4293370000000  0.4406170000000  0.5420780000000 1.0
C      1  0.5862000000000  0.5491850000000  0.5426550000000 1.0
C      1  0.5517750000000  0.4500270000000  0.5260620000000 1.0
C      1  0.5509370000000  0.5643580000000  0.4516110000000 1.0
C      1  0.4450120000000  0.5395220000000  0.5562970000000 1.0
C      1  0.4389440000000  0.5504440000000  0.5258990000000 1.0
C      1  0.4350850000000  0.4499020000000  0.4693580000000 1.0
C      1  0.5690710000000  0.5456800000000  0.4703380000000 1.0
C      1  0.4704110000000  0.4275430000000  0.4412990000000 1.0
C      1  0.4562100000000  0.5689780000000  0.5465900000000 1.0
C      1  0.5315210000000  0.4372080000000  0.5478710000000 1.0
C      1  0.5376130000000  0.4700300000000  0.5490890000000 1.0
C      1  0.5438410000000  0.5317900000000  0.4522320000000 1.0
C      1  0.4490750000000  0.4452160000000  0.4451560000000 1.0
C      1  0.5731310000000  0.5608760000000  0.5202770000000 1.0
C      1  0.4867860000000  0.5498410000000  0.5823720000000 1.0
C      1  0.5726350000000  0.5040860000000  0.5594620000000 1.0
C      1  0.4317910000000  0.4304740000000  0.5163120000000 1.0
C      1  0.4609890000000  0.5625610000000  0.4773900000000 1.0
C      1  0.5475160000000  0.4300100000000  0.4820480000000 1.0
C      1  0.4873860000000  0.4660500000000  0.5844680000000 1.0
C      1  0.4869480000000  0.5662960000000  0.4345750000000 1.0
C      1  0.5138920000000  0.4502710000000  0.4239530000000 1.0
C      1  0.4295710000000  0.4921450000000  0.5515790000000 1.0
C      1  0.4206280000000  0.4775730000000  0.4689630000000 1.0
C      1  0.5979000000000  0.5041820000000  0.4383310000000 1.0
C      1  0.5580810000000  0.5002460000000  0.5328440000000 1.0
C      1  0.5572040000000  0.5843450000000  0.5225400000000 1.0
C      1  0.4958760000000  0.5272430000000  0.5604410000000 1.0
C      1  0.4144580000000  0.4972420000000  0.5262090000000 1.0
C      1  0.4327760000000  0.4903070000000  0.4981020000000 1.0
C      1  0.5942940000000  0.4997600000000  0.4653910000000 1.0
C      1  0.4978600000000  0.4359940000000  0.4983670000000 1.0
C      1  0.4863490000000  0.5652380000000  0.4872070000000 1.0
C      1  0.5241930000000  0.4151150000000  0.4925210000000 1.0
C      1  0.4923360000000  0.4954840000000  0.5721630000000 1.0
C      1  0.4958710000000  0.5370920000000  0.4423840000000 1.0
C      1  0.5046250000000  0.4751620000000  0.4120650000000 1.0
C      1  0.4657860000000  0.4970540000000  0.4986950000000 1.0
C      1  0.5015030000000  0.4700350000000  0.4976160000000 1.0
C      1  0.4907850000000  0.5075360000000  0.4558650000000 1.0
C      1  0.5320280000000  0.5031480000000  0.4933450000000 1.0
C      1  0.5008520000000  0.5369900000000  0.4967250000000 1.0
C      1  0.5056740000000  0.4930860000000  0.5422270000000 1.0
C      1  0.5250250000000  0.4702300000000  0.4653490000000 1.0
C      1  0.4406280000000  0.5224870000000  0.4460020000000 1.0
C      1  0.4651380000000  0.4721980000000  0.5338630000000 1.0
C      1  0.5264260000000  0.5354680000000  0.5273790000000 1.0
C      1  0.4978310000000  0.5034140000000  0.4891500000000 1.0
END
