TITL C-2782237-5345-781 -0.000906108881256029 125000 -290.338708074686 0 0 53 (C1) n - 1
REM
REM in /home/nfs/bkarasulu/CARBON/AIRSS/Generating-Clusters/REBO/Higher-Symm/SD-CG/HFTN-CG
REM
REM
REM
REM
REM
REM ./C.cell (12c818d87b63d06a65506943cc24bca4)
REM
REM compiler GCC version 9.2.1 20190827 (Red Hat 9.2.1-1)
REM options -cpp -mtune=generic -march=x86-64 -g -O0 -fpre-include=/usr/include/finclude/math-vector-fortran.h
REM seed 819502904 524969543 -1837184143 1132669973 996498502 362761711 -830511033 881812905 136378523 1845452877 501132204 738304590 -796997368 -909327229 1206288319 139023865 1256727432 1739633288 2070104414 921978244 -1405390712 -710186968 1382484427 145790546 1915051640 -444572314 -775374302 805270874 -747598753 747213880 -1417035287 1054200564 -1552878606
REM
CELL 1.54180   50.00000   50.00000   50.00000   90.00000   90.00000   90.00000
LATT -1
SFAC C  
C      1  0.4607240000000  0.4637180000000  0.3765930000000 1.0
C      1  0.5021450000000  0.5904660000000  0.3741880000000 1.0
C      1  0.5735250000000  0.4735740000000  0.6062820000000 1.0
C      1  0.4824050000000  0.5591510000000  0.5472240000000 1.0
C      1  0.4367530000000  0.5231740000000  0.5080810000000 1.0
C      1  0.5281830000000  0.4457320000000  0.3972420000000 1.0
C      1  0.5172180000000  0.5467500000000  0.3431100000000 1.0
C      1  0.5345200000000  0.4497320000000  0.6347440000000 1.0
C      1  0.4421240000000  0.5368220000000  0.5826620000000 1.0
C      1  0.4395250000000  0.4582570000000  0.4906180000000 1.0
C      1  0.5450740000000  0.4891630000000  0.5674810000000 1.0
C      1  0.5058200000000  0.5150720000000  0.5476350000000 1.0
C      1  0.4830740000000  0.5102710000000  0.4958730000000 1.0
C      1  0.4929730000000  0.5327030000000  0.4514880000000 1.0
C      1  0.4981480000000  0.5622100000000  0.4130850000000 1.0
C      1  0.4961080000000  0.4598120000000  0.6034050000000 1.0
C      1  0.4644790000000  0.4920810000000  0.5790120000000 1.0
C      1  0.4474970000000  0.4677590000000  0.5379560000000 1.0
C      1  0.5140020000000  0.4869770000000  0.4213810000000 1.0
C      1  0.5145120000000  0.5177690000000  0.3816100000000 1.0
C      1  0.5040910000000  0.5657140000000  0.3855070000000 1.0
C      1  0.5476630000000  0.4741220000000  0.5958110000000 1.0
C      1  0.4827610000000  0.5328760000000  0.5558930000000 1.0
C      1  0.4551240000000  0.5025970000000  0.5045870000000 1.0
C      1  0.4839310000000  0.4641900000000  0.3887590000000 1.0
C      1  0.5119640000000  0.5434480000000  0.3696780000000 1.0
C      1  0.5274110000000  0.4618420000000  0.6106290000000 1.0
C      1  0.4631170000000  0.5219830000000  0.5723910000000 1.0
C      1  0.4467530000000  0.4755240000000  0.5103540000000 1.0
C      1  0.5084970000000  0.4646900000000  0.4016380000000 1.0
C      1  0.4850830000000  0.5401240000000  0.4803990000000 1.0
C      1  0.4904610000000  0.5835080000000  0.4282910000000 1.0
C      1  0.5684050000000  0.4926940000000  0.5525920000000 1.0
C      1  0.5267320000000  0.5131630000000  0.5692360000000 1.0
C      1  0.5053870000000  0.5046380000000  0.5152430000000 1.0
C      1  0.5432040000000  0.4856840000000  0.4323300000000 1.0
C      1  0.5225010000000  0.4965080000000  0.3665100000000 1.0
C      1  0.4811540000000  0.4401420000000  0.6163920000000 1.0
C      1  0.4833530000000  0.4871800000000  0.6018930000000 1.0
C      1  0.4369360000000  0.4760880000000  0.5669410000000 1.0
C      1  0.5186220000000  0.5205240000000  0.5943400000000 1.0
C      1  0.4958790000000  0.4849100000000  0.5394050000000 1.0
C      1  0.4902620000000  0.5044860000000  0.4638800000000 1.0
C      1  0.5000380000000  0.5363070000000  0.4246450000000 1.0
C      1  0.5283870000000  0.4623560000000  0.5628240000000 1.0
C      1  0.4989720000000  0.5084370000000  0.6092360000000 1.0
C      1  0.4735660000000  0.4752270000000  0.5524850000000 1.0
C      1  0.4962300000000  0.4842560000000  0.4471140000000 1.0
C      1  0.5089760000000  0.5146310000000  0.4089280000000 1.0
C      1  0.5102640000000  0.4517920000000  0.5759440000000 1.0
C      1  0.5325310000000  0.5003980000000  0.5023650000000 1.0
C      1  0.5541770000000  0.4893610000000  0.4565640000000 1.0
C      1  0.5492160000000  0.4950030000000  0.4823830000000 1.0
END
