TITL C-2782239-8622-743 0.00126021411103844 125000 -421.693048755222 0 0 74 (C1) n - 1
REM
REM in /home/nfs/bkarasulu/CARBON/AIRSS/Generating-Clusters/REBO/Higher-Symm/SD-CG/HFTN-CG
REM
REM
REM
REM
REM
REM ./C.cell (12c818d87b63d06a65506943cc24bca4)
REM
REM compiler GCC version 9.2.1 20190827 (Red Hat 9.2.1-1)
REM options -cpp -mtune=generic -march=x86-64 -g -O0 -fpre-include=/usr/include/finclude/math-vector-fortran.h
REM seed -1498535580 -1493623457 -2121552819 -1146864258 -545340237 543569511 808295884 539108187 -868416946 -1722099245 -788160133 182286580 -1768265140 1458290549 620978385 -1984602482 631193265 -1444393302 -1556833946 -513107394 309474552 396891629 1931512586 -1345562089 -1197328378 -387396309 744184576 -1079557205 1386837442 104846855 -1174492122 466365785 -528172236
REM
CELL 1.54180   50.00000   50.00000   50.00000   90.00000   90.00000   90.00000
LATT -1
SFAC C  
C      1  0.4824330000000  0.4705550000000  0.5037240000000 1.0
C      1  0.4822950000000  0.5296790000000  0.4965510000000 1.0
C      1  0.5160150000000  0.4650450000000  0.5036700000000 1.0
C      1  0.5158530000000  0.5355350000000  0.4967720000000 1.0
C      1  0.5641050000000  0.5582750000000  0.5083650000000 1.0
C      1  0.5644430000000  0.4433840000000  0.4910830000000 1.0
C      1  0.4335340000000  0.5590740000000  0.4884110000000 1.0
C      1  0.4337750000000  0.4409340000000  0.5115770000000 1.0
C      1  0.5694380000000  0.5234150000000  0.5322410000000 1.0
C      1  0.5691140000000  0.4756340000000  0.4679690000000 1.0
C      1  0.4388330000000  0.5341300000000  0.4577780000000 1.0
C      1  0.4388640000000  0.4658470000000  0.5422680000000 1.0
C      1  0.4786350000000  0.5604170000000  0.4529510000000 1.0
C      1  0.4787270000000  0.4395270000000  0.5469310000000 1.0
C      1  0.5219770000000  0.5517870000000  0.5401470000000 1.0
C      1  0.5222310000000  0.4474320000000  0.4587780000000 1.0
C      1  0.5137520000000  0.4740150000000  0.4412860000000 1.0
C      1  0.5136410000000  0.5256760000000  0.5582270000000 1.0
C      1  0.4887110000000  0.4668190000000  0.5624670000000 1.0
C      1  0.4887600000000  0.5331120000000  0.4373930000000 1.0
C      1  0.5476040000000  0.4731510000000  0.4932870000000 1.0
C      1  0.5475510000000  0.5281010000000  0.5075040000000 1.0
C      1  0.4496290000000  0.4714540000000  0.5133610000000 1.0
C      1  0.4495380000000  0.5286320000000  0.4867560000000 1.0
C      1  0.5702570000000  0.5251820000000  0.4748640000000 1.0
C      1  0.5706340000000  0.4742150000000  0.5257570000000 1.0
C      1  0.4359480000000  0.5282850000000  0.5243710000000 1.0
C      1  0.4360810000000  0.4718520000000  0.4757330000000 1.0
C      1  0.4482790000000  0.4413940000000  0.5511680000000 1.0
C      1  0.4482010000000  0.5585540000000  0.4487750000000 1.0
C      1  0.5543360000000  0.4469320000000  0.4596950000000 1.0
C      1  0.5539590000000  0.5518790000000  0.5390100000000 1.0
C      1  0.4190370000000  0.4888340000000  0.4917700000000 1.0
C      1  0.4190030000000  0.5112490000000  0.5082770000000 1.0
C      1  0.5804850000000  0.4981860000000  0.5143500000000 1.0
C      1  0.5800540000000  0.5011200000000  0.4860910000000 1.0
C      1  0.4826230000000  0.5220100000000  0.5573740000000 1.0
C      1  0.4827850000000  0.4780870000000  0.4429460000000 1.0
C      1  0.5183960000000  0.5286290000000  0.4420440000000 1.0
C      1  0.5183600000000  0.4712020000000  0.5580550000000 1.0
C      1  0.4835470000000  0.5068260000000  0.5204270000000 1.0
C      1  0.4836610000000  0.4933950000000  0.4798630000000 1.0
C      1  0.5096650000000  0.5075290000000  0.4780550000000 1.0
C      1  0.5096150000000  0.4927520000000  0.5225860000000 1.0
C      1  0.4448120000000  0.4887480000000  0.5573920000000 1.0
C      1  0.4448790000000  0.5112230000000  0.4427110000000 1.0
C      1  0.5573760000000  0.4975340000000  0.4491430000000 1.0
C      1  0.5572720000000  0.5019300000000  0.5510810000000 1.0
C      1  0.5612890000000  0.5535260000000  0.4689360000000 1.0
C      1  0.5613420000000  0.4460090000000  0.5307540000000 1.0
C      1  0.4448320000000  0.5548800000000  0.5163460000000 1.0
C      1  0.4450480000000  0.4453000000000  0.4836700000000 1.0
C      1  0.4892790000000  0.5499330000000  0.5390250000000 1.0
C      1  0.4895350000000  0.4498780000000  0.4607800000000 1.0
C      1  0.5110020000000  0.5551230000000  0.4622640000000 1.0
C      1  0.5111660000000  0.4447270000000  0.5377520000000 1.0
C      1  0.4736970000000  0.4383030000000  0.4824150000000 1.0
C      1  0.4734720000000  0.5620560000000  0.5175590000000 1.0
C      1  0.5367020000000  0.4368030000000  0.5226930000000 1.0
C      1  0.5366790000000  0.5631230000000  0.4769010000000 1.0
C      1  0.5389860000000  0.5205410000000  0.4662890000000 1.0
C      1  0.5389810000000  0.4789750000000  0.5336800000000 1.0
C      1  0.4561030000000  0.5133320000000  0.5395870000000 1.0
C      1  0.4562720000000  0.4868390000000  0.4606430000000 1.0
C      1  0.4868140000000  0.5606760000000  0.4860190000000 1.0
C      1  0.4870670000000  0.4395340000000  0.5139080000000 1.0
C      1  0.5302600000000  0.5637460000000  0.5093830000000 1.0
C      1  0.5306290000000  0.4374210000000  0.4901400000000 1.0
C      1  0.4735570000000  0.4906370000000  0.5670260000000 1.0
C      1  0.4735930000000  0.5093160000000  0.4329500000000 1.0
C      1  0.5294200000000  0.4970570000000  0.4358940000000 1.0
C      1  0.5292070000000  0.5026440000000  0.5638920000000 1.0
C      1  0.5339690000000  0.5003850000000  0.5003750000000 1.0
C      1  0.4564530000000  0.5000540000000  0.5000840000000 1.0
END
