TITL C-2782232-2968-1467 -0.0023959702983147 125000 -1015.95425513285 0 0 177 (C1) n - 1
REM
REM in /home/nfs/bkarasulu/CARBON/AIRSS/Generating-Clusters/REBO/Higher-Symm/SD-CG/HFTN-CG
REM
REM
REM
REM
REM
REM ./C.cell (12c818d87b63d06a65506943cc24bca4)
REM
REM compiler GCC version 9.2.1 20190827 (Red Hat 9.2.1-1)
REM options -cpp -mtune=generic -march=x86-64 -g -O0 -fpre-include=/usr/include/finclude/math-vector-fortran.h
REM seed -1604917234 1401673631 -1668341526 -1791766765 -96682458 1041789246 31978817 605019476 -1191418059 1829544860 1628399306 -1404898616 684843000 1562575610 -858822846 -1839741303 1919734789 -1280119916 -814099815 -1689291532 -438912713 585033602 2082701373 -2111253705 1434974181 -2041718219 519952269 1412938501 -1887420051 -1095373573 -480175886 -967667320 -532281921
REM
CELL 1.54180   50.00000   50.00000   50.00000   90.00000   90.00000   90.00000
LATT -1
SFAC C  
C      1  0.4939700000000  0.4423740000000  0.5426080000000 1.0
C      1  0.5109200000000  0.5609210000000  0.4653770000000 1.0
C      1  0.5543300000000  0.4305790000000  0.4417200000000 1.0
C      1  0.4407810000000  0.5630920000000  0.5553420000000 1.0
C      1  0.4417000000000  0.4248740000000  0.5175660000000 1.0
C      1  0.5707110000000  0.5778170000000  0.4868580000000 1.0
C      1  0.5617530000000  0.4493940000000  0.5872100000000 1.0
C      1  0.4366020000000  0.5550210000000  0.4201290000000 1.0
C      1  0.4063690000000  0.5218300000000  0.4338880000000 1.0
C      1  0.5863590000000  0.4822720000000  0.5630370000000 1.0
C      1  0.3905960000000  0.5592280000000  0.5177860000000 1.0
C      1  0.5976980000000  0.4363360000000  0.4854600000000 1.0
C      1  0.4719260000000  0.4853000000000  0.3951570000000 1.0
C      1  0.5326030000000  0.5224150000000  0.6137030000000 1.0
C      1  0.3998440000000  0.4722030000000  0.4555460000000 1.0
C      1  0.5992750000000  0.5335730000000  0.5492710000000 1.0
C      1  0.5458220000000  0.6054630000000  0.4826130000000 1.0
C      1  0.4629980000000  0.3944760000000  0.5186230000000 1.0
C      1  0.4190750000000  0.4992670000000  0.4492600000000 1.0
C      1  0.5735210000000  0.5006780000000  0.5482700000000 1.0
C      1  0.4741850000000  0.5222780000000  0.5517670000000 1.0
C      1  0.5202790000000  0.4740000000000  0.4465270000000 1.0
C      1  0.4609940000000  0.4805280000000  0.4614850000000 1.0
C      1  0.5326250000000  0.5199700000000  0.5398420000000 1.0
C      1  0.3833130000000  0.4953710000000  0.4667180000000 1.0
C      1  0.6119700000000  0.5122000000000  0.5349040000000 1.0
C      1  0.5837250000000  0.5569100000000  0.5334450000000 1.0
C      1  0.4231950000000  0.4477140000000  0.4737140000000 1.0
C      1  0.4202260000000  0.5711540000000  0.5082920000000 1.0
C      1  0.5653530000000  0.4264150000000  0.4879580000000 1.0
C      1  0.4931070000000  0.4745440000000  0.6095780000000 1.0
C      1  0.5131570000000  0.5156600000000  0.3933320000000 1.0
C      1  0.5840330000000  0.5216700000000  0.4257860000000 1.0
C      1  0.4282850000000  0.4807060000000  0.5569320000000 1.0
C      1  0.5025240000000  0.5903680000000  0.4797980000000 1.0
C      1  0.4962570000000  0.4253700000000  0.5131660000000 1.0
C      1  0.5904800000000  0.4416940000000  0.5183210000000 1.0
C      1  0.3969820000000  0.5472970000000  0.4862270000000 1.0
C      1  0.5598750000000  0.5546490000000  0.5091110000000 1.0
C      1  0.4515730000000  0.4457220000000  0.4924520000000 1.0
C      1  0.5347330000000  0.5083090000000  0.5017310000000 1.0
C      1  0.4681400000000  0.5020860000000  0.5075540000000 1.0
C      1  0.4270860000000  0.4530760000000  0.5238940000000 1.0
C      1  0.5858000000000  0.5498380000000  0.4791950000000 1.0
C      1  0.5188920000000  0.5762630000000  0.5298000000000 1.0
C      1  0.4752300000000  0.4209050000000  0.4670700000000 1.0
C      1  0.4635680000000  0.5946810000000  0.4132370000000 1.0
C      1  0.5417600000000  0.4073040000000  0.5791190000000 1.0
C      1  0.4939610000000  0.5949710000000  0.5420980000000 1.0
C      1  0.4995600000000  0.4001770000000  0.4560500000000 1.0
C      1  0.4573790000000  0.5507030000000  0.4756560000000 1.0
C      1  0.5431790000000  0.4530020000000  0.5271190000000 1.0
C      1  0.5594350000000  0.4221070000000  0.5942920000000 1.0
C      1  0.4393640000000  0.5818160000000  0.4121320000000 1.0
C      1  0.4591310000000  0.5360540000000  0.4123490000000 1.0
C      1  0.5378610000000  0.4696230000000  0.5913100000000 1.0
C      1  0.5285130000000  0.4180240000000  0.4529810000000 1.0
C      1  0.4665550000000  0.5746030000000  0.5448100000000 1.0
C      1  0.5248860000000  0.4916720000000  0.5259630000000 1.0
C      1  0.4658550000000  0.5148940000000  0.4589190000000 1.0
C      1  0.5939180000000  0.5044170000000  0.4508710000000 1.0
C      1  0.3990430000000  0.4932900000000  0.5530490000000 1.0
C      1  0.5561850000000  0.5442660000000  0.4707950000000 1.0
C      1  0.4599440000000  0.4584540000000  0.5291640000000 1.0
C      1  0.5553770000000  0.5940660000000  0.5111590000000 1.0
C      1  0.4476960000000  0.4065890000000  0.4914270000000 1.0
C      1  0.5508970000000  0.5610420000000  0.4470120000000 1.0
C      1  0.4558480000000  0.4373480000000  0.5527750000000 1.0
C      1  0.5086600000000  0.5330450000000  0.5687450000000 1.0
C      1  0.4921270000000  0.4650950000000  0.4290880000000 1.0
C      1  0.4309610000000  0.5294290000000  0.4964380000000 1.0
C      1  0.5529370000000  0.4731780000000  0.5044480000000 1.0
C      1  0.5153970000000  0.4466220000000  0.5797290000000 1.0
C      1  0.4884780000000  0.5532560000000  0.4141540000000 1.0
C      1  0.5387710000000  0.5463580000000  0.5690440000000 1.0
C      1  0.4606650000000  0.4554180000000  0.4303590000000 1.0
C      1  0.4763610000000  0.5009630000000  0.6084300000000 1.0
C      1  0.5229140000000  0.4893110000000  0.3947080000000 1.0
C      1  0.5749920000000  0.4760440000000  0.4512610000000 1.0
C      1  0.4212660000000  0.5190240000000  0.5486430000000 1.0
C      1  0.4975590000000  0.5912990000000  0.5080030000000 1.0
C      1  0.4940530000000  0.4062270000000  0.4891880000000 1.0
C      1  0.4245230000000  0.5079920000000  0.5173360000000 1.0
C      1  0.5643690000000  0.4891900000000  0.4792370000000 1.0
C      1  0.4477400000000  0.5036850000000  0.4105370000000 1.0
C      1  0.5518730000000  0.5003560000000  0.5972420000000 1.0
C      1  0.4984560000000  0.5933330000000  0.4459050000000 1.0
C      1  0.5196510000000  0.4128530000000  0.5345810000000 1.0
C      1  0.5139650000000  0.5428160000000  0.5304030000000 1.0
C      1  0.4814830000000  0.4543930000000  0.4659990000000 1.0
C      1  0.5035840000000  0.5264350000000  0.6008640000000 1.0
C      1  0.4993800000000  0.4692060000000  0.3973890000000 1.0
C      1  0.5603740000000  0.5285830000000  0.5570420000000 1.0
C      1  0.4389460000000  0.4741180000000  0.4388370000000 1.0
C      1  0.4940810000000  0.3904810000000  0.5318530000000 1.0
C      1  0.5199540000000  0.6140980000000  0.4624310000000 1.0
C      1  0.4258430000000  0.5454110000000  0.5306760000000 1.0
C      1  0.5589930000000  0.4520700000000  0.4658890000000 1.0
C      1  0.5707660000000  0.5475800000000  0.4232170000000 1.0
C      1  0.4325750000000  0.4541100000000  0.5690130000000 1.0
C      1  0.4740400000000  0.5292000000000  0.5224160000000 1.0
C      1  0.5307820000000  0.4658790000000  0.4778690000000 1.0
C      1  0.5233720000000  0.4231020000000  0.5637980000000 1.0
C      1  0.4862420000000  0.5809340000000  0.4239680000000 1.0
C      1  0.5320800000000  0.5416470000000  0.4949520000000 1.0
C      1  0.4809710000000  0.4523920000000  0.5059430000000 1.0
C      1  0.5302230000000  0.4408700000000  0.4995720000000 1.0
C      1  0.4593590000000  0.5513510000000  0.5094390000000 1.0
C      1  0.4444950000000  0.5775430000000  0.4922210000000 1.0
C      1  0.5447880000000  0.4128960000000  0.5115440000000 1.0
C      1  0.5183860000000  0.5691070000000  0.5827120000000 1.0
C      1  0.4772840000000  0.4303010000000  0.4155740000000 1.0
C      1  0.4991610000000  0.4713530000000  0.4876030000000 1.0
C      1  0.5011670000000  0.5295290000000  0.5026570000000 1.0
C      1  0.3794780000000  0.5194240000000  0.4775860000000 1.0
C      1  0.6012410000000  0.4912570000000  0.5210200000000 1.0
C      1  0.4835170000000  0.5161760000000  0.3996230000000 1.0
C      1  0.5130360000000  0.4936710000000  0.5950360000000 1.0
C      1  0.4740020000000  0.4145140000000  0.5442420000000 1.0
C      1  0.5351520000000  0.5838210000000  0.4581630000000 1.0
C      1  0.4355430000000  0.4188810000000  0.4675770000000 1.0
C      1  0.5626590000000  0.5831590000000  0.5366610000000 1.0
C      1  0.4618820000000  0.5444840000000  0.5745730000000 1.0
C      1  0.5343200000000  0.4519460000000  0.4243570000000 1.0
C      1  0.5331220000000  0.5017930000000  0.5686180000000 1.0
C      1  0.4757030000000  0.5033870000000  0.4303900000000 1.0
C      1  0.4086140000000  0.4697580000000  0.4246730000000 1.0
C      1  0.5870320000000  0.5264490000000  0.5755300000000 1.0
C      1  0.5003660000000  0.5028260000000  0.5583300000000 1.0
C      1  0.5019040000000  0.5001610000000  0.4519920000000 1.0
C      1  0.5959130000000  0.5377300000000  0.5080340000000 1.0
C      1  0.4214340000000  0.4708490000000  0.4967910000000 1.0
C      1  0.5443060000000  0.4790330000000  0.4106250000000 1.0
C      1  0.4432780000000  0.5269600000000  0.5930520000000 1.0
C      1  0.6058350000000  0.4659870000000  0.5000810000000 1.0
C      1  0.3795050000000  0.5289130000000  0.5094300000000 1.0
C      1  0.5030490000000  0.4382520000000  0.4450230000000 1.0
C      1  0.4936150000000  0.5569380000000  0.5537270000000 1.0
C      1  0.4476820000000  0.5078080000000  0.5673290000000 1.0
C      1  0.5625460000000  0.4953590000000  0.4278920000000 1.0
C      1  0.4673830000000  0.4839130000000  0.5804960000000 1.0
C      1  0.5458310000000  0.5202690000000  0.4405250000000 1.0
C      1  0.4908490000000  0.4513650000000  0.5937440000000 1.0
C      1  0.5132220000000  0.5419690000000  0.4064480000000 1.0
C      1  0.5020550000000  0.4102210000000  0.4244610000000 1.0
C      1  0.4909990000000  0.5847380000000  0.5742430000000 1.0
C      1  0.3919310000000  0.5074720000000  0.5240350000000 1.0
C      1  0.5971490000000  0.4895700000000  0.4814790000000 1.0
C      1  0.5180170000000  0.4654280000000  0.5411730000000 1.0
C      1  0.4846030000000  0.5396520000000  0.4638590000000 1.0
C      1  0.4197440000000  0.4917050000000  0.4085660000000 1.0
C      1  0.5813080000000  0.5097670000000  0.5962940000000 1.0
C      1  0.5774140000000  0.4555460000000  0.5642140000000 1.0
C      1  0.4184200000000  0.5458840000000  0.4394350000000 1.0
C      1  0.5373830000000  0.5463290000000  0.4208890000000 1.0
C      1  0.4629010000000  0.4502250000000  0.5817770000000 1.0
C      1  0.4111690000000  0.5734700000000  0.5413900000000 1.0
C      1  0.5825370000000  0.4214240000000  0.4586700000000 1.0
C      1  0.4027950000000  0.4752460000000  0.5242800000000 1.0
C      1  0.6030900000000  0.5219140000000  0.4786360000000 1.0
C      1  0.4468600000000  0.4873240000000  0.5296000000000 1.0
C      1  0.5472660000000  0.5132450000000  0.4716700000000 1.0
C      1  0.5094410000000  0.4378340000000  0.4058620000000 1.0
C      1  0.4880120000000  0.5561830000000  0.5931110000000 1.0
C      1  0.5384140000000  0.5762370000000  0.5557680000000 1.0
C      1  0.4558100000000  0.4245350000000  0.4415470000000 1.0
C      1  0.4455060000000  0.4882850000000  0.4897210000000 1.0
C      1  0.5653550000000  0.5226780000000  0.5059110000000 1.0
C      1  0.4370680000000  0.5114850000000  0.4697900000000 1.0
C      1  0.5698310000000  0.4951160000000  0.5182910000000 1.0
C      1  0.4902390000000  0.4717670000000  0.5593650000000 1.0
C      1  0.5158770000000  0.5299490000000  0.4534320000000 1.0
C      1  0.4680060000000  0.5839730000000  0.5141080000000 1.0
C      1  0.5253100000000  0.4126910000000  0.4837980000000 1.0
C      1  0.5706680000000  0.4443930000000  0.5383730000000 1.0
C      1  0.4239710000000  0.5492490000000  0.4693710000000 1.0
C      1  0.4933610000000  0.5021380000000  0.4849990000000 1.0
END
