TITL C-2782234-8014-595 0.00081225882552915 125000 -989.003851339077 0 0 169 (C1) n - 1
REM
REM in /home/nfs/bkarasulu/CARBON/AIRSS/Generating-Clusters/REBO/Higher-Symm/SD-CG/HFTN-CG
REM
REM
REM
REM
REM
REM ./C.cell (12c818d87b63d06a65506943cc24bca4)
REM
REM compiler GCC version 9.2.1 20190827 (Red Hat 9.2.1-1)
REM options -cpp -mtune=generic -march=x86-64 -g -O0 -fpre-include=/usr/include/finclude/math-vector-fortran.h
REM seed 1920572479 -259324251 1679380083 -1644298313 1573642526 -576490868 319521811 374691245 339186983 2018909492 -1687749735 1673936227 -1143097806 465496755 525953535 1356372982 -455091044 2042715191 -79564637 -315668600 -2032296622 2069066040 1131429786 -115266058 141901589 1808610986 896598100 -954537876 -697430391 -225765498 337628630 -1340580332 2019392422
REM
CELL 1.54180   50.00000   50.00000   50.00000   90.00000   90.00000   90.00000
LATT -1
SFAC C  
C      1  0.4372470000000  0.4953000000000  0.4269600000000 1.0
C      1  0.4737070000000  0.5579810000000  0.4170840000000 1.0
C      1  0.5557070000000  0.5433050000000  0.4173490000000 1.0
C      1  0.5628390000000  0.4647230000000  0.4233230000000 1.0
C      1  0.4892060000000  0.4307040000000  0.4188320000000 1.0
C      1  0.5224280000000  0.5014290000000  0.5083370000000 1.0
C      1  0.5000260000000  0.4813490000000  0.5045690000000 1.0
C      1  0.4736100000000  0.4992300000000  0.5116320000000 1.0
C      1  0.4783130000000  0.5316100000000  0.5115700000000 1.0
C      1  0.5104720000000  0.5303990000000  0.5106520000000 1.0
C      1  0.4619910000000  0.5433220000000  0.4840880000000 1.0
C      1  0.5156800000000  0.5355130000000  0.4788030000000 1.0
C      1  0.5420190000000  0.5026440000000  0.4820430000000 1.0
C      1  0.5014340000000  0.4700100000000  0.4740720000000 1.0
C      1  0.4794330000000  0.5030920000000  0.4786030000000 1.0
C      1  0.4475600000000  0.5559700000000  0.5760030000000 1.0
C      1  0.5226790000000  0.5448910000000  0.5969040000000 1.0
C      1  0.5648950000000  0.4894090000000  0.5721380000000 1.0
C      1  0.5259250000000  0.4446480000000  0.5740490000000 1.0
C      1  0.4628790000000  0.4550800000000  0.5744460000000 1.0
C      1  0.5097820000000  0.5267240000000  0.4352820000000 1.0
C      1  0.5352540000000  0.5041670000000  0.4365660000000 1.0
C      1  0.5178710000000  0.4746900000000  0.4379800000000 1.0
C      1  0.4837180000000  0.4766180000000  0.4382970000000 1.0
C      1  0.4802830000000  0.5105370000000  0.4395830000000 1.0
C      1  0.4409540000000  0.4864550000000  0.4548420000000 1.0
C      1  0.4504970000000  0.5484590000000  0.4298190000000 1.0
C      1  0.5475520000000  0.5543110000000  0.4451660000000 1.0
C      1  0.5688440000000  0.4738180000000  0.4503550000000 1.0
C      1  0.5024090000000  0.4249760000000  0.4457310000000 1.0
C      1  0.5241770000000  0.4818570000000  0.3884300000000 1.0
C      1  0.4959360000000  0.4735870000000  0.3893220000000 1.0
C      1  0.4785540000000  0.4975200000000  0.3895870000000 1.0
C      1  0.4965820000000  0.5205650000000  0.3866370000000 1.0
C      1  0.5245580000000  0.5111330000000  0.3867390000000 1.0
C      1  0.4884970000000  0.3882400000000  0.4743960000000 1.0
C      1  0.4049890000000  0.4755170000000  0.4678540000000 1.0
C      1  0.4362250000000  0.5771960000000  0.4737060000000 1.0
C      1  0.5615370000000  0.5826830000000  0.4694000000000 1.0
C      1  0.5956520000000  0.4752510000000  0.4799020000000 1.0
C      1  0.6026510000000  0.5162770000000  0.4928360000000 1.0
C      1  0.5377710000000  0.4089710000000  0.4966170000000 1.0
C      1  0.4204440000000  0.4200220000000  0.5002960000000 1.0
C      1  0.4028020000000  0.5459230000000  0.4855430000000 1.0
C      1  0.5074110000000  0.5990800000000  0.4826000000000 1.0
C      1  0.4980810000000  0.4581670000000  0.5844990000000 1.0
C      1  0.4702640000000  0.4867340000000  0.5841440000000 1.0
C      1  0.4937910000000  0.5471280000000  0.5891860000000 1.0
C      1  0.5438010000000  0.5212070000000  0.5947790000000 1.0
C      1  0.5371410000000  0.4907040000000  0.5918880000000 1.0
C      1  0.5022990000000  0.4512640000000  0.5158880000000 1.0
C      1  0.4507880000000  0.4840160000000  0.5251350000000 1.0
C      1  0.4690120000000  0.5482740000000  0.5379350000000 1.0
C      1  0.5281200000000  0.5474120000000  0.5292290000000 1.0
C      1  0.5393530000000  0.4914850000000  0.5313720000000 1.0
C      1  0.4224040000000  0.5158910000000  0.5773790000000 1.0
C      1  0.5027420000000  0.5974080000000  0.5712570000000 1.0
C      1  0.5856280000000  0.5346350000000  0.5745590000000 1.0
C      1  0.5313250000000  0.4129270000000  0.5349170000000 1.0
C      1  0.4369380000000  0.4195100000000  0.5493770000000 1.0
C      1  0.4593640000000  0.5303910000000  0.4550330000000 1.0
C      1  0.5157630000000  0.5600540000000  0.4391840000000 1.0
C      1  0.5685750000000  0.5117830000000  0.4382650000000 1.0
C      1  0.5263540000000  0.4457490000000  0.4501970000000 1.0
C      1  0.4585800000000  0.4535700000000  0.4412990000000 1.0
C      1  0.3885830000000  0.5131660000000  0.5568660000000 1.0
C      1  0.4755350000000  0.6035860000000  0.5645030000000 1.0
C      1  0.6003720000000  0.5658680000000  0.5560150000000 1.0
C      1  0.5797960000000  0.4127010000000  0.5520940000000 1.0
C      1  0.4481920000000  0.3762470000000  0.5567060000000 1.0
C      1  0.5089760000000  0.3973010000000  0.4569770000000 1.0
C      1  0.4282670000000  0.4553320000000  0.4571370000000 1.0
C      1  0.4317160000000  0.5550600000000  0.4539650000000 1.0
C      1  0.5369400000000  0.5858270000000  0.4470080000000 1.0
C      1  0.5941980000000  0.4929670000000  0.4508420000000 1.0
C      1  0.4413410000000  0.5841860000000  0.4998280000000 1.0
C      1  0.5641340000000  0.5747820000000  0.4953910000000 1.0
C      1  0.5845170000000  0.4671740000000  0.5034140000000 1.0
C      1  0.4869300000000  0.4015740000000  0.4995760000000 1.0
C      1  0.4099820000000  0.4810670000000  0.4952610000000 1.0
C      1  0.5358700000000  0.5103810000000  0.5549890000000 1.0
C      1  0.5056820000000  0.4641340000000  0.5457380000000 1.0
C      1  0.4726850000000  0.4661070000000  0.5376460000000 1.0
C      1  0.4764800000000  0.5310000000000  0.5642880000000 1.0
C      1  0.5130100000000  0.5473330000000  0.5582820000000 1.0
C      1  0.4890790000000  0.5734210000000  0.4352200000000 1.0
C      1  0.5837130000000  0.5353870000000  0.4168410000000 1.0
C      1  0.5697310000000  0.4360350000000  0.4193050000000 1.0
C      1  0.4607180000000  0.4250760000000  0.4213110000000 1.0
C      1  0.4085760000000  0.4965360000000  0.4240870000000 1.0
C      1  0.4785220000000  0.5870820000000  0.4577650000000 1.0
C      1  0.5950590000000  0.5329730000000  0.4451010000000 1.0
C      1  0.5536250000000  0.4318460000000  0.4441090000000 1.0
C      1  0.4528540000000  0.4208030000000  0.4507670000000 1.0
C      1  0.3944160000000  0.4947340000000  0.4494400000000 1.0
C      1  0.4624800000000  0.5000810000000  0.4138710000000 1.0
C      1  0.4925920000000  0.5381220000000  0.4084930000000 1.0
C      1  0.5392610000000  0.5219480000000  0.4088350000000 1.0
C      1  0.5376450000000  0.4726550000000  0.4122850000000 1.0
C      1  0.4915680000000  0.4579270000000  0.4124170000000 1.0
C      1  0.4663850000000  0.6053390000000  0.5334610000000 1.0
C      1  0.5796030000000  0.5602820000000  0.5388190000000 1.0
C      1  0.5780020000000  0.4379160000000  0.5416910000000 1.0
C      1  0.4660100000000  0.3926000000000  0.5439910000000 1.0
C      1  0.4061860000000  0.5024780000000  0.5388870000000 1.0
C      1  0.5227110000000  0.4444200000000  0.4823490000000 1.0
C      1  0.4401690000000  0.4432930000000  0.4983330000000 1.0
C      1  0.4305840000000  0.5441320000000  0.4953820000000 1.0
C      1  0.5139080000000  0.5674640000000  0.4893740000000 1.0
C      1  0.5740620000000  0.5059850000000  0.4935840000000 1.0
C      1  0.3854680000000  0.5218700000000  0.4942560000000 1.0
C      1  0.4795900000000  0.6128460000000  0.4882670000000 1.0
C      1  0.6046380000000  0.5473550000000  0.4957290000000 1.0
C      1  0.5665800000000  0.4221300000000  0.4951840000000 1.0
C      1  0.4394510000000  0.3943340000000  0.5004390000000 1.0
C      1  0.5559060000000  0.4752210000000  0.4757760000000 1.0
C      1  0.4858120000000  0.4423870000000  0.4679790000000 1.0
C      1  0.4503170000000  0.4994030000000  0.4786110000000 1.0
C      1  0.4749260000000  0.5718820000000  0.4821630000000 1.0
C      1  0.5457170000000  0.5430200000000  0.4744370000000 1.0
C      1  0.5684610000000  0.5182000000000  0.5607790000000 1.0
C      1  0.5293030000000  0.4393900000000  0.5427210000000 1.0
C      1  0.4585500000000  0.4367220000000  0.5473070000000 1.0
C      1  0.4425440000000  0.5277570000000  0.5611190000000 1.0
C      1  0.5138370000000  0.5781700000000  0.5535650000000 1.0
C      1  0.5386630000000  0.5725600000000  0.5096020000000 1.0
C      1  0.5707340000000  0.4891280000000  0.5208080000000 1.0
C      1  0.5092740000000  0.4218690000000  0.5028120000000 1.0
C      1  0.4334040000000  0.4693370000000  0.5053900000000 1.0
C      1  0.4411940000000  0.5600730000000  0.5216790000000 1.0
C      1  0.5178130000000  0.6076180000000  0.4554710000000 1.0
C      1  0.6164740000000  0.5079040000000  0.4673410000000 1.0
C      1  0.5350870000000  0.3945690000000  0.4687590000000 1.0
C      1  0.4181180000000  0.4286250000000  0.4684820000000 1.0
C      1  0.4024670000000  0.5456120000000  0.4544280000000 1.0
C      1  0.5429790000000  0.4606610000000  0.5237020000000 1.0
C      1  0.4744640000000  0.4351990000000  0.5172610000000 1.0
C      1  0.4362740000000  0.5274320000000  0.5305230000000 1.0
C      1  0.5124090000000  0.5838830000000  0.5256800000000 1.0
C      1  0.5650750000000  0.5218700000000  0.5285090000000 1.0
C      1  0.4874290000000  0.5779990000000  0.5095160000000 1.0
C      1  0.5595750000000  0.5348080000000  0.4978920000000 1.0
C      1  0.5464600000000  0.4566580000000  0.4953320000000 1.0
C      1  0.4668080000000  0.4347990000000  0.4872260000000 1.0
C      1  0.4375980000000  0.5126280000000  0.5006440000000 1.0
C      1  0.3857610000000  0.5193890000000  0.4615400000000 1.0
C      1  0.4855730000000  0.6184520000000  0.4560140000000 1.0
C      1  0.6152640000000  0.5415430000000  0.4651650000000 1.0
C      1  0.5603270000000  0.4128290000000  0.4643590000000 1.0
C      1  0.4387890000000  0.4031050000000  0.4695760000000 1.0
C      1  0.3983190000000  0.5018220000000  0.5107350000000 1.0
C      1  0.4589580000000  0.6058830000000  0.5065880000000 1.0
C      1  0.5852030000000  0.5628920000000  0.5101030000000 1.0
C      1  0.5787330000000  0.4409360000000  0.5129090000000 1.0
C      1  0.4643390000000  0.3953790000000  0.5154520000000 1.0
C      1  0.5724590000000  0.4593330000000  0.5585580000000 1.0
C      1  0.4838540000000  0.4081800000000  0.5592800000000 1.0
C      1  0.4313970000000  0.4913830000000  0.5471340000000 1.0
C      1  0.4654360000000  0.5777040000000  0.5477050000000 1.0
C      1  0.5537420000000  0.5536760000000  0.5496800000000 1.0
C      1  0.5482240000000  0.5485370000000  0.5770390000000 1.0
C      1  0.5484580000000  0.4612300000000  0.5819220000000 1.0
C      1  0.4969880000000  0.4270680000000  0.5717410000000 1.0
C      1  0.4417650000000  0.4816120000000  0.5714610000000 1.0
C      1  0.4672840000000  0.5627820000000  0.5897200000000 1.0
C      1  0.5030880000000  0.4911070000000  0.5918590000000 1.0
C      1  0.4989290000000  0.5003160000000  0.6202300000000 1.0
C      1  0.5065080000000  0.5155110000000  0.5684040000000 1.0
C      1  0.5099470000000  0.5029980000000  0.4705010000000 1.0
END
