TITL C-2782228-2999-499 0.882741882420528 125000 -504.419737179857 0 0 85 (C1) n - 1
REM
REM in /home/nfs/bkarasulu/CARBON/AIRSS/Generating-Clusters/REBO/Higher-Symm/SD-CG/HFTN-CG
REM
REM
REM
REM
REM
REM ./C.cell (12c818d87b63d06a65506943cc24bca4)
REM
REM compiler GCC version 9.2.1 20190827 (Red Hat 9.2.1-1)
REM options -cpp -mtune=generic -march=x86-64 -g -O0 -fpre-include=/usr/include/finclude/math-vector-fortran.h
REM seed -206778079 1517264023 45869835 544764164 1914998836 -950723151 -1073731596 -1275103349 -243122980 1248212875 -111714059 -197343013 -69097012 -1656369374 -710810266 186332061 1852336374 -1036358369 1411418559 -702684388 1525971857 1939017918 2023119778 -828619126 -1373531541 2110152482 1869831631 482545812 -696922846 -207559484 1710831568 -760628188 -1381327248
REM
CELL 1.54180   50.00000   50.00000   50.00000   90.00000   90.00000   90.00000
LATT -1
SFAC C  
C      1  0.4388900000000  0.5307230000000  0.4882820000000 1.0
C      1  0.4301890000000  0.5011280000000  0.4949360000000 1.0
C      1  0.4347840000000  0.4972270000000  0.5258980000000 1.0
C      1  0.4453620000000  0.5263040000000  0.5379010000000 1.0
C      1  0.4516150000000  0.5433850000000  0.5109030000000 1.0
C      1  0.4773870000000  0.4716130000000  0.5663540000000 1.0
C      1  0.4783830000000  0.5713670000000  0.5577400000000 1.0
C      1  0.4797440000000  0.5581600000000  0.4592820000000 1.0
C      1  0.4837810000000  0.4770960000000  0.4284630000000 1.0
C      1  0.4845450000000  0.4122970000000  0.4947980000000 1.0
C      1  0.5682920000000  0.5203140000000  0.4515480000000 1.0
C      1  0.5640490000000  0.4575650000000  0.4653450000000 1.0
C      1  0.5656290000000  0.4523860000000  0.5246140000000 1.0
C      1  0.5643090000000  0.5121490000000  0.5497930000000 1.0
C      1  0.5701400000000  0.5504250000000  0.5027160000000 1.0
C      1  0.5543950000000  0.5483380000000  0.4502900000000 1.0
C      1  0.5494160000000  0.4575530000000  0.4408450000000 1.0
C      1  0.5504870000000  0.4282440000000  0.5109560000000 1.0
C      1  0.5470480000000  0.4990470000000  0.5686590000000 1.0
C      1  0.5555550000000  0.5614730000000  0.5266350000000 1.0
C      1  0.3971430000000  0.4995800000000  0.4900160000000 1.0
C      1  0.4016260000000  0.5005870000000  0.5225130000000 1.0
C      1  0.4127010000000  0.5299520000000  0.5289540000000 1.0
C      1  0.4073920000000  0.5475170000000  0.5063220000000 1.0
C      1  0.4058820000000  0.5293920000000  0.4811180000000 1.0
C      1  0.5621990000000  0.5404070000000  0.5510790000000 1.0
C      1  0.5640300000000  0.5628460000000  0.4781750000000 1.0
C      1  0.5635130000000  0.5040730000000  0.4303640000000 1.0
C      1  0.5596420000000  0.4339630000000  0.4800350000000 1.0
C      1  0.5621680000000  0.4542090000000  0.5515080000000 1.0
C      1  0.5294150000000  0.5158010000000  0.5834600000000 1.0
C      1  0.5311560000000  0.5808460000000  0.5174540000000 1.0
C      1  0.5400970000000  0.5359770000000  0.4244110000000 1.0
C      1  0.5358930000000  0.4331670000000  0.4354040000000 1.0
C      1  0.5382460000000  0.4236990000000  0.5400890000000 1.0
C      1  0.4443500000000  0.5333020000000  0.5873200000000 1.0
C      1  0.4375420000000  0.5875240000000  0.4997450000000 1.0
C      1  0.4609740000000  0.5309270000000  0.3916670000000 1.0
C      1  0.4511630000000  0.4108090000000  0.4426860000000 1.0
C      1  0.4604000000000  0.4102620000000  0.5655430000000 1.0
C      1  0.5069390000000  0.5197840000000  0.4867240000000 1.0
C      1  0.5067620000000  0.4945300000000  0.4739980000000 1.0
C      1  0.5047390000000  0.4740120000000  0.4940460000000 1.0
C      1  0.5061990000000  0.4871060000000  0.5201060000000 1.0
C      1  0.5065740000000  0.5159360000000  0.5153240000000 1.0
C      1  0.5035840000000  0.4469220000000  0.4889820000000 1.0
C      1  0.5102390000000  0.4730010000000  0.5438270000000 1.0
C      1  0.5063120000000  0.5352400000000  0.5355400000000 1.0
C      1  0.5057930000000  0.5461000000000  0.4741690000000 1.0
C      1  0.5093340000000  0.4894910000000  0.4450340000000 1.0
C      1  0.4728380000000  0.4536930000000  0.4327800000000 1.0
C      1  0.4795280000000  0.4139720000000  0.5207780000000 1.0
C      1  0.4696450000000  0.4945640000000  0.5674910000000 1.0
C      1  0.4719590000000  0.5822010000000  0.5363720000000 1.0
C      1  0.4714810000000  0.5485070000000  0.4361800000000 1.0
C      1  0.5724180000000  0.5024070000000  0.5237770000000 1.0
C      1  0.5748720000000  0.5225220000000  0.5021730000000 1.0
C      1  0.5740580000000  0.5086240000000  0.4764390000000 1.0
C      1  0.5719990000000  0.4799260000000  0.4814110000000 1.0
C      1  0.5717840000000  0.4759940000000  0.5106540000000 1.0
C      1  0.5159100000000  0.5372930000000  0.5735560000000 1.0
C      1  0.5163330000000  0.5787820000000  0.4940380000000 1.0
C      1  0.5265550000000  0.5127120000000  0.4180180000000 1.0
C      1  0.5220590000000  0.4186010000000  0.4537590000000 1.0
C      1  0.5253810000000  0.4402950000000  0.5584240000000 1.0
C      1  0.5378760000000  0.4718350000000  0.5620570000000 1.0
C      1  0.5316010000000  0.5517760000000  0.5487900000000 1.0
C      1  0.5323110000000  0.5635800000000  0.4703960000000 1.0
C      1  0.5388620000000  0.4838140000000  0.4316560000000 1.0
C      1  0.5279370000000  0.4254350000000  0.4856350000000 1.0
C      1  0.4860060000000  0.5417130000000  0.5611280000000 1.0
C      1  0.4856570000000  0.5723130000000  0.4888120000000 1.0
C      1  0.4941580000000  0.5082510000000  0.4206330000000 1.0
C      1  0.4929240000000  0.4240730000000  0.4663990000000 1.0
C      1  0.4932330000000  0.4458500000000  0.5553290000000 1.0
C      1  0.4136850000000  0.5746680000000  0.5025090000000 1.0
C      1  0.4479070000000  0.5319450000000  0.3689720000000 1.0
C      1  0.4321470000000  0.3931430000000  0.4390620000000 1.0
C      1  0.4446380000000  0.3986770000000  0.5829830000000 1.0
C      1  0.4302040000000  0.5408240000000  0.6071830000000 1.0
C      1  0.4770670000000  0.4225130000000  0.5471000000000 1.0
C      1  0.4614690000000  0.5241970000000  0.5632800000000 1.0
C      1  0.4634500000000  0.5722170000000  0.5084880000000 1.0
C      1  0.4747810000000  0.5298500000000  0.4156480000000 1.0
C      1  0.4712580000000  0.4294770000000  0.4465160000000 1.0
END
