TITL C-2782233-7966-432 2.66311318092327e-08 125000 -97.1438776673764 0 0 17 (D3) n - 1
REM
REM in /home/nfs/bkarasulu/CARBON/AIRSS/Generating-Clusters/REBO/Higher-Symm/SD-CG/HFTN-CG
REM
REM
REM
REM
REM
REM ./C.cell (12c818d87b63d06a65506943cc24bca4)
REM
REM compiler GCC version 9.2.1 20190827 (Red Hat 9.2.1-1)
REM options -cpp -mtune=generic -march=x86-64 -g -O0 -fpre-include=/usr/include/finclude/math-vector-fortran.h
REM seed -172317234 -962897892 119904305 -1789091670 1576382634 915605465 -1214925263 477415387 -355726249 -1181925016 -1557072143 -1569169875 -377930146 -1410190555 2007733363 -1824227083 1861689821 -346205789 -1370262961 -1206243337 -1028354894 1738391889 517970375 1879902378 -789014154 -916624845 -1619368889 1254390705 -323166081 -71091 -729390438 -1089978921 -26250696
REM
CELL 1.54180   50.00000   50.00000   50.00000   90.00000   90.00000   90.00000
LATT -1
SFAC C  
C      1  0.5179240000000  0.5202220000000  0.5479890000000 1.0
C      1  0.4499700000000  0.5202220000000  0.4922390000000 1.0
C      1  0.5322280000000  0.5202220000000  0.4612640000000 1.0
C      1  0.4821540000000  0.4881440000000  0.5479880000000 1.0
C      1  0.5501110000000  0.4881440000000  0.4922420000000 1.0
C      1  0.4678550000000  0.4881450000000  0.4612630000000 1.0
C      1  0.5271770000000  0.4903290000000  0.5090950000000 1.0
C      1  0.4790260000000  0.4903300000000  0.5197000000000 1.0
C      1  0.4939180000000  0.4903300000000  0.4726970000000 1.0
C      1  0.4729030000000  0.5180370000000  0.5090940000000 1.0
C      1  0.5210540000000  0.5180370000000  0.5197010000000 1.0
C      1  0.5061650000000  0.5180370000000  0.4726980000000 1.0
C      1  0.4469910000000  0.5041830000000  0.4698680000000 1.0
C      1  0.5530910000000  0.5041830000000  0.4698710000000 1.0
C      1  0.5000390000000  0.5041830000000  0.5617540000000 1.0
C      1  0.5000400000000  0.5281170000000  0.5004980000000 1.0
C      1  0.5000400000000  0.4802500000000  0.5004980000000 1.0
END
