TITL C-2782230-7391-1030 0.333307377048034 125000 -960.366695521768 0 0 160 (C1) n - 1
REM
REM in /home/nfs/bkarasulu/CARBON/AIRSS/Generating-Clusters/REBO/Higher-Symm/SD-CG/HFTN-CG
REM
REM
REM
REM
REM
REM ./C.cell (12c818d87b63d06a65506943cc24bca4)
REM
REM compiler GCC version 9.2.1 20190827 (Red Hat 9.2.1-1)
REM options -cpp -mtune=generic -march=x86-64 -g -O0 -fpre-include=/usr/include/finclude/math-vector-fortran.h
REM seed 1409883724 -652330344 1972039769 676178242 1870957104 999722833 -1018994539 1050370205 -1427009250 494919254 432719810 791426516 -97401757 -2131955006 -502011429 1530368802 1162958805 -825006224 -1434138134 989771555 -1394908348 1671120290 -538108784 -656565435 1515903808 175306670 450745872 -1659362858 287292569 997272782 1340756029 894916047 -123404408
REM
CELL 1.54180   50.00000   50.00000   50.00000   90.00000   90.00000   90.00000
LATT -1
SFAC C  
C      1  0.5030910000000  0.5530380000000  0.5756870000000 1.0
C      1  0.5016000000000  0.4441770000000  0.5747470000000 1.0
C      1  0.5036840000000  0.4120150000000  0.4711320000000 1.0
C      1  0.5043810000000  0.5002350000000  0.4089420000000 1.0
C      1  0.5030680000000  0.5868900000000  0.4740180000000 1.0
C      1  0.4145890000000  0.5615600000000  0.5033520000000 1.0
C      1  0.4158700000000  0.5158860000000  0.5587030000000 1.0
C      1  0.4139610000000  0.4485380000000  0.5321310000000 1.0
C      1  0.4156960000000  0.4530770000000  0.4604180000000 1.0
C      1  0.4163740000000  0.5229660000000  0.4423560000000 1.0
C      1  0.5234500000000  0.4418680000000  0.4041260000000 1.0
C      1  0.5256560000000  0.5747030000000  0.4194260000000 1.0
C      1  0.5251030000000  0.6017180000000  0.5436260000000 1.0
C      1  0.5203680000000  0.4886650000000  0.6132210000000 1.0
C      1  0.5219440000000  0.3897650000000  0.5258330000000 1.0
C      1  0.5286330000000  0.4161090000000  0.5664880000000 1.0
C      1  0.5311250000000  0.4118780000000  0.4422650000000 1.0
C      1  0.5312900000000  0.5283520000000  0.4001800000000 1.0
C      1  0.5359400000000  0.5981230000000  0.4935290000000 1.0
C      1  0.5289270000000  0.5352790000000  0.6002350000000 1.0
C      1  0.5169470000000  0.6062420000000  0.5155300000000 1.0
C      1  0.5103400000000  0.5159040000000  0.6095290000000 1.0
C      1  0.5108440000000  0.4010220000000  0.5503800000000 1.0
C      1  0.5128530000000  0.4222020000000  0.4230540000000 1.0
C      1  0.5143070000000  0.5505620000000  0.4053010000000 1.0
C      1  0.5230650000000  0.4284200000000  0.5158770000000 1.0
C      1  0.5253000000000  0.4630230000000  0.4379370000000 1.0
C      1  0.5252900000000  0.5463320000000  0.4474570000000 1.0
C      1  0.5252110000000  0.5642510000000  0.5298660000000 1.0
C      1  0.5226770000000  0.4919900000000  0.5734960000000 1.0
C      1  0.4961750000000  0.5106580000000  0.4774460000000 1.0
C      1  0.4962770000000  0.5257140000000  0.5040400000000 1.0
C      1  0.4954940000000  0.5050510000000  0.5266100000000 1.0
C      1  0.4958000000000  0.4772580000000  0.5131630000000 1.0
C      1  0.4918840000000  0.4819030000000  0.4851490000000 1.0
C      1  0.4339630000000  0.4850880000000  0.4230100000000 1.0
C      1  0.4330970000000  0.5688010000000  0.4618730000000 1.0
C      1  0.4339420000000  0.5579320000000  0.5520890000000 1.0
C      1  0.4316730000000  0.4671500000000  0.5702980000000 1.0
C      1  0.4332250000000  0.4228180000000  0.4904420000000 1.0
C      1  0.5099490000000  0.5692720000000  0.5024100000000 1.0
C      1  0.5083640000000  0.5198030000000  0.5697910000000 1.0
C      1  0.5086870000000  0.4399650000000  0.5415510000000 1.0
C      1  0.5108710000000  0.4425760000000  0.4575290000000 1.0
C      1  0.5109220000000  0.5225030000000  0.4338860000000 1.0
C      1  0.5303210000000  0.5244730000000  0.4924770000000 1.0
C      1  0.5293040000000  0.5152160000000  0.5231870000000 1.0
C      1  0.5284360000000  0.4832770000000  0.5240040000000 1.0
C      1  0.5333780000000  0.4725210000000  0.4947490000000 1.0
C      1  0.5276690000000  0.4968370000000  0.4754100000000 1.0
C      1  0.5335080000000  0.4945930000000  0.3952710000000 1.0
C      1  0.5299620000000  0.6011430000000  0.4624510000000 1.0
C      1  0.5323940000000  0.5651260000000  0.5840020000000 1.0
C      1  0.5313420000000  0.4420430000000  0.5885340000000 1.0
C      1  0.5332060000000  0.3977800000000  0.4732670000000 1.0
C      1  0.5740620000000  0.4429390000000  0.4540950000000 1.0
C      1  0.5772650000000  0.5265060000000  0.4279840000000 1.0
C      1  0.5794960000000  0.5702740000000  0.5098700000000 1.0
C      1  0.5735390000000  0.5172580000000  0.5746480000000 1.0
C      1  0.5723530000000  0.4366100000000  0.5414460000000 1.0
C      1  0.4750350000000  0.4848800000000  0.5935070000000 1.0
C      1  0.4761930000000  0.4059640000000  0.5152190000000 1.0
C      1  0.4776430000000  0.4567740000000  0.4163340000000 1.0
C      1  0.4775170000000  0.5661990000000  0.4345670000000 1.0
C      1  0.4787290000000  0.5844460000000  0.5425840000000 1.0
C      1  0.4154910000000  0.5035520000000  0.4705610000000 1.0
C      1  0.4149800000000  0.5287320000000  0.4934770000000 1.0
C      1  0.4148610000000  0.5147470000000  0.5245290000000 1.0
C      1  0.4144010000000  0.4808930000000  0.5208610000000 1.0
C      1  0.4151130000000  0.4740170000000  0.4875110000000 1.0
C      1  0.5652760000000  0.5394400000000  0.4888980000000 1.0
C      1  0.5830070000000  0.5234180000000  0.5126940000000 1.0
C      1  0.5782710000000  0.4931140000000  0.5146990000000 1.0
C      1  0.5621400000000  0.4814710000000  0.4886200000000 1.0
C      1  0.5658750000000  0.5103360000000  0.4719430000000 1.0
C      1  0.5030460000000  0.4717810000000  0.5902250000000 1.0
C      1  0.5043960000000  0.4054600000000  0.5023410000000 1.0
C      1  0.5058440000000  0.4689710000000  0.4123250000000 1.0
C      1  0.5052520000000  0.5725060000000  0.4461510000000 1.0
C      1  0.5061480000000  0.5757870000000  0.5539320000000 1.0
C      1  0.5971140000000  0.5342450000000  0.4772990000000 1.0
C      1  0.6143990000000  0.5269560000000  0.5032510000000 1.0
C      1  0.6101130000000  0.4950530000000  0.5057760000000 1.0
C      1  0.5949650000000  0.4847000000000  0.4797170000000 1.0
C      1  0.5954400000000  0.5086240000000  0.4587840000000 1.0
C      1  0.4831710000000  0.5526370000000  0.4779950000000 1.0
C      1  0.4823940000000  0.5375520000000  0.5453160000000 1.0
C      1  0.4825800000000  0.4689070000000  0.5499050000000 1.0
C      1  0.4843290000000  0.4428680000000  0.4871720000000 1.0
C      1  0.4841260000000  0.4944020000000  0.4428590000000 1.0
C      1  0.4853670000000  0.6013740000000  0.5195170000000 1.0
C      1  0.4807140000000  0.5122150000000  0.6025690000000 1.0
C      1  0.4812160000000  0.4055390000000  0.5440650000000 1.0
C      1  0.4830540000000  0.4292960000000  0.4250100000000 1.0
C      1  0.4843450000000  0.5501600000000  0.4110170000000 1.0
C      1  0.4727550000000  0.5552150000000  0.5798820000000 1.0
C      1  0.4710840000000  0.4403190000000  0.5770250000000 1.0
C      1  0.4731200000000  0.4082900000000  0.4678970000000 1.0
C      1  0.4742650000000  0.5025940000000  0.4035890000000 1.0
C      1  0.4730660000000  0.5930730000000  0.4735750000000 1.0
C      1  0.4214520000000  0.4880630000000  0.5534300000000 1.0
C      1  0.4218190000000  0.4452680000000  0.5045220000000 1.0
C      1  0.4225590000000  0.4784840000000  0.4485870000000 1.0
C      1  0.4224190000000  0.5421120000000  0.4630500000000 1.0
C      1  0.4221240000000  0.5479050000000  0.5276940000000 1.0
C      1  0.5427630000000  0.5853940000000  0.4420100000000 1.0
C      1  0.5427420000000  0.5881400000000  0.5636410000000 1.0
C      1  0.5397660000000  0.4675510000000  0.6052730000000 1.0
C      1  0.5415880000000  0.3910580000000  0.5035560000000 1.0
C      1  0.5425650000000  0.4636790000000  0.3976480000000 1.0
C      1  0.4635110000000  0.4169330000000  0.5632050000000 1.0
C      1  0.4655030000000  0.4141860000000  0.4414380000000 1.0
C      1  0.4672310000000  0.5297710000000  0.4009310000000 1.0
C      1  0.4665980000000  0.6049220000000  0.4983120000000 1.0
C      1  0.4641370000000  0.5347710000000  0.5973400000000 1.0
C      1  0.4776720000000  0.5231760000000  0.4412020000000 1.0
C      1  0.4767790000000  0.5627490000000  0.5052310000000 1.0
C      1  0.4755540000000  0.5143380000000  0.5627180000000 1.0
C      1  0.4760700000000  0.4448650000000  0.5340310000000 1.0
C      1  0.4776650000000  0.4501120000000  0.4589570000000 1.0
C      1  0.4516460000000  0.4742140000000  0.5037650000000 1.0
C      1  0.4514160000000  0.4873010000000  0.4772380000000 1.0
C      1  0.4516160000000  0.5166220000000  0.4819030000000 1.0
C      1  0.4519120000000  0.5214230000000  0.5111240000000 1.0
C      1  0.4515420000000  0.4952370000000  0.5245640000000 1.0
C      1  0.4660470000000  0.5436960000000  0.5230190000000 1.0
C      1  0.4656670000000  0.4914180000000  0.5494450000000 1.0
C      1  0.4667230000000  0.4499860000000  0.5079840000000 1.0
C      1  0.4664380000000  0.4759250000000  0.4549950000000 1.0
C      1  0.4665720000000  0.5342730000000  0.4646180000000 1.0
C      1  0.5561330000000  0.5717770000000  0.4877880000000 1.0
C      1  0.5533730000000  0.5393960000000  0.5766400000000 1.0
C      1  0.5534510000000  0.4394090000000  0.5636160000000 1.0
C      1  0.5542390000000  0.4231470000000  0.4648860000000 1.0
C      1  0.5559560000000  0.5099900000000  0.4151340000000 1.0
C      1  0.5519160000000  0.4223340000000  0.4984750000000 1.0
C      1  0.5535000000000  0.4780130000000  0.4255410000000 1.0
C      1  0.5549770000000  0.5604540000000  0.4565880000000 1.0
C      1  0.5525840000000  0.5597000000000  0.5500790000000 1.0
C      1  0.5517230000000  0.4738290000000  0.5755370000000 1.0
C      1  0.4207190000000  0.4434140000000  0.5586450000000 1.0
C      1  0.4229280000000  0.4264490000000  0.4639240000000 1.0
C      1  0.4236770000000  0.5113820000000  0.4181460000000 1.0
C      1  0.4218260000000  0.5812660000000  0.4850510000000 1.0
C      1  0.4232400000000  0.5394920000000  0.5714030000000 1.0
C      1  0.4570710000000  0.4649490000000  0.5829630000000 1.0
C      1  0.4586070000000  0.4101170000000  0.4928480000000 1.0
C      1  0.4597830000000  0.4791530000000  0.4125700000000 1.0
C      1  0.4591090000000  0.5771210000000  0.4538640000000 1.0
C      1  0.4596100000000  0.5689510000000  0.5579510000000 1.0
C      1  0.5176830000000  0.4472840000000  0.4905050000000 1.0
C      1  0.5160650000000  0.4917160000000  0.4469430000000 1.0
C      1  0.5156970000000  0.5481360000000  0.4773460000000 1.0
C      1  0.5152390000000  0.5364960000000  0.5414070000000 1.0
C      1  0.5147710000000  0.4724340000000  0.5497980000000 1.0
C      1  0.5747300000000  0.4925160000000  0.5729520000000 1.0
C      1  0.5742540000000  0.4317980000000  0.5172060000000 1.0
C      1  0.5760380000000  0.4635790000000  0.4405660000000 1.0
C      1  0.5779870000000  0.5453330000000  0.4440160000000 1.0
C      1  0.5780420000000  0.5624130000000  0.5334550000000 1.0
END
