TITL C-2782236-320-176 3.84120088361012e-07 125000 -100.370710607267 0 0 18 (C2h) n - 1
REM
REM in /home/nfs/bkarasulu/CARBON/AIRSS/Generating-Clusters/REBO/Higher-Symm/SD-CG/HFTN-CG
REM
REM
REM
REM
REM
REM ./C.cell (12c818d87b63d06a65506943cc24bca4)
REM
REM compiler GCC version 9.2.1 20190827 (Red Hat 9.2.1-1)
REM options -cpp -mtune=generic -march=x86-64 -g -O0 -fpre-include=/usr/include/finclude/math-vector-fortran.h
REM seed 246706884 280131745 -803008294 -1315600636 -854110951 -54559174 396696258 757215577 -404022032 1536567190 -1118663270 -1031051422 1845925203 1876420538 1415457995 -2133137597 1976810297 -789977378 363695363 -860452675 -780243052 -1499233437 386532905 1177557167 1654735680 -993859969 733410807 -293296732 1626739043 455444833 -2104289786 566831976 285080634
REM
CELL 1.54180   50.00000   50.00000   50.00000   90.00000   90.00000   90.00000
LATT -1
SFAC C  
C      1  0.5001790000000  0.4652980000000  0.4908340000000 1.0
C      1  0.4998210000000  0.5347020000000  0.5091660000000 1.0
C      1  0.4999390000000  0.5415360000000  0.5589490000000 1.0
C      1  0.5000610000000  0.4584640000000  0.4410510000000 1.0
C      1  0.4993650000000  0.5513910000000  0.3983720000000 1.0
C      1  0.5006350000000  0.4486090000000  0.6016280000000 1.0
C      1  0.5000370000000  0.4741530000000  0.4630530000000 1.0
C      1  0.4999630000000  0.5258470000000  0.5369470000000 1.0
C      1  0.4996920000000  0.5198380000000  0.4412800000000 1.0
C      1  0.5003080000000  0.4801620000000  0.5587200000000 1.0
C      1  0.5004710000000  0.4643860000000  0.5801740000000 1.0
C      1  0.4995290000000  0.5356140000000  0.4198260000000 1.0
C      1  0.4998630000000  0.5034020000000  0.4636290000000 1.0
C      1  0.5001370000000  0.4965980000000  0.5363710000000 1.0
C      1  0.5001010000000  0.4878760000000  0.5088460000000 1.0
C      1  0.4998990000000  0.5121240000000  0.4911540000000 1.0
C      1  0.5007960000000  0.4330830000000  0.6227410000000 1.0
C      1  0.4992040000000  0.5669170000000  0.3772590000000 1.0
END
