TITL C-2782228-2999-907 0.000225765588660501 125000 -1072.476683378 0 0 182 (C1) n - 1
REM
REM in /home/nfs/bkarasulu/CARBON/AIRSS/Generating-Clusters/REBO/Higher-Symm/SD-CG/HFTN-CG
REM
REM
REM
REM
REM
REM ./C.cell (12c818d87b63d06a65506943cc24bca4)
REM
REM compiler GCC version 9.2.1 20190827 (Red Hat 9.2.1-1)
REM options -cpp -mtune=generic -march=x86-64 -g -O0 -fpre-include=/usr/include/finclude/math-vector-fortran.h
REM seed 624502967 863038559 -976884008 -400665479 -2091370983 467961599 -31025400 -573661354 1024676148 -1925962417 -1375145893 -1021567317 1697768386 69611521 -424106686 -207909799 1624035527 286881387 -580236698 804953991 -1682127099 -1158478676 1221518178 -1260617542 1150821119 -1837322551 814507966 -2094082207 -1738703764 2115586365 1063230660 -383545781 -1061071822
REM
CELL 1.54180   50.00000   50.00000   50.00000   90.00000   90.00000   90.00000
LATT -1
SFAC C  
C      1  0.5982890000000  0.5492270000000  0.5589800000000 1.0
C      1  0.4858580000000  0.5473340000000  0.4916270000000 1.0
C      1  0.5172670000000  0.4666730000000  0.5138110000000 1.0
C      1  0.4722210000000  0.6046500000000  0.4924580000000 1.0
C      1  0.5194630000000  0.5921430000000  0.5504790000000 1.0
C      1  0.5979740000000  0.5382440000000  0.5320590000000 1.0
C      1  0.5571740000000  0.4985980000000  0.4877330000000 1.0
C      1  0.4763600000000  0.5961130000000  0.5204180000000 1.0
C      1  0.5617160000000  0.5978550000000  0.5268930000000 1.0
C      1  0.4933220000000  0.4424850000000  0.5346980000000 1.0
C      1  0.4150300000000  0.4450260000000  0.5502660000000 1.0
C      1  0.5158470000000  0.5409040000000  0.5008960000000 1.0
C      1  0.5167270000000  0.4766550000000  0.4750930000000 1.0
C      1  0.5238890000000  0.4946860000000  0.5314200000000 1.0
C      1  0.5144340000000  0.4195750000000  0.5591500000000 1.0
C      1  0.4204500000000  0.5031770000000  0.4266980000000 1.0
C      1  0.4565490000000  0.5694650000000  0.5302630000000 1.0
C      1  0.4136350000000  0.5462920000000  0.5094380000000 1.0
C      1  0.4088600000000  0.5040460000000  0.5362750000000 1.0
C      1  0.4684230000000  0.4406760000000  0.4147760000000 1.0
C      1  0.5196430000000  0.5343950000000  0.5317610000000 1.0
C      1  0.5715930000000  0.5413070000000  0.5194240000000 1.0
C      1  0.5850410000000  0.4431040000000  0.5062800000000 1.0
C      1  0.5515690000000  0.5611080000000  0.5654690000000 1.0
C      1  0.4273070000000  0.5519640000000  0.5335490000000 1.0
C      1  0.5507850000000  0.4487170000000  0.5951420000000 1.0
C      1  0.5110860000000  0.5936240000000  0.4494290000000 1.0
C      1  0.5175840000000  0.5371160000000  0.6019970000000 1.0
C      1  0.5349690000000  0.5620280000000  0.4871640000000 1.0
C      1  0.5768020000000  0.5465750000000  0.5760210000000 1.0
C      1  0.4222120000000  0.4612240000000  0.5794890000000 1.0
C      1  0.4925770000000  0.4085180000000  0.5369670000000 1.0
C      1  0.4570370000000  0.5384140000000  0.4944420000000 1.0
C      1  0.3957900000000  0.5222080000000  0.4836570000000 1.0
C      1  0.5013960000000  0.5814360000000  0.4785000000000 1.0
C      1  0.4679140000000  0.5777320000000  0.4730270000000 1.0
C      1  0.4669390000000  0.4523320000000  0.4676450000000 1.0
C      1  0.4965800000000  0.5528790000000  0.4618090000000 1.0
C      1  0.4797610000000  0.5093230000000  0.5742510000000 1.0
C      1  0.4824300000000  0.5480190000000  0.5238110000000 1.0
C      1  0.5923840000000  0.4980830000000  0.5526210000000 1.0
C      1  0.5474250000000  0.5304290000000  0.4664100000000 1.0
C      1  0.4776790000000  0.4946580000000  0.3930680000000 1.0
C      1  0.5211790000000  0.5416440000000  0.4553920000000 1.0
C      1  0.4208800000000  0.5298230000000  0.4310390000000 1.0
C      1  0.5616990000000  0.4852790000000  0.5852500000000 1.0
C      1  0.4548230000000  0.4357200000000  0.5686570000000 1.0
C      1  0.5530500000000  0.5537350000000  0.4347630000000 1.0
C      1  0.5889220000000  0.5030400000000  0.4452580000000 1.0
C      1  0.5439540000000  0.4609690000000  0.4849660000000 1.0
C      1  0.4901380000000  0.4753920000000  0.4364530000000 1.0
C      1  0.4541060000000  0.4954610000000  0.5601990000000 1.0
C      1  0.4430280000000  0.4894560000000  0.4123300000000 1.0
C      1  0.4435220000000  0.4936990000000  0.3798440000000 1.0
C      1  0.5456300000000  0.4954160000000  0.4376790000000 1.0
C      1  0.4916600000000  0.5163490000000  0.5222490000000 1.0
C      1  0.5199640000000  0.5890350000000  0.5018290000000 1.0
C      1  0.5633200000000  0.5479890000000  0.4911690000000 1.0
C      1  0.4205530000000  0.5310000000000  0.5525200000000 1.0
C      1  0.5402700000000  0.5119150000000  0.6059560000000 1.0
C      1  0.5385710000000  0.4191650000000  0.5351210000000 1.0
C      1  0.5929250000000  0.4456350000000  0.4789540000000 1.0
C      1  0.4687900000000  0.5582290000000  0.4449270000000 1.0
C      1  0.5268390000000  0.5587140000000  0.5852950000000 1.0
C      1  0.6047660000000  0.5247650000000  0.4862860000000 1.0
C      1  0.4920850000000  0.4951440000000  0.6091830000000 1.0
C      1  0.4038160000000  0.4831600000000  0.4431440000000 1.0
C      1  0.5267370000000  0.4769410000000  0.3896500000000 1.0
C      1  0.5311430000000  0.5023420000000  0.5022380000000 1.0
C      1  0.5824430000000  0.5060310000000  0.5029390000000 1.0
C      1  0.4628520000000  0.4645350000000  0.3988810000000 1.0
C      1  0.4661630000000  0.5211690000000  0.4051450000000 1.0
C      1  0.4132050000000  0.4430620000000  0.4690730000000 1.0
C      1  0.4769980000000  0.5026020000000  0.4968090000000 1.0
C      1  0.4328180000000  0.4225070000000  0.5387020000000 1.0
C      1  0.4466330000000  0.5222580000000  0.4694010000000 1.0
C      1  0.4333010000000  0.5248930000000  0.5773890000000 1.0
C      1  0.5161390000000  0.5001420000000  0.5880190000000 1.0
C      1  0.4136510000000  0.4932610000000  0.5042960000000 1.0
C      1  0.4619990000000  0.5598310000000  0.5632090000000 1.0
C      1  0.4500660000000  0.4642090000000  0.5512850000000 1.0
C      1  0.5346940000000  0.4687280000000  0.5720400000000 1.0
C      1  0.4382990000000  0.4622750000000  0.4630510000000 1.0
C      1  0.5057900000000  0.5134980000000  0.4851610000000 1.0
C      1  0.4212960000000  0.5410510000000  0.4769550000000 1.0
C      1  0.5623440000000  0.5889220000000  0.4763850000000 1.0
C      1  0.4691540000000  0.4025920000000  0.4851890000000 1.0
C      1  0.4456740000000  0.5744230000000  0.4980470000000 1.0
C      1  0.4449280000000  0.5824630000000  0.4410600000000 1.0
C      1  0.4264210000000  0.4515360000000  0.5126530000000 1.0
C      1  0.6063860000000  0.4941220000000  0.4732460000000 1.0
C      1  0.5849830000000  0.5702410000000  0.4788470000000 1.0
C      1  0.3921630000000  0.5247630000000  0.5149300000000 1.0
C      1  0.4744320000000  0.5196250000000  0.4536780000000 1.0
C      1  0.5638100000000  0.5136290000000  0.5575690000000 1.0
C      1  0.5213250000000  0.4114620000000  0.4711480000000 1.0
C      1  0.5820710000000  0.4820870000000  0.4284450000000 1.0
C      1  0.4657050000000  0.5400800000000  0.4204890000000 1.0
C      1  0.5032970000000  0.4446180000000  0.5765970000000 1.0
C      1  0.4515360000000  0.4676660000000  0.5114680000000 1.0
C      1  0.4492510000000  0.4343180000000  0.4366900000000 1.0
C      1  0.5561650000000  0.4463740000000  0.5433820000000 1.0
C      1  0.5600100000000  0.4807340000000  0.4624030000000 1.0
C      1  0.5551510000000  0.5107210000000  0.4122110000000 1.0
C      1  0.5153160000000  0.5352430000000  0.4000580000000 1.0
C      1  0.5233740000000  0.4548050000000  0.5435580000000 1.0
C      1  0.5403730000000  0.4780060000000  0.6105800000000 1.0
C      1  0.4953930000000  0.4312170000000  0.4143630000000 1.0
C      1  0.3975780000000  0.4919140000000  0.4738460000000 1.0
C      1  0.4512380000000  0.4153800000000  0.4648880000000 1.0
C      1  0.5578930000000  0.4281080000000  0.5079470000000 1.0
C      1  0.6110950000000  0.4892320000000  0.5066870000000 1.0
C      1  0.4287580000000  0.5714020000000  0.4688480000000 1.0
C      1  0.5032190000000  0.3885380000000  0.5138970000000 1.0
C      1  0.4731650000000  0.5971290000000  0.4375980000000 1.0
C      1  0.5045260000000  0.5957110000000  0.5265800000000 1.0
C      1  0.5721290000000  0.4563520000000  0.5696560000000 1.0
C      1  0.5663100000000  0.4393610000000  0.4488990000000 1.0
C      1  0.5649490000000  0.4588830000000  0.4293510000000 1.0
C      1  0.4754090000000  0.4679290000000  0.5331140000000 1.0
C      1  0.5634300000000  0.4919800000000  0.5260710000000 1.0
C      1  0.4646980000000  0.3992820000000  0.5191350000000 1.0
C      1  0.5505340000000  0.5965770000000  0.5008680000000 1.0
C      1  0.5494290000000  0.4303200000000  0.4747790000000 1.0
C      1  0.4316980000000  0.4932160000000  0.5855500000000 1.0
C      1  0.5085000000000  0.5731120000000  0.5681240000000 1.0
C      1  0.4627070000000  0.4314330000000  0.5236190000000 1.0
C      1  0.5316340000000  0.5073230000000  0.5584960000000 1.0
C      1  0.4926340000000  0.4902000000000  0.5415980000000 1.0
C      1  0.4842520000000  0.6122940000000  0.4615840000000 1.0
C      1  0.4536140000000  0.4895480000000  0.4681190000000 1.0
C      1  0.5888540000000  0.4687840000000  0.4653980000000 1.0
C      1  0.4242600000000  0.4571890000000  0.4337340000000 1.0
C      1  0.5082230000000  0.4222270000000  0.4429480000000 1.0
C      1  0.4442980000000  0.4964350000000  0.5045320000000 1.0
C      1  0.4510050000000  0.5237560000000  0.5181750000000 1.0
C      1  0.4567940000000  0.5401600000000  0.5846040000000 1.0
C      1  0.5488870000000  0.5388520000000  0.5410770000000 1.0
C      1  0.4191080000000  0.4791280000000  0.5503680000000 1.0
C      1  0.5147180000000  0.4556850000000  0.4392510000000 1.0
C      1  0.4946580000000  0.5810920000000  0.4229280000000 1.0
C      1  0.5187070000000  0.4531430000000  0.6052010000000 1.0
C      1  0.5909080000000  0.4700790000000  0.5490340000000 1.0
C      1  0.3988080000000  0.4584930000000  0.5231870000000 1.0
C      1  0.5436690000000  0.5371540000000  0.4125560000000 1.0
C      1  0.4847090000000  0.5281980000000  0.6008610000000 1.0
C      1  0.4856440000000  0.4797990000000  0.4759240000000 1.0
C      1  0.5676790000000  0.5184640000000  0.5898850000000 1.0
C      1  0.6084090000000  0.5111290000000  0.5325580000000 1.0
C      1  0.4998120000000  0.5601000000000  0.4068760000000 1.0
C      1  0.5139240000000  0.4470030000000  0.3994830000000 1.0
C      1  0.4976810000000  0.3962010000000  0.4878630000000 1.0
C      1  0.4260150000000  0.5541460000000  0.4395000000000 1.0
C      1  0.4254550000000  0.4193070000000  0.4787190000000 1.0
C      1  0.4866590000000  0.4623420000000  0.6010770000000 1.0
C      1  0.5271160000000  0.5032960000000  0.4626230000000 1.0
C      1  0.4579430000000  0.4057630000000  0.5528140000000 1.0
C      1  0.5021870000000  0.5245520000000  0.5596770000000 1.0
C      1  0.4976550000000  0.4431070000000  0.4661330000000 1.0
C      1  0.5377390000000  0.4615100000000  0.4180550000000 1.0
C      1  0.4911440000000  0.5543060000000  0.5539800000000 1.0
C      1  0.4583760000000  0.5221180000000  0.5435760000000 1.0
C      1  0.5074780000000  0.5021460000000  0.3940570000000 1.0
C      1  0.5064160000000  0.4449390000000  0.4970280000000 1.0
C      1  0.5511620000000  0.4668590000000  0.5177710000000 1.0
C      1  0.5031720000000  0.4779430000000  0.5683900000000 1.0
C      1  0.5971960000000  0.4626760000000  0.5226140000000 1.0
C      1  0.5532210000000  0.4950020000000  0.3896270000000 1.0
C      1  0.5398570000000  0.5766800000000  0.4562280000000 1.0
C      1  0.5483140000000  0.5884400000000  0.5498860000000 1.0
C      1  0.4689120000000  0.4862530000000  0.4316170000000 1.0
C      1  0.5171920000000  0.5077930000000  0.4244420000000 1.0
C      1  0.4615890000000  0.4929990000000  0.5990230000000 1.0
C      1  0.5247840000000  0.4205660000000  0.5041250000000 1.0
C      1  0.4541470000000  0.4606530000000  0.5914840000000 1.0
C      1  0.4282750000000  0.4212730000000  0.5063900000000 1.0
C      1  0.4949610000000  0.5147000000000  0.4420270000000 1.0
C      1  0.5753870000000  0.5321040000000  0.4488630000000 1.0
C      1  0.4749940000000  0.4478580000000  0.4986000000000 1.0
C      1  0.3919650000000  0.4559360000000  0.4572930000000 1.0
C      1  0.3868140000000  0.4727120000000  0.4995470000000 1.0
C      1  0.5957440000000  0.5449920000000  0.4680730000000 1.0
END
