TITL C-2782231-7322-896 0.0050054866315769 125000 -1164.95003518366 0 0 192 (C1) n - 1
REM
REM in /home/nfs/bkarasulu/CARBON/AIRSS/Generating-Clusters/REBO/Higher-Symm/SD-CG/HFTN-CG
REM
REM
REM
REM
REM
REM ./C.cell (12c818d87b63d06a65506943cc24bca4)
REM
REM compiler GCC version 9.2.1 20190827 (Red Hat 9.2.1-1)
REM options -cpp -mtune=generic -march=x86-64 -g -O0 -fpre-include=/usr/include/finclude/math-vector-fortran.h
REM seed 1314291043 2114507198 -796266749 154331975 -913300480 -1953035402 2067233247 1615928390 1807240506 -1897824550 -1153296660 1008017475 971677582 -1071275066 -87490721 1619105027 586651582 161672096 -1115384688 195484541 1925788162 143286306 -973101523 -1257937686 1554589525 -1979234976 -1237607862 570316994 1918709965 -644374915 -656399554 277186432 -362384797
REM
CELL 1.54180   50.00000   50.00000   50.00000   90.00000   90.00000   90.00000
LATT -1
SFAC C  
C      1  0.4905420000000  0.4927950000000  0.5427420000000 1.0
C      1  0.5285130000000  0.5093820000000  0.5336230000000 1.0
C      1  0.5424250000000  0.4908950000000  0.5097270000000 1.0
C      1  0.5324400000000  0.5103370000000  0.4745430000000 1.0
C      1  0.5088170000000  0.4906660000000  0.4627370000000 1.0
C      1  0.4726640000000  0.5105150000000  0.4686410000000 1.0
C      1  0.4603510000000  0.4916280000000  0.4922010000000 1.0
C      1  0.4667010000000  0.5115810000000  0.5306590000000 1.0
C      1  0.4600180000000  0.4906140000000  0.5567530000000 1.0
C      1  0.5100640000000  0.5090300000000  0.5610500000000 1.0
C      1  0.5547640000000  0.4890220000000  0.5411620000000 1.0
C      1  0.5610010000000  0.5074740000000  0.4905050000000 1.0
C      1  0.5394750000000  0.4886760000000  0.4492490000000 1.0
C      1  0.4901040000000  0.5057100000000  0.4416450000000 1.0
C      1  0.4468990000000  0.4892580000000  0.4619200000000 1.0
C      1  0.4408120000000  0.5077040000000  0.5109260000000 1.0
C      1  0.5234550000000  0.4630420000000  0.4345890000000 1.0
C      1  0.4677860000000  0.5306450000000  0.4344330000000 1.0
C      1  0.4313430000000  0.4642040000000  0.4772570000000 1.0
C      1  0.4327520000000  0.5323940000000  0.5332310000000 1.0
C      1  0.4714380000000  0.4648670000000  0.5756330000000 1.0
C      1  0.5336330000000  0.5333210000000  0.5653750000000 1.0
C      1  0.5673990000000  0.4632950000000  0.5243580000000 1.0
C      1  0.5652790000000  0.5317940000000  0.4668910000000 1.0
C      1  0.4076300000000  0.4325510000000  0.5306290000000 1.0
C      1  0.4562970000000  0.5679170000000  0.5823350000000 1.0
C      1  0.5274370000000  0.4334150000000  0.5876250000000 1.0
C      1  0.5836680000000  0.5659520000000  0.5399660000000 1.0
C      1  0.5944570000000  0.4324450000000  0.4676010000000 1.0
C      1  0.5407970000000  0.5654030000000  0.4174280000000 1.0
C      1  0.4690480000000  0.4308390000000  0.4102880000000 1.0
C      1  0.4188690000000  0.5661390000000  0.4590790000000 1.0
C      1  0.4942360000000  0.4516850000000  0.4333030000000 1.0
C      1  0.4535630000000  0.5464380000000  0.4609960000000 1.0
C      1  0.4328810000000  0.4537600000000  0.5081390000000 1.0
C      1  0.4590570000000  0.5481380000000  0.5477520000000 1.0
C      1  0.4957550000000  0.4451240000000  0.5664640000000 1.0
C      1  0.5486390000000  0.5467580000000  0.5392540000000 1.0
C      1  0.5744690000000  0.4532410000000  0.4959080000000 1.0
C      1  0.5391760000000  0.5470060000000  0.4528480000000 1.0
C      1  0.5380120000000  0.5085870000000  0.6046870000000 1.0
C      1  0.6021990000000  0.4917690000000  0.5456150000000 1.0
C      1  0.6088850000000  0.5080910000000  0.4596390000000 1.0
C      1  0.5469360000000  0.4920230000000  0.3992280000000 1.0
C      1  0.4612470000000  0.5062360000000  0.3931290000000 1.0
C      1  0.3991010000000  0.4925010000000  0.4540350000000 1.0
C      1  0.3916300000000  0.5075010000000  0.5391480000000 1.0
C      1  0.4508360000000  0.4943430000000  0.6025420000000 1.0
C      1  0.4618310000000  0.4519970000000  0.5465130000000 1.0
C      1  0.5060790000000  0.5481970000000  0.5540180000000 1.0
C      1  0.5370070000000  0.4505410000000  0.5313060000000 1.0
C      1  0.5541350000000  0.5480960000000  0.4934170000000 1.0
C      1  0.5413460000000  0.4498890000000  0.4587730000000 1.0
C      1  0.4926240000000  0.5478680000000  0.4471920000000 1.0
C      1  0.4565970000000  0.4504250000000  0.4613900000000 1.0
C      1  0.4456540000000  0.5483720000000  0.5074740000000 1.0
C      1  0.5755950000000  0.5826180000000  0.5177710000000 1.0
C      1  0.5725740000000  0.4156260000000  0.4588170000000 1.0
C      1  0.5192310000000  0.5828870000000  0.4246080000000 1.0
C      1  0.4609960000000  0.4159400000000  0.4340650000000 1.0
C      1  0.4254880000000  0.5833790000000  0.4812820000000 1.0
C      1  0.4303940000000  0.4171310000000  0.5399490000000 1.0
C      1  0.4780570000000  0.5852120000000  0.5751090000000 1.0
C      1  0.5370790000000  0.4134810000000  0.5647800000000 1.0
C      1  0.3964150000000  0.4915770000000  0.4825080000000 1.0
C      1  0.4100030000000  0.5090610000000  0.5611060000000 1.0
C      1  0.4797180000000  0.4925780000000  0.6033310000000 1.0
C      1  0.5620070000000  0.5096330000000  0.5882190000000 1.0
C      1  0.6059060000000  0.4911400000000  0.5169070000000 1.0
C      1  0.5887030000000  0.5087170000000  0.4390880000000 1.0
C      1  0.5182530000000  0.4900380000000  0.3973660000000 1.0
C      1  0.4397160000000  0.5073790000000  0.4121970000000 1.0
C      1  0.5268140000000  0.5669550000000  0.5255340000000 1.0
C      1  0.5448240000000  0.4374210000000  0.4946670000000 1.0
C      1  0.5257230000000  0.5676950000000  0.4737870000000 1.0
C      1  0.5043600000000  0.4414410000000  0.4633410000000 1.0
C      1  0.4736270000000  0.5680860000000  0.4756580000000 1.0
C      1  0.4604620000000  0.4414010000000  0.4982630000000 1.0
C      1  0.4736170000000  0.5684730000000  0.5272810000000 1.0
C      1  0.4956120000000  0.4344370000000  0.5352700000000 1.0
C      1  0.4154900000000  0.5745690000000  0.5086320000000 1.0
C      1  0.4418180000000  0.4244470000000  0.5673910000000 1.0
C      1  0.5042230000000  0.5768300000000  0.5818210000000 1.0
C      1  0.5616180000000  0.4209340000000  0.5534710000000 1.0
C      1  0.5843560000000  0.5739910000000  0.4899880000000 1.0
C      1  0.5574220000000  0.4219510000000  0.4354660000000 1.0
C      1  0.4915830000000  0.5742030000000  0.4172350000000 1.0
C      1  0.4336980000000  0.4213920000000  0.4473740000000 1.0
C      1  0.5490770000000  0.4462200000000  0.4197310000000 1.0
C      1  0.4774020000000  0.5515020000000  0.4088110000000 1.0
C      1  0.4181210000000  0.4446570000000  0.4523500000000 1.0
C      1  0.4070610000000  0.5528730000000  0.5237310000000 1.0
C      1  0.4448450000000  0.4460820000000  0.5851150000000 1.0
C      1  0.5227820000000  0.5547850000000  0.5897550000000 1.0
C      1  0.5800890000000  0.4443730000000  0.5491750000000 1.0
C      1  0.5917290000000  0.5518660000000  0.4748510000000 1.0
C      1  0.4652210000000  0.4614940000000  0.4355450000000 1.0
C      1  0.4331990000000  0.5370480000000  0.4824350000000 1.0
C      1  0.4344370000000  0.4612180000000  0.5380760000000 1.0
C      1  0.4807140000000  0.5393590000000  0.5678930000000 1.0
C      1  0.5262110000000  0.4512710000000  0.5575950000000 1.0
C      1  0.5686140000000  0.5365950000000  0.5174130000000 1.0
C      1  0.5675690000000  0.4619530000000  0.4655750000000 1.0
C      1  0.5175440000000  0.5369930000000  0.4332840000000 1.0
C      1  0.5559110000000  0.5192690000000  0.4027350000000 1.0
C      1  0.4700420000000  0.4790670000000  0.3875260000000 1.0
C      1  0.4032110000000  0.5193800000000  0.4441250000000 1.0
C      1  0.3865650000000  0.4802470000000  0.5303480000000 1.0
C      1  0.4416910000000  0.5215080000000  0.5979070000000 1.0
C      1  0.5271040000000  0.4819590000000  0.6054730000000 1.0
C      1  0.5986500000000  0.5189400000000  0.5555930000000 1.0
C      1  0.6154480000000  0.4812290000000  0.4681940000000 1.0
C      1  0.5658680000000  0.5535590000000  0.4334390000000 1.0
C      1  0.4977100000000  0.4443970000000  0.4020050000000 1.0
C      1  0.4346170000000  0.5528560000000  0.4340770000000 1.0
C      1  0.4016480000000  0.4461820000000  0.5018300000000 1.0
C      1  0.4317620000000  0.5547340000000  0.5662410000000 1.0
C      1  0.4979960000000  0.4457530000000  0.5993820000000 1.0
C      1  0.5681000000000  0.5536020000000  0.5654010000000 1.0
C      1  0.6050380000000  0.4453640000000  0.4955760000000 1.0
C      1  0.5178830000000  0.5282080000000  0.6017550000000 1.0
C      1  0.5864970000000  0.4718680000000  0.5584150000000 1.0
C      1  0.6049350000000  0.5264940000000  0.4808550000000 1.0
C      1  0.5605960000000  0.4727810000000  0.4149220000000 1.0
C      1  0.4821720000000  0.5248150000000  0.3975690000000 1.0
C      1  0.4146740000000  0.4723300000000  0.4418190000000 1.0
C      1  0.3961500000000  0.5261900000000  0.5183550000000 1.0
C      1  0.4351870000000  0.4743120000000  0.5891110000000 1.0
C      1  0.5224880000000  0.5985340000000  0.4487310000000 1.0
C      1  0.4826520000000  0.4043590000000  0.4492090000000 1.0
C      1  0.4494650000000  0.5995280000000  0.4793610000000 1.0
C      1  0.4475960000000  0.4042580000000  0.5211220000000 1.0
C      1  0.4755540000000  0.6005780000000  0.5508530000000 1.0
C      1  0.5167920000000  0.4028840000000  0.5471890000000 1.0
C      1  0.5513730000000  0.5980600000000  0.5214130000000 1.0
C      1  0.5573550000000  0.4026140000000  0.4796290000000 1.0
C      1  0.4931830000000  0.4134200000000  0.4788510000000 1.0
C      1  0.4781330000000  0.5930950000000  0.4962030000000 1.0
C      1  0.4769270000000  0.4139500000000  0.5067440000000 1.0
C      1  0.4950050000000  0.5929060000000  0.5257560000000 1.0
C      1  0.5099590000000  0.4124090000000  0.5151810000000 1.0
C      1  0.5221740000000  0.5920180000000  0.5053110000000 1.0
C      1  0.5262250000000  0.4117770000000  0.4854800000000 1.0
C      1  0.5051060000000  0.5926810000000  0.4758770000000 1.0
C      1  0.4502620000000  0.6026670000000  0.5392200000000 1.0
C      1  0.4917540000000  0.3983110000000  0.5586800000000 1.0
C      1  0.5435510000000  0.6001730000000  0.5483170000000 1.0
C      1  0.5694630000000  0.4017550000000  0.5045680000000 1.0
C      1  0.5483800000000  0.6007440000000  0.4595230000000 1.0
C      1  0.5065510000000  0.4016000000000  0.4347580000000 1.0
C      1  0.4600270000000  0.6022820000000  0.4532490000000 1.0
C      1  0.4437560000000  0.3965770000000  0.4930890000000 1.0
C      1  0.5580050000000  0.4245460000000  0.5226030000000 1.0
C      1  0.5541330000000  0.5809420000000  0.4840980000000 1.0
C      1  0.5256480000000  0.4240160000000  0.4430670000000 1.0
C      1  0.4816630000000  0.5802390000000  0.4460990000000 1.0
C      1  0.4539750000000  0.4186300000000  0.4733450000000 1.0
C      1  0.4454090000000  0.5814440000000  0.5158780000000 1.0
C      1  0.4693000000000  0.4192960000000  0.5511070000000 1.0
C      1  0.5235160000000  0.5774870000000  0.5568800000000 1.0
C      1  0.4987580000000  0.4706500000000  0.3881070000000 1.0
C      1  0.4230760000000  0.5278030000000  0.4236290000000 1.0
C      1  0.3874930000000  0.4720900000000  0.5016980000000 1.0
C      1  0.4212820000000  0.5296450000000  0.5776990000000 1.0
C      1  0.4998710000000  0.4728460000000  0.6091240000000 1.0
C      1  0.5793480000000  0.5286710000000  0.5760920000000 1.0
C      1  0.6168630000000  0.4729950000000  0.4969750000000 1.0
C      1  0.5765670000000  0.5284960000000  0.4221830000000 1.0
C      1  0.5707970000000  0.4850780000000  0.4417840000000 1.0
C      1  0.5052870000000  0.5123370000000  0.4131740000000 1.0
C      1  0.4415050000000  0.4840460000000  0.4305460000000 1.0
C      1  0.4119630000000  0.5138430000000  0.4954660000000 1.0
C      1  0.4277990000000  0.4852220000000  0.5607780000000 1.0
C      1  0.4925350000000  0.5157290000000  0.5886360000000 1.0
C      1  0.5613120000000  0.4839980000000  0.5721270000000 1.0
C      1  0.5900490000000  0.5135640000000  0.5041780000000 1.0
C      1  0.5274580000000  0.4644300000000  0.5015590000000 1.0
C      1  0.5206420000000  0.5370610000000  0.4884220000000 1.0
C      1  0.5039570000000  0.4665840000000  0.4818480000000 1.0
C      1  0.4872810000000  0.5370980000000  0.4803620000000 1.0
C      1  0.4782320000000  0.4678330000000  0.4987610000000 1.0
C      1  0.4787210000000  0.5373920000000  0.5136790000000 1.0
C      1  0.4859530000000  0.4652050000000  0.5284040000000 1.0
C      1  0.5121370000000  0.5363180000000  0.5217370000000 1.0
C      1  0.5340070000000  0.5383360000000  0.4035890000000 1.0
C      1  0.4557850000000  0.4589530000000  0.4030920000000 1.0
C      1  0.4041570000000  0.5390390000000  0.4654710000000 1.0
C      1  0.4011900000000  0.4599010000000  0.5453170000000 1.0
C      1  0.4630510000000  0.5411610000000  0.5969700000000 1.0
C      1  0.5415760000000  0.4643300000000  0.5845310000000 1.0
C      1  0.5980040000000  0.5386260000000  0.5341090000000 1.0
C      1  0.5997430000000  0.4608890000000  0.4547220000000 1.0
END
