TITL C-2782236-320-612 -0.00610745130279799 125000 -665.652695734371 0 0 116 (C1) n - 1
REM
REM in /home/nfs/bkarasulu/CARBON/AIRSS/Generating-Clusters/REBO/Higher-Symm/SD-CG/HFTN-CG
REM
REM
REM
REM
REM
REM ./C.cell (12c818d87b63d06a65506943cc24bca4)
REM
REM compiler GCC version 9.2.1 20190827 (Red Hat 9.2.1-1)
REM options -cpp -mtune=generic -march=x86-64 -g -O0 -fpre-include=/usr/include/finclude/math-vector-fortran.h
REM seed 877039019 718560181 -1387608485 1317434667 -179495875 -176777950 -619782261 883126675 -827348661 -748189880 -1454395054 1046093480 1454664022 1615110038 -121750478 -1427859703 -9773037 -976443648 -545864017 1018216704 -324788314 -15866902 -1149357461 1595553998 733212430 -319546873 1851028082 -2080481643 299579923 2055492493 -2111337572 -631680443 -199706479
REM
CELL 1.54180   50.00000   50.00000   50.00000   90.00000   90.00000   90.00000
LATT -1
SFAC C  
C      1  0.5426830000000  0.5621910000000  0.4916490000000 1.0
C      1  0.4582450000000  0.5585110000000  0.5128510000000 1.0
C      1  0.4553440000000  0.4357360000000  0.4871410000000 1.0
C      1  0.5447120000000  0.4424800000000  0.5151150000000 1.0
C      1  0.4996980000000  0.4496870000000  0.4774950000000 1.0
C      1  0.5065840000000  0.4522820000000  0.5086060000000 1.0
C      1  0.4966360000000  0.5463190000000  0.4801350000000 1.0
C      1  0.4954350000000  0.5422950000000  0.5112490000000 1.0
C      1  0.5663280000000  0.5068020000000  0.5418200000000 1.0
C      1  0.4388490000000  0.5043120000000  0.4564530000000 1.0
C      1  0.4319700000000  0.4941540000000  0.5432440000000 1.0
C      1  0.5599490000000  0.4959590000000  0.4570930000000 1.0
C      1  0.4452400000000  0.4401700000000  0.5411400000000 1.0
C      1  0.5548620000000  0.4416580000000  0.4512090000000 1.0
C      1  0.5598800000000  0.5610060000000  0.5429960000000 1.0
C      1  0.4431710000000  0.5579700000000  0.4502600000000 1.0
C      1  0.4737410000000  0.4991840000000  0.5704640000000 1.0
C      1  0.5235580000000  0.5016580000000  0.4293640000000 1.0
C      1  0.5279390000000  0.5046820000000  0.5705600000000 1.0
C      1  0.4756330000000  0.4996620000000  0.4313340000000 1.0
C      1  0.4560970000000  0.4699710000000  0.4670860000000 1.0
C      1  0.5432800000000  0.4743930000000  0.5390440000000 1.0
C      1  0.5412000000000  0.5287450000000  0.4700370000000 1.0
C      1  0.4550930000000  0.5248820000000  0.5334760000000 1.0
C      1  0.4527860000000  0.5308280000000  0.4936380000000 1.0
C      1  0.5502460000000  0.5336730000000  0.5095360000000 1.0
C      1  0.5445440000000  0.4671140000000  0.4915950000000 1.0
C      1  0.4534400000000  0.4620780000000  0.5087150000000 1.0
C      1  0.4678320000000  0.5436850000000  0.4686920000000 1.0
C      1  0.5247490000000  0.5460910000000  0.5254530000000 1.0
C      1  0.5282650000000  0.4547470000000  0.4663670000000 1.0
C      1  0.4796900000000  0.4553940000000  0.5277650000000 1.0
C      1  0.4526950000000  0.4689580000000  0.5537600000000 1.0
C      1  0.5486780000000  0.4715040000000  0.4368400000000 1.0
C      1  0.5494250000000  0.5339710000000  0.5541530000000 1.0
C      1  0.4496660000000  0.5294860000000  0.4364690000000 1.0
C      1  0.4796880000000  0.5351920000000  0.5991560000000 1.0
C      1  0.5156690000000  0.5429220000000  0.4044350000000 1.0
C      1  0.5203090000000  0.4662110000000  0.5955290000000 1.0
C      1  0.4888430000000  0.4632840000000  0.4045030000000 1.0
C      1  0.5132940000000  0.4944090000000  0.5950800000000 1.0
C      1  0.4920280000000  0.4919890000000  0.4067840000000 1.0
C      1  0.4881080000000  0.5076120000000  0.5957130000000 1.0
C      1  0.5113100000000  0.5144800000000  0.4025810000000 1.0
C      1  0.4243480000000  0.4387070000000  0.4917540000000 1.0
C      1  0.5754250000000  0.4304710000000  0.5140440000000 1.0
C      1  0.5744250000000  0.5606480000000  0.4927290000000 1.0
C      1  0.4266480000000  0.5684390000000  0.5133720000000 1.0
C      1  0.4854610000000  0.4778540000000  0.5499140000000 1.0
C      1  0.5149690000000  0.4738040000000  0.4433300000000 1.0
C      1  0.5156690000000  0.5278800000000  0.5513840000000 1.0
C      1  0.4831720000000  0.5277810000000  0.4442400000000 1.0
C      1  0.4852140000000  0.5111890000000  0.5116840000000 1.0
C      1  0.5078310000000  0.5145340000000  0.4860200000000 1.0
C      1  0.5137880000000  0.4839330000000  0.5106060000000 1.0
C      1  0.4887110000000  0.4804720000000  0.4871840000000 1.0
C      1  0.4205600000000  0.4723050000000  0.5119930000000 1.0
C      1  0.5778670000000  0.4634170000000  0.4927400000000 1.0
C      1  0.5839610000000  0.5282020000000  0.5130900000000 1.0
C      1  0.4199020000000  0.5361710000000  0.4918150000000 1.0
C      1  0.5134350000000  0.4044460000000  0.4677920000000 1.0
C      1  0.5010160000000  0.4335080000000  0.5430820000000 1.0
C      1  0.4830450000000  0.5921120000000  0.4589740000000 1.0
C      1  0.4968140000000  0.5619310000000  0.5382580000000 1.0
C      1  0.4035130000000  0.4970470000000  0.5139420000000 1.0
C      1  0.5946240000000  0.4890120000000  0.4887170000000 1.0
C      1  0.5978470000000  0.5020480000000  0.5142420000000 1.0
C      1  0.4039130000000  0.5102890000000  0.4882530000000 1.0
C      1  0.5887810000000  0.4849440000000  0.5360980000000 1.0
C      1  0.4137890000000  0.4926390000000  0.4680930000000 1.0
C      1  0.4102480000000  0.5153970000000  0.5359220000000 1.0
C      1  0.5844930000000  0.5070800000000  0.4691700000000 1.0
C      1  0.4181660000000  0.4668530000000  0.4792970000000 1.0
C      1  0.5830290000000  0.4594870000000  0.5257610000000 1.0
C      1  0.5803960000000  0.5327310000000  0.4803690000000 1.0
C      1  0.4173120000000  0.5404170000000  0.5252800000000 1.0
C      1  0.4677630000000  0.4399050000000  0.4557300000000 1.0
C      1  0.5297280000000  0.4441640000000  0.5452600000000 1.0
C      1  0.5298910000000  0.5595700000000  0.4607720000000 1.0
C      1  0.4674350000000  0.5539700000000  0.5454460000000 1.0
C      1  0.5377000000000  0.4569820000000  0.5744490000000 1.0
C      1  0.4716810000000  0.4503870000000  0.4235490000000 1.0
C      1  0.4633920000000  0.5463310000000  0.5783550000000 1.0
C      1  0.5297850000000  0.5525210000000  0.4273890000000 1.0
C      1  0.5807960000000  0.5583460000000  0.5240450000000 1.0
C      1  0.4280140000000  0.5666820000000  0.4794220000000 1.0
C      1  0.4224250000000  0.4420790000000  0.5239180000000 1.0
C      1  0.5704680000000  0.4331170000000  0.4803270000000 1.0
C      1  0.5597370000000  0.4773080000000  0.5675800000000 1.0
C      1  0.4503140000000  0.4689900000000  0.4350980000000 1.0
C      1  0.4452770000000  0.5263500000000  0.5639910000000 1.0
C      1  0.5482620000000  0.5316330000000  0.4389000000000 1.0
C      1  0.4892080000000  0.4202340000000  0.4732990000000 1.0
C      1  0.4996160000000  0.4186660000000  0.5140330000000 1.0
C      1  0.5043770000000  0.5760150000000  0.4719760000000 1.0
C      1  0.5018170000000  0.5816690000000  0.5127900000000 1.0
C      1  0.4434420000000  0.4985000000000  0.4236860000000 1.0
C      1  0.5600940000000  0.5090840000000  0.5749010000000 1.0
C      1  0.5559840000000  0.5026960000000  0.4248880000000 1.0
C      1  0.4422700000000  0.4945870000000  0.5743440000000 1.0
C      1  0.4623360000000  0.4198280000000  0.5330870000000 1.0
C      1  0.5423360000000  0.4166290000000  0.4705320000000 1.0
C      1  0.5430150000000  0.5828360000000  0.5362480000000 1.0
C      1  0.4560130000000  0.5829910000000  0.4689920000000 1.0
C      1  0.4618250000000  0.5005780000000  0.4809630000000 1.0
C      1  0.5414400000000  0.5021220000000  0.5190640000000 1.0
C      1  0.5362160000000  0.4966710000000  0.4801150000000 1.0
C      1  0.4569530000000  0.4937630000000  0.5198890000000 1.0
C      1  0.5272860000000  0.4218990000000  0.4986510000000 1.0
C      1  0.4716710000000  0.4121570000000  0.5015070000000 1.0
C      1  0.4767670000000  0.5773720000000  0.4953870000000 1.0
C      1  0.5300920000000  0.5827710000000  0.5105280000000 1.0
C      1  0.4867240000000  0.5179510000000  0.5451400000000 1.0
C      1  0.5124260000000  0.5204560000000  0.4527090000000 1.0
C      1  0.5136390000000  0.4885970000000  0.5441790000000 1.0
C      1  0.4860240000000  0.4795060000000  0.4531230000000 1.0
END
