TITL C-2782232-2968-1237 0.00138083815880396 125000 -939.244474206569 0 0 162 (C1) n - 1
REM
REM in /home/nfs/bkarasulu/CARBON/AIRSS/Generating-Clusters/REBO/Higher-Symm/SD-CG/HFTN-CG
REM
REM
REM
REM
REM
REM ./C.cell (12c818d87b63d06a65506943cc24bca4)
REM
REM compiler GCC version 9.2.1 20190827 (Red Hat 9.2.1-1)
REM options -cpp -mtune=generic -march=x86-64 -g -O0 -fpre-include=/usr/include/finclude/math-vector-fortran.h
REM seed -131703272 -495852671 -1877523103 1164800118 579879023 -1116026135 787167638 1606708561 672306606 -1403665043 -1536047953 1834220204 -1164648746 -60356108 763588143 -1889577457 143659360 1176208643 726224647 345816287 -339624813 1771363820 -1202313669 1093388872 -1516177202 473724736 1242256405 -1579055173 -1022055894 -1290679640 -1196184572 -1860697626 -512005548
REM
CELL 1.54180   50.00000   50.00000   50.00000   90.00000   90.00000   90.00000
LATT -1
SFAC C  
C      1  0.4722480000000  0.5062950000000  0.5673110000000 1.0
C      1  0.4721320000000  0.4305590000000  0.4852630000000 1.0
C      1  0.5050160000000  0.5205440000000  0.4455590000000 1.0
C      1  0.5287710000000  0.5043470000000  0.5662470000000 1.0
C      1  0.5265450000000  0.4303340000000  0.4838500000000 1.0
C      1  0.5374190000000  0.5300650000000  0.4384110000000 1.0
C      1  0.4773690000000  0.5025920000000  0.4428810000000 1.0
C      1  0.4718920000000  0.4270120000000  0.5170830000000 1.0
C      1  0.4839420000000  0.5319150000000  0.5495560000000 1.0
C      1  0.5370140000000  0.5016760000000  0.4231830000000 1.0
C      1  0.5278060000000  0.4339400000000  0.5164990000000 1.0
C      1  0.5170000000000  0.5317700000000  0.5545660000000 1.0
C      1  0.5168150000000  0.4034270000000  0.5151130000000 1.0
C      1  0.5148250000000  0.5219980000000  0.4069200000000 1.0
C      1  0.5201690000000  0.5550520000000  0.5787740000000 1.0
C      1  0.4855870000000  0.3999020000000  0.5248420000000 1.0
C      1  0.4816020000000  0.5203060000000  0.4140080000000 1.0
C      1  0.4874780000000  0.5590260000000  0.5700820000000 1.0
C      1  0.5171680000000  0.3998510000000  0.4810630000000 1.0
C      1  0.5203700000000  0.5237510000000  0.5933080000000 1.0
C      1  0.5173640000000  0.5517890000000  0.4242340000000 1.0
C      1  0.4855040000000  0.4007360000000  0.4903950000000 1.0
C      1  0.4875060000000  0.5291970000000  0.5884780000000 1.0
C      1  0.4859550000000  0.5474110000000  0.4359810000000 1.0
C      1  0.5244430000000  0.5761770000000  0.4859220000000 1.0
C      1  0.5283990000000  0.4675600000000  0.5850950000000 1.0
C      1  0.5235000000000  0.4372980000000  0.4288010000000 1.0
C      1  0.4860340000000  0.5986110000000  0.4826550000000 1.0
C      1  0.4782570000000  0.4723040000000  0.5873470000000 1.0
C      1  0.4709350000000  0.4277720000000  0.4357780000000 1.0
C      1  0.5284250000000  0.5794770000000  0.5198010000000 1.0
C      1  0.5230720000000  0.4635200000000  0.4087040000000 1.0
C      1  0.5258260000000  0.4404140000000  0.5656950000000 1.0
C      1  0.4871190000000  0.5987840000000  0.5170200000000 1.0
C      1  0.4738460000000  0.4558320000000  0.4222010000000 1.0
C      1  0.4762950000000  0.4420820000000  0.5717610000000 1.0
C      1  0.4091280000000  0.5041740000000  0.5256920000000 1.0
C      1  0.3939320000000  0.4800150000000  0.4849790000000 1.0
C      1  0.3924460000000  0.5311340000000  0.4866470000000 1.0
C      1  0.5814880000000  0.5091260000000  0.5263500000000 1.0
C      1  0.5971110000000  0.4824170000000  0.4878700000000 1.0
C      1  0.6030270000000  0.5315940000000  0.4866320000000 1.0
C      1  0.4021820000000  0.5059520000000  0.4721800000000 1.0
C      1  0.3961240000000  0.4795080000000  0.5125540000000 1.0
C      1  0.3951770000000  0.5294840000000  0.5153280000000 1.0
C      1  0.5904600000000  0.5079490000000  0.4731380000000 1.0
C      1  0.5916870000000  0.4822380000000  0.5146820000000 1.0
C      1  0.5980550000000  0.5322050000000  0.5145500000000 1.0
C      1  0.4550270000000  0.5654570000000  0.4535500000000 1.0
C      1  0.4451910000000  0.4993100000000  0.5806260000000 1.0
C      1  0.4449610000000  0.4346530000000  0.4668640000000 1.0
C      1  0.5521290000000  0.5595350000000  0.4429050000000 1.0
C      1  0.5547440000000  0.5041460000000  0.5879420000000 1.0
C      1  0.5530810000000  0.4354010000000  0.4659630000000 1.0
C      1  0.4541110000000  0.5473260000000  0.5516820000000 1.0
C      1  0.4482470000000  0.5022720000000  0.4259970000000 1.0
C      1  0.4442950000000  0.4372400000000  0.5272860000000 1.0
C      1  0.5423490000000  0.5473950000000  0.5445090000000 1.0
C      1  0.5648460000000  0.4978080000000  0.4103080000000 1.0
C      1  0.5581940000000  0.4339840000000  0.5267160000000 1.0
C      1  0.5742580000000  0.4573650000000  0.4540220000000 1.0
C      1  0.5898920000000  0.5761840000000  0.4828630000000 1.0
C      1  0.5681270000000  0.4833130000000  0.5680310000000 1.0
C      1  0.4229210000000  0.4564210000000  0.4537230000000 1.0
C      1  0.4152530000000  0.5716930000000  0.4881120000000 1.0
C      1  0.4283990000000  0.4797510000000  0.5635210000000 1.0
C      1  0.5676000000000  0.4563490000000  0.5493300000000 1.0
C      1  0.5862380000000  0.5771940000000  0.5141410000000 1.0
C      1  0.5782190000000  0.4815280000000  0.4327160000000 1.0
C      1  0.4213530000000  0.4538340000000  0.5449460000000 1.0
C      1  0.4161160000000  0.5705080000000  0.5190530000000 1.0
C      1  0.4244280000000  0.4816350000000  0.4326360000000 1.0
C      1  0.4855920000000  0.5337980000000  0.4778710000000 1.0
C      1  0.4778530000000  0.5016560000000  0.5251730000000 1.0
C      1  0.4819780000000  0.4797840000000  0.4817680000000 1.0
C      1  0.5195110000000  0.5375360000000  0.4775900000000 1.0
C      1  0.5125410000000  0.5051270000000  0.5256200000000 1.0
C      1  0.5149440000000  0.4815100000000  0.4805590000000 1.0
C      1  0.4847640000000  0.5293330000000  0.5102020000000 1.0
C      1  0.4668860000000  0.5067130000000  0.4793880000000 1.0
C      1  0.4910440000000  0.4747730000000  0.5118240000000 1.0
C      1  0.5173570000000  0.5305470000000  0.5072140000000 1.0
C      1  0.5250360000000  0.5062140000000  0.4674990000000 1.0
C      1  0.5241340000000  0.4786020000000  0.5111830000000 1.0
C      1  0.4853020000000  0.4772230000000  0.5553330000000 1.0
C      1  0.4831950000000  0.4466030000000  0.4599980000000 1.0
C      1  0.4696490000000  0.5733880000000  0.4924670000000 1.0
C      1  0.5174700000000  0.4779180000000  0.5553690000000 1.0
C      1  0.5153240000000  0.4484130000000  0.4592600000000 1.0
C      1  0.4989610000000  0.5647120000000  0.4984250000000 1.0
C      1  0.4904180000000  0.4751340000000  0.4431860000000 1.0
C      1  0.4810740000000  0.4478370000000  0.5387910000000 1.0
C      1  0.4704580000000  0.5707760000000  0.5254970000000 1.0
C      1  0.5229310000000  0.4756300000000  0.4399010000000 1.0
C      1  0.5123750000000  0.4511290000000  0.5369610000000 1.0
C      1  0.5026380000000  0.5592000000000  0.5294300000000 1.0
C      1  0.5212860000000  0.4905180000000  0.6028640000000 1.0
C      1  0.5169720000000  0.4102570000000  0.4483650000000 1.0
C      1  0.5165090000000  0.5696820000000  0.4534600000000 1.0
C      1  0.4916070000000  0.4970360000000  0.6005400000000 1.0
C      1  0.4868100000000  0.4071400000000  0.4565140000000 1.0
C      1  0.4846040000000  0.5763490000000  0.4558060000000 1.0
C      1  0.5067650000000  0.4893510000000  0.4006490000000 1.0
C      1  0.5150700000000  0.4131990000000  0.5481690000000 1.0
C      1  0.5181120000000  0.5775570000000  0.5528390000000 1.0
C      1  0.4776860000000  0.4859880000000  0.4068840000000 1.0
C      1  0.4849110000000  0.4127330000000  0.5567690000000 1.0
C      1  0.4855720000000  0.5875710000000  0.5504220000000 1.0
C      1  0.5488480000000  0.5477100000000  0.4722570000000 1.0
C      1  0.5469650000000  0.5122120000000  0.5262100000000 1.0
C      1  0.5450960000000  0.4653180000000  0.4801130000000 1.0
C      1  0.4529460000000  0.5427930000000  0.4737660000000 1.0
C      1  0.4433140000000  0.5056550000000  0.5243690000000 1.0
C      1  0.4529740000000  0.4648600000000  0.4785730000000 1.0
C      1  0.5456790000000  0.5439360000000  0.5139770000000 1.0
C      1  0.5574540000000  0.5161160000000  0.4713130000000 1.0
C      1  0.5533670000000  0.4641010000000  0.5127840000000 1.0
C      1  0.4550240000000  0.5342940000000  0.5220890000000 1.0
C      1  0.4349360000000  0.5147520000000  0.4748150000000 1.0
C      1  0.4588320000000  0.4637620000000  0.5100200000000 1.0
C      1  0.4366710000000  0.5261470000000  0.4169190000000 1.0
C      1  0.4337560000000  0.5595110000000  0.5643140000000 1.0
C      1  0.4199300000000  0.4162730000000  0.5235990000000 1.0
C      1  0.5810660000000  0.5202680000000  0.4048050000000 1.0
C      1  0.5602260000000  0.5623280000000  0.5584680000000 1.0
C      1  0.5796390000000  0.4095270000000  0.5264800000000 1.0
C      1  0.4280820000000  0.5181880000000  0.5919690000000 1.0
C      1  0.4318160000000  0.5719270000000  0.4408960000000 1.0
C      1  0.4198250000000  0.4152520000000  0.4727900000000 1.0
C      1  0.5720810000000  0.5248400000000  0.5941730000000 1.0
C      1  0.5760920000000  0.5682300000000  0.4333660000000 1.0
C      1  0.5777410000000  0.4163430000000  0.4738890000000 1.0
C      1  0.5965020000000  0.4323800000000  0.5154210000000 1.0
C      1  0.5989190000000  0.5268910000000  0.4272040000000 1.0
C      1  0.5875360000000  0.5540600000000  0.5573480000000 1.0
C      1  0.3964860000000  0.4296180000000  0.5125320000000 1.0
C      1  0.4108800000000  0.5306680000000  0.4293550000000 1.0
C      1  0.4073710000000  0.5488770000000  0.5605350000000 1.0
C      1  0.5982840000000  0.4322790000000  0.4868360000000 1.0
C      1  0.5906940000000  0.5294880000000  0.5723150000000 1.0
C      1  0.5987620000000  0.5524480000000  0.4409410000000 1.0
C      1  0.3971540000000  0.4298960000000  0.4837440000000 1.0
C      1  0.4056580000000  0.5235130000000  0.5739840000000 1.0
C      1  0.4086070000000  0.5551010000000  0.4442620000000 1.0
C      1  0.5973330000000  0.4579900000000  0.4742560000000 1.0
C      1  0.6039480000000  0.5548770000000  0.4697820000000 1.0
C      1  0.5882480000000  0.5057280000000  0.5562400000000 1.0
C      1  0.3974810000000  0.4557840000000  0.4711960000000 1.0
C      1  0.3990320000000  0.5550580000000  0.4717590000000 1.0
C      1  0.4053240000000  0.5007110000000  0.5565320000000 1.0
C      1  0.5905440000000  0.4574860000000  0.5274850000000 1.0
C      1  0.5975310000000  0.5562740000000  0.5301310000000 1.0
C      1  0.5980890000000  0.5037960000000  0.4440930000000 1.0
C      1  0.3969780000000  0.4552070000000  0.5264560000000 1.0
C      1  0.3991970000000  0.5521010000000  0.5328710000000 1.0
C      1  0.4034020000000  0.5055470000000  0.4412580000000 1.0
C      1  0.4394090000000  0.5522900000000  0.5024610000000 1.0
C      1  0.5591630000000  0.4865790000000  0.4604700000000 1.0
C      1  0.5527810000000  0.4843210000000  0.5383020000000 1.0
C      1  0.4437880000000  0.4762850000000  0.5344100000000 1.0
C      1  0.4357410000000  0.4859160000000  0.4637150000000 1.0
C      1  0.5610170000000  0.5641280000000  0.4959270000000 1.0
END
