TITL C-2782231-7322-131 -0.00144876572898077 125000 -731.958262675606 0 0 122 (C1) n - 1
REM
REM in /home/nfs/bkarasulu/CARBON/AIRSS/Generating-Clusters/REBO/Higher-Symm/SD-CG/HFTN-CG
REM
REM
REM
REM
REM
REM ./C.cell (12c818d87b63d06a65506943cc24bca4)
REM
REM compiler GCC version 9.2.1 20190827 (Red Hat 9.2.1-1)
REM options -cpp -mtune=generic -march=x86-64 -g -O0 -fpre-include=/usr/include/finclude/math-vector-fortran.h
REM seed -568597041 2021864399 -675311241 1367348049 -2003062737 1270928517 -178616060 2048485086 -2099637402 -206693775 1575809844 1685420297 -529535868 -1333282255 1781534179 1327676168 -275962466 324332408 768002907 -1641125347 -905677933 -1295831470 1729699000 -1736884184 950467565 -2098572765 2016285282 -883513999 -33071761 1898076380 513288884 -1723441819 1106245372
REM
CELL 1.54180   50.00000   50.00000   50.00000   90.00000   90.00000   90.00000
LATT -1
SFAC C  
C      1  0.5561770000000  0.4433820000000  0.5388960000000 1.0
C      1  0.5039560000000  0.4406830000000  0.4282780000000 1.0
C      1  0.4349300000000  0.4389730000000  0.5294390000000 1.0
C      1  0.5519170000000  0.5706010000000  0.5403480000000 1.0
C      1  0.5107230000000  0.5679680000000  0.4367550000000 1.0
C      1  0.4416850000000  0.5667260000000  0.5237710000000 1.0
C      1  0.5454760000000  0.4143890000000  0.4907640000000 1.0
C      1  0.4693840000000  0.4111160000000  0.4643170000000 1.0
C      1  0.4842920000000  0.4122900000000  0.5435070000000 1.0
C      1  0.5476600000000  0.5965130000000  0.5002750000000 1.0
C      1  0.4770560000000  0.5934980000000  0.4587960000000 1.0
C      1  0.4765880000000  0.5944370000000  0.5406960000000 1.0
C      1  0.4416350000000  0.4119270000000  0.5126730000000 1.0
C      1  0.5399790000000  0.4154620000000  0.5433450000000 1.0
C      1  0.5174580000000  0.4144110000000  0.4423260000000 1.0
C      1  0.4443460000000  0.5871040000000  0.4963060000000 1.0
C      1  0.5256250000000  0.5901460000000  0.5506630000000 1.0
C      1  0.5319790000000  0.5893030000000  0.4531990000000 1.0
C      1  0.5766010000000  0.5710670000000  0.4724790000000 1.0
C      1  0.4388860000000  0.5668790000000  0.4488480000000 1.0
C      1  0.4873440000000  0.5698850000000  0.5799580000000 1.0
C      1  0.5686040000000  0.4296660000000  0.4625190000000 1.0
C      1  0.4328670000000  0.4251750000000  0.4580500000000 1.0
C      1  0.4965890000000  0.4282300000000  0.5776050000000 1.0
C      1  0.5218160000000  0.5375190000000  0.4441720000000 1.0
C      1  0.4435150000000  0.5358520000000  0.5119210000000 1.0
C      1  0.5417920000000  0.5398150000000  0.5471160000000 1.0
C      1  0.5145830000000  0.4671830000000  0.4412070000000 1.0
C      1  0.4394710000000  0.4654950000000  0.5130000000000 1.0
C      1  0.5385570000000  0.4695930000000  0.5411200000000 1.0
C      1  0.4365030000000  0.5089900000000  0.5864100000000 1.0
C      1  0.6077110000000  0.5107400000000  0.5130660000000 1.0
C      1  0.4587190000000  0.5062770000000  0.4013880000000 1.0
C      1  0.4361030000000  0.4810340000000  0.5848050000000 1.0
C      1  0.6054310000000  0.4828540000000  0.5116480000000 1.0
C      1  0.4578490000000  0.4783030000000  0.4020400000000 1.0
C      1  0.4591170000000  0.5267120000000  0.5891970000000 1.0
C      1  0.5994880000000  0.5290480000000  0.4922470000000 1.0
C      1  0.4459310000000  0.5239820000000  0.4202460000000 1.0
C      1  0.4595520000000  0.4646600000000  0.5864510000000 1.0
C      1  0.5940470000000  0.4674410000000  0.4903880000000 1.0
C      1  0.4431720000000  0.4621050000000  0.4205250000000 1.0
C      1  0.5560020000000  0.4567700000000  0.5078150000000 1.0
C      1  0.4770520000000  0.4544570000000  0.4439420000000 1.0
C      1  0.4610550000000  0.4546280000000  0.5446330000000 1.0
C      1  0.5594880000000  0.5510560000000  0.5134480000000 1.0
C      1  0.4836680000000  0.5484860000000  0.4438610000000 1.0
C      1  0.4620800000000  0.5488840000000  0.5443820000000 1.0
C      1  0.5486660000000  0.5190810000000  0.4919950000000 1.0
C      1  0.4710940000000  0.5165770000000  0.4643470000000 1.0
C      1  0.4888350000000  0.5194880000000  0.5480250000000 1.0
C      1  0.5433540000000  0.4869380000000  0.4851660000000 1.0
C      1  0.4636920000000  0.4843150000000  0.4667110000000 1.0
C      1  0.4839520000000  0.4872310000000  0.5425470000000 1.0
C      1  0.5135440000000  0.4144610000000  0.5546840000000 1.0
C      1  0.5404320000000  0.4152150000000  0.4596810000000 1.0
C      1  0.4450710000000  0.4117450000000  0.4840590000000 1.0
C      1  0.4981110000000  0.5875580000000  0.5593850000000 1.0
C      1  0.5532930000000  0.5884620000000  0.4726800000000 1.0
C      1  0.4505700000000  0.5852150000000  0.4681720000000 1.0
C      1  0.4718710000000  0.5491440000000  0.5046700000000 1.0
C      1  0.5207690000000  0.5513950000000  0.5248030000000 1.0
C      1  0.5133530000000  0.5502790000000  0.4723010000000 1.0
C      1  0.4673790000000  0.4510560000000  0.5053540000000 1.0
C      1  0.5186990000000  0.4539650000000  0.5219230000000 1.0
C      1  0.5079290000000  0.4523560000000  0.4692000000000 1.0
C      1  0.5518550000000  0.4892470000000  0.5181870000000 1.0
C      1  0.4885310000000  0.4870310000000  0.4438350000000 1.0
C      1  0.4511340000000  0.4860410000000  0.5351500000000 1.0
C      1  0.5557680000000  0.5192520000000  0.5252740000000 1.0
C      1  0.4962040000000  0.5169510000000  0.4413300000000 1.0
C      1  0.4572880000000  0.5161750000000  0.5354650000000 1.0
C      1  0.5247520000000  0.5803000000000  0.5120040000000 1.0
C      1  0.4992700000000  0.5787680000000  0.4735100000000 1.0
C      1  0.4787370000000  0.5787170000000  0.5147290000000 1.0
C      1  0.5241820000000  0.4248870000000  0.5081830000000 1.0
C      1  0.4946660000000  0.4228710000000  0.4736840000000 1.0
C      1  0.4795130000000  0.4231360000000  0.5166270000000 1.0
C      1  0.5536930000000  0.5161530000000  0.4143720000000 1.0
C      1  0.4006420000000  0.5159970000000  0.4987280000000 1.0
C      1  0.5513160000000  0.5144660000000  0.5881150000000 1.0
C      1  0.5483270000000  0.4891630000000  0.4115000000000 1.0
C      1  0.3980430000000  0.4884920000000  0.4999720000000 1.0
C      1  0.5482980000000  0.4870750000000  0.5858200000000 1.0
C      1  0.5298420000000  0.4772540000000  0.5680390000000 1.0
C      1  0.5419940000000  0.4750600000000  0.4340850000000 1.0
C      1  0.4196850000000  0.4733850000000  0.4924280000000 1.0
C      1  0.5339250000000  0.5301420000000  0.5738160000000 1.0
C      1  0.5490800000000  0.5276190000000  0.4389460000000 1.0
C      1  0.4248450000000  0.5266410000000  0.4914350000000 1.0
C      1  0.4902000000000  0.4599490000000  0.5277240000000 1.0
C      1  0.5267110000000  0.4606140000000  0.4906530000000 1.0
C      1  0.4764160000000  0.4580670000000  0.4779300000000 1.0
C      1  0.4927360000000  0.5444070000000  0.5295200000000 1.0
C      1  0.5315840000000  0.5450710000000  0.4945150000000 1.0
C      1  0.4820190000000  0.5430080000000  0.4777620000000 1.0
C      1  0.4829590000000  0.5117570000000  0.5955560000000 1.0
C      1  0.5938120000000  0.5141490000000  0.4684190000000 1.0
C      1  0.4289330000000  0.5087070000000  0.4377320000000 1.0
C      1  0.4819330000000  0.4807840000000  0.5935700000000 1.0
C      1  0.5881490000000  0.4840200000000  0.4678320000000 1.0
C      1  0.4249800000000  0.4780550000000  0.4356600000000 1.0
C      1  0.4380430000000  0.5147610000000  0.4675710000000 1.0
C      1  0.5057570000000  0.5213440000000  0.5751960000000 1.0
C      1  0.5622200000000  0.5139540000000  0.4626730000000 1.0
C      1  0.4322550000000  0.4816370000000  0.4667220000000 1.0
C      1  0.5019680000000  0.4885320000000  0.5694560000000 1.0
C      1  0.5584290000000  0.4813270000000  0.4575790000000 1.0
C      1  0.5768350000000  0.4397540000000  0.4912170000000 1.0
C      1  0.4527480000000  0.4352850000000  0.4358480000000 1.0
C      1  0.4672680000000  0.4374310000000  0.5706420000000 1.0
C      1  0.5831070000000  0.5530390000000  0.4941610000000 1.0
C      1  0.4549850000000  0.5488030000000  0.4329760000000 1.0
C      1  0.4658900000000  0.5511330000000  0.5744990000000 1.0
C      1  0.5624640000000  0.4186410000000  0.5173710000000 1.0
C      1  0.4835640000000  0.4158500000000  0.4360790000000 1.0
C      1  0.4527120000000  0.4156570000000  0.5451580000000 1.0
C      1  0.5505810000000  0.6025570000000  0.5316860000000 1.0
C      1  0.5027500000000  0.5999860000000  0.4405220000000 1.0
C      1  0.4476220000000  0.5992030000000  0.5274810000000 1.0
C      1  0.5006650000000  0.5875790000000  0.4999460000000 1.0
C      1  0.4997670000000  0.4150870000000  0.4996680000000 1.0
END
