TITL C-2782233-7966-125 -0.00199420621443101 125000 -916.734872268491 0 0 154 (C1) n - 1
REM
REM in /home/nfs/bkarasulu/CARBON/AIRSS/Generating-Clusters/REBO/Higher-Symm/SD-CG/HFTN-CG
REM
REM
REM
REM
REM
REM ./C.cell (12c818d87b63d06a65506943cc24bca4)
REM
REM compiler GCC version 9.2.1 20190827 (Red Hat 9.2.1-1)
REM options -cpp -mtune=generic -march=x86-64 -g -O0 -fpre-include=/usr/include/finclude/math-vector-fortran.h
REM seed 100575915 -328693994 881479111 625981679 273705537 -991467116 333845554 -382473338 -238136057 52841104 780486522 -2110907301 1701735847 -1086204894 1476740937 1664670211 -689094538 -1421088799 322295406 -765786233 -1713171769 853087705 391158723 -2112916624 -1105877932 137479915 -2086640314 251012457 881549786 1461088365 142087054 598961926 -1723606067
REM
CELL 1.54180   50.00000   50.00000   50.00000   90.00000   90.00000   90.00000
LATT -1
SFAC C  
C      1  0.5816610000000  0.4625590000000  0.4358850000000 1.0
C      1  0.5763300000000  0.4351140000000  0.5254930000000 1.0
C      1  0.5822860000000  0.4900370000000  0.5676270000000 1.0
C      1  0.5900610000000  0.5722870000000  0.5224350000000 1.0
C      1  0.5732610000000  0.5420280000000  0.4465380000000 1.0
C      1  0.5597370000000  0.4388240000000  0.4582960000000 1.0
C      1  0.5367690000000  0.4315520000000  0.5248930000000 1.0
C      1  0.5634590000000  0.5238620000000  0.5680300000000 1.0
C      1  0.5537250000000  0.5635680000000  0.4921150000000 1.0
C      1  0.5283280000000  0.5511180000000  0.4389900000000 1.0
C      1  0.4517330000000  0.5078960000000  0.4650530000000 1.0
C      1  0.4535250000000  0.4709810000000  0.4804350000000 1.0
C      1  0.4515120000000  0.4735880000000  0.5202610000000 1.0
C      1  0.4510430000000  0.5121790000000  0.5307160000000 1.0
C      1  0.4498990000000  0.5342200000000  0.4974060000000 1.0
C      1  0.4189190000000  0.4674170000000  0.5219310000000 1.0
C      1  0.4216850000000  0.5136960000000  0.5440410000000 1.0
C      1  0.4186480000000  0.5423200000000  0.5000930000000 1.0
C      1  0.4213650000000  0.5129000000000  0.4559520000000 1.0
C      1  0.4248370000000  0.4623860000000  0.4709280000000 1.0
C      1  0.4552080000000  0.4216370000000  0.4446990000000 1.0
C      1  0.4605190000000  0.4365260000000  0.5503020000000 1.0
C      1  0.4580830000000  0.5312800000000  0.5867010000000 1.0
C      1  0.4599070000000  0.5867870000000  0.4977540000000 1.0
C      1  0.4643850000000  0.5243910000000  0.4172540000000 1.0
C      1  0.5093130000000  0.3979820000000  0.5086450000000 1.0
C      1  0.5099170000000  0.4722680000000  0.6020010000000 1.0
C      1  0.5083250000000  0.5899350000000  0.5559310000000 1.0
C      1  0.5058960000000  0.5873340000000  0.4292290000000 1.0
C      1  0.5112280000000  0.4556470000000  0.4095920000000 1.0
C      1  0.4910180000000  0.4910710000000  0.5578530000000 1.0
C      1  0.4940410000000  0.5447050000000  0.5244530000000 1.0
C      1  0.4930930000000  0.5367010000000  0.4686340000000 1.0
C      1  0.4975580000000  0.4784460000000  0.4510100000000 1.0
C      1  0.4945860000000  0.4429670000000  0.5016110000000 1.0
C      1  0.4677780000000  0.4013850000000  0.5067630000000 1.0
C      1  0.4621800000000  0.4760350000000  0.5960370000000 1.0
C      1  0.4669140000000  0.5835870000000  0.5541540000000 1.0
C      1  0.4666010000000  0.5774700000000  0.4363380000000 1.0
C      1  0.4661420000000  0.4601440000000  0.4055270000000 1.0
C      1  0.5299840000000  0.4279550000000  0.4343280000000 1.0
C      1  0.5400450000000  0.4282820000000  0.5735370000000 1.0
C      1  0.5341500000000  0.5226390000000  0.5943640000000 1.0
C      1  0.5323310000000  0.5909550000000  0.5117260000000 1.0
C      1  0.5434940000000  0.5271740000000  0.4025100000000 1.0
C      1  0.6069780000000  0.5220970000000  0.5072980000000 1.0
C      1  0.6053160000000  0.5134820000000  0.4788170000000 1.0
C      1  0.6065970000000  0.4837780000000  0.4784530000000 1.0
C      1  0.6074020000000  0.4741320000000  0.5065180000000 1.0
C      1  0.6086740000000  0.4977800000000  0.5240480000000 1.0
C      1  0.4801920000000  0.4218610000000  0.4333750000000 1.0
C      1  0.4846030000000  0.4235590000000  0.5504480000000 1.0
C      1  0.4832490000000  0.5238500000000  0.5951090000000 1.0
C      1  0.4830240000000  0.5979690000000  0.5076890000000 1.0
C      1  0.4874180000000  0.5378190000000  0.4105230000000 1.0
C      1  0.4964930000000  0.4871300000000  0.4806400000000 1.0
C      1  0.4962580000000  0.4735080000000  0.5047020000000 1.0
C      1  0.4986230000000  0.4911120000000  0.5268210000000 1.0
C      1  0.5072100000000  0.5181350000000  0.5146530000000 1.0
C      1  0.4989980000000  0.5138800000000  0.4859660000000 1.0
C      1  0.5526650000000  0.4956000000000  0.5229320000000 1.0
C      1  0.5371900000000  0.5205200000000  0.5098530000000 1.0
C      1  0.5455330000000  0.5196450000000  0.4784490000000 1.0
C      1  0.5500930000000  0.4875370000000  0.4696950000000 1.0
C      1  0.5542970000000  0.4712450000000  0.4989930000000 1.0
C      1  0.4377400000000  0.5455560000000  0.5660070000000 1.0
C      1  0.4389380000000  0.5718000000000  0.4789950000000 1.0
C      1  0.4439330000000  0.5011390000000  0.4254840000000 1.0
C      1  0.4374690000000  0.4245580000000  0.4711900000000 1.0
C      1  0.4369390000000  0.4569570000000  0.5559540000000 1.0
C      1  0.5969730000000  0.5283480000000  0.4555370000000 1.0
C      1  0.6017400000000  0.4705370000000  0.4538150000000 1.0
C      1  0.6002710000000  0.4494800000000  0.5194550000000 1.0
C      1  0.6040740000000  0.4931860000000  0.5517860000000 1.0
C      1  0.6024680000000  0.5483360000000  0.5170580000000 1.0
C      1  0.4774950000000  0.5801770000000  0.5794010000000 1.0
C      1  0.4737600000000  0.6012650000000  0.4483080000000 1.0
C      1  0.4775030000000  0.4795120000000  0.3891450000000 1.0
C      1  0.4783150000000  0.3858950000000  0.4864990000000 1.0
C      1  0.4691740000000  0.4499590000000  0.6024980000000 1.0
C      1  0.5072980000000  0.5616000000000  0.4791390000000 1.0
C      1  0.5117140000000  0.5000530000000  0.4329760000000 1.0
C      1  0.5092960000000  0.4323730000000  0.4777960000000 1.0
C      1  0.5111230000000  0.4588910000000  0.5528880000000 1.0
C      1  0.5116930000000  0.5370140000000  0.5495480000000 1.0
C      1  0.4050370000000  0.4878740000000  0.4655660000000 1.0
C      1  0.4052590000000  0.4708170000000  0.4956950000000 1.0
C      1  0.4076280000000  0.4857740000000  0.5409170000000 1.0
C      1  0.4075010000000  0.5369770000000  0.5297570000000 1.0
C      1  0.4036060000000  0.5245600000000  0.4805840000000 1.0
C      1  0.5441320000000  0.5494520000000  0.5172250000000 1.0
C      1  0.5558010000000  0.5463110000000  0.4700600000000 1.0
C      1  0.5509740000000  0.4698210000000  0.4470730000000 1.0
C      1  0.5549610000000  0.4423500000000  0.5017250000000 1.0
C      1  0.5533410000000  0.4957160000000  0.5513380000000 1.0
C      1  0.5472260000000  0.6058290000000  0.4865720000000 1.0
C      1  0.5565320000000  0.5044730000000  0.3910230000000 1.0
C      1  0.5523010000000  0.4091570000000  0.4518300000000 1.0
C      1  0.5515710000000  0.4439440000000  0.5932530000000 1.0
C      1  0.5536790000000  0.5483750000000  0.5838090000000 1.0
C      1  0.5069110000000  0.6029530000000  0.4922330000000 1.0
C      1  0.5121580000000  0.5192350000000  0.4052080000000 1.0
C      1  0.5036100000000  0.4130480000000  0.4499440000000 1.0
C      1  0.5075730000000  0.4328660000000  0.5725250000000 1.0
C      1  0.5064310000000  0.5401700000000  0.5958990000000 1.0
C      1  0.4388840000000  0.5330890000000  0.4369160000000 1.0
C      1  0.4348480000000  0.4474390000000  0.4453070000000 1.0
C      1  0.4353170000000  0.4380240000000  0.5274060000000 1.0
C      1  0.4337550000000  0.5124850000000  0.5736770000000 1.0
C      1  0.4365550000000  0.5683160000000  0.5130570000000 1.0
C      1  0.5403030000000  0.4725290000000  0.5951670000000 1.0
C      1  0.5379560000000  0.5671830000000  0.5695370000000 1.0
C      1  0.5366390000000  0.5989000000000  0.4625150000000 1.0
C      1  0.5418440000000  0.4813900000000  0.3948060000000 1.0
C      1  0.5412890000000  0.3932730000000  0.4742900000000 1.0
C      1  0.5042070000000  0.6042930000000  0.4588330000000 1.0
C      1  0.5082380000000  0.4868600000000  0.3953850000000 1.0
C      1  0.5082600000000  0.3925230000000  0.4750900000000 1.0
C      1  0.4972860000000  0.4456810000000  0.5987530000000 1.0
C      1  0.5081790000000  0.5691270000000  0.5830750000000 1.0
C      1  0.4884340000000  0.5645670000000  0.4198370000000 1.0
C      1  0.4865080000000  0.4418350000000  0.4141380000000 1.0
C      1  0.4885960000000  0.4076600000000  0.5276780000000 1.0
C      1  0.4888170000000  0.4936670000000  0.5913840000000 1.0
C      1  0.4868060000000  0.5949050000000  0.5357960000000 1.0
C      1  0.4633790000000  0.5375240000000  0.4682180000000 1.0
C      1  0.4661710000000  0.4816580000000  0.4524200000000 1.0
C      1  0.4642020000000  0.4498020000000  0.5022680000000 1.0
C      1  0.4619660000000  0.4870330000000  0.5476550000000 1.0
C      1  0.4642560000000  0.5420740000000  0.5250050000000 1.0
C      1  0.5368420000000  0.4218590000000  0.4863490000000 1.0
C      1  0.5290070000000  0.4820680000000  0.5656330000000 1.0
C      1  0.5341320000000  0.5559560000000  0.5428180000000 1.0
C      1  0.5260770000000  0.5708700000000  0.4594880000000 1.0
C      1  0.5314310000000  0.4758000000000  0.4259210000000 1.0
C      1  0.5523370000000  0.5426130000000  0.4249270000000 1.0
C      1  0.5608790000000  0.4386030000000  0.4245240000000 1.0
C      1  0.5537750000000  0.4262290000000  0.5487350000000 1.0
C      1  0.5579070000000  0.4982840000000  0.5907050000000 1.0
C      1  0.5654850000000  0.5829610000000  0.5134880000000 1.0
C      1  0.5124000000000  0.4447280000000  0.5273000000000 1.0
C      1  0.5148500000000  0.5129310000000  0.5679890000000 1.0
C      1  0.5092820000000  0.5663520000000  0.5072410000000 1.0
C      1  0.5091060000000  0.5305450000000  0.4432790000000 1.0
C      1  0.5109430000000  0.4514320000000  0.4499900000000 1.0
C      1  0.4430870000000  0.4822430000000  0.5734820000000 1.0
C      1  0.4482190000000  0.5625340000000  0.5431530000000 1.0
C      1  0.4479640000000  0.5596790000000  0.4516170000000 1.0
C      1  0.4486830000000  0.4700190000000  0.4278140000000 1.0
C      1  0.4469870000000  0.4235030000000  0.5006200000000 1.0
C      1  0.4510940000000  0.5000770000000  0.4984650000000 1.0
C      1  0.5688040000000  0.5015520000000  0.4944560000000 1.0
C      1  0.3597260000000  0.5020180000000  0.5045930000000 1.0
C      1  0.3860930000000  0.4986270000000  0.4915220000000 1.0
END
