TITL C-2782225-7408-625 -0.00777189622468838 125000 -853.814044840409 0 0 151 (C1) n - 1
REM
REM in /home/nfs/bkarasulu/CARBON/AIRSS/Generating-Clusters/REBO/Higher-Symm/SD-CG/HFTN-CG
REM
REM
REM
REM
REM
REM ./C.cell (12c818d87b63d06a65506943cc24bca4)
REM
REM compiler GCC version 9.2.1 20190827 (Red Hat 9.2.1-1)
REM options -cpp -mtune=generic -march=x86-64 -g -O0 -fpre-include=/usr/include/finclude/math-vector-fortran.h
REM seed 1085266039 -1809626622 1631056258 -219139714 1890601304 795764053 -244893203 1011578982 1471468333 383457981 1692158420 726683434 -658952999 -841671324 -967112802 -972749926 1399555249 -125399655 1081185435 1067048422 -1429095697 -1591120449 -1065958938 -1683094670 1899469404 -2085773954 1959773521 -366569193 1331416226 -1250674869 911154095 940796602 1902079607
REM
CELL 1.54180   50.00000   50.00000   50.00000   90.00000   90.00000   90.00000
LATT -1
SFAC C  
C      1  0.4842340000000  0.4007990000000  0.5254390000000 1.0
C      1  0.5235230000000  0.4788990000000  0.4035300000000 1.0
C      1  0.3977540000000  0.5258700000000  0.4718000000000 1.0
C      1  0.5176630000000  0.3992170000000  0.4810000000000 1.0
C      1  0.4773020000000  0.5910290000000  0.4796990000000 1.0
C      1  0.5195320000000  0.5944510000000  0.5168880000000 1.0
C      1  0.4757650000000  0.4771770000000  0.5964780000000 1.0
C      1  0.5214670000000  0.5268900000000  0.5897950000000 1.0
C      1  0.4866170000000  0.5203010000000  0.3989480000000 1.0
C      1  0.5960680000000  0.5261240000000  0.5149840000000 1.0
C      1  0.3977520000000  0.4775870000000  0.5145080000000 1.0
C      1  0.6002850000000  0.4783590000000  0.4833980000000 1.0
C      1  0.5920150000000  0.5257440000000  0.4705350000000 1.0
C      1  0.4680120000000  0.5844040000000  0.5289030000000 1.0
C      1  0.5177020000000  0.4489950000000  0.5937390000000 1.0
C      1  0.4104530000000  0.5266120000000  0.5452770000000 1.0
C      1  0.5935070000000  0.4897790000000  0.5470390000000 1.0
C      1  0.4051410000000  0.4962330000000  0.4445280000000 1.0
C      1  0.5292020000000  0.5858910000000  0.4719530000000 1.0
C      1  0.4446170000000  0.4004490000000  0.4814310000000 1.0
C      1  0.5567810000000  0.3983280000000  0.5181700000000 1.0
C      1  0.4820180000000  0.4553330000000  0.4151020000000 1.0
C      1  0.5128330000000  0.5463920000000  0.4138760000000 1.0
C      1  0.4848260000000  0.5401090000000  0.5821400000000 1.0
C      1  0.4128640000000  0.5412490000000  0.4983390000000 1.0
C      1  0.5136020000000  0.4172870000000  0.5308170000000 1.0
C      1  0.5333400000000  0.5041360000000  0.4200100000000 1.0
C      1  0.5661070000000  0.5334740000000  0.4989050000000 1.0
C      1  0.4164470000000  0.4660430000000  0.4901480000000 1.0
C      1  0.5861650000000  0.4609090000000  0.5087010000000 1.0
C      1  0.4931890000000  0.4155590000000  0.4718830000000 1.0
C      1  0.4960110000000  0.5643220000000  0.4687650000000 1.0
C      1  0.5036500000000  0.5676900000000  0.5307920000000 1.0
C      1  0.4684460000000  0.5047160000000  0.5807900000000 1.0
C      1  0.5361220000000  0.4992930000000  0.5847240000000 1.0
C      1  0.4704290000000  0.5048410000000  0.4153660000000 1.0
C      1  0.4754570000000  0.4961810000000  0.4687500000000 1.0
C      1  0.4644340000000  0.4811670000000  0.5067670000000 1.0
C      1  0.4968410000000  0.4604140000000  0.4808980000000 1.0
C      1  0.5316460000000  0.4931290000000  0.5430820000000 1.0
C      1  0.4990940000000  0.4958780000000  0.5324270000000 1.0
C      1  0.5324820000000  0.4980120000000  0.4594850000000 1.0
C      1  0.5258460000000  0.4831780000000  0.4957920000000 1.0
C      1  0.4590440000000  0.5144390000000  0.5000860000000 1.0
C      1  0.5331480000000  0.5136760000000  0.5091430000000 1.0
C      1  0.4971090000000  0.4601510000000  0.5157190000000 1.0
C      1  0.5058980000000  0.5306750000000  0.5148870000000 1.0
C      1  0.4931090000000  0.5278860000000  0.4847480000000 1.0
C      1  0.4435420000000  0.5099030000000  0.4191650000000 1.0
C      1  0.4184400000000  0.4361940000000  0.4978960000000 1.0
C      1  0.4965620000000  0.4207620000000  0.4429160000000 1.0
C      1  0.5629510000000  0.5026210000000  0.5787200000000 1.0
C      1  0.4407260000000  0.5041890000000  0.5727490000000 1.0
C      1  0.5601310000000  0.5004000000000  0.4277000000000 1.0
C      1  0.5850620000000  0.4316580000000  0.4990070000000 1.0
C      1  0.4130280000000  0.5494260000000  0.5273040000000 1.0
C      1  0.5861970000000  0.5559920000000  0.4863730000000 1.0
C      1  0.5042730000000  0.4194010000000  0.5607010000000 1.0
C      1  0.4914750000000  0.5861060000000  0.5544810000000 1.0
C      1  0.5071040000000  0.5860090000000  0.4457390000000 1.0
C      1  0.5743360000000  0.5235050000000  0.4435080000000 1.0
C      1  0.4348510000000  0.5753060000000  0.5286270000000 1.0
C      1  0.5277070000000  0.4283500000000  0.5774880000000 1.0
C      1  0.4297340000000  0.5286030000000  0.5657410000000 1.0
C      1  0.5735950000000  0.4808270000000  0.5649080000000 1.0
C      1  0.4314280000000  0.4886660000000  0.4331450000000 1.0
C      1  0.5623990000000  0.5774220000000  0.4745690000000 1.0
C      1  0.4271100000000  0.4217510000000  0.4730480000000 1.0
C      1  0.5796410000000  0.4149830000000  0.5241170000000 1.0
C      1  0.4732400000000  0.4349400000000  0.4325100000000 1.0
C      1  0.5274620000000  0.5690470000000  0.4265460000000 1.0
C      1  0.4737380000000  0.5689870000000  0.5746150000000 1.0
C      1  0.4007910000000  0.5262190000000  0.4378860000000 1.0
C      1  0.4517610000000  0.4000600000000  0.5145710000000 1.0
C      1  0.5097210000000  0.4507150000000  0.4078920000000 1.0
C      1  0.5944790000000  0.5195280000000  0.5438890000000 1.0
C      1  0.4113690000000  0.4963550000000  0.5390410000000 1.0
C      1  0.5875560000000  0.4943860000000  0.4561440000000 1.0
C      1  0.5499320000000  0.4000500000000  0.4867960000000 1.0
C      1  0.4504920000000  0.5833220000000  0.4992090000000 1.0
C      1  0.5474450000000  0.5929710000000  0.5001940000000 1.0
C      1  0.4874490000000  0.4490530000000  0.5924590000000 1.0
C      1  0.5103880000000  0.5581510000000  0.5890390000000 1.0
C      1  0.4824020000000  0.5528470000000  0.4082390000000 1.0
C      1  0.5436880000000  0.5255430000000  0.4538710000000 1.0
C      1  0.4534680000000  0.5475190000000  0.5239500000000 1.0
C      1  0.5377110000000  0.4359210000000  0.5466820000000 1.0
C      1  0.4489320000000  0.5481450000000  0.5575930000000 1.0
C      1  0.5497250000000  0.4672250000000  0.5495080000000 1.0
C      1  0.4528540000000  0.4770500000000  0.4517890000000 1.0
C      1  0.5485120000000  0.5479290000000  0.4764750000000 1.0
C      1  0.4410800000000  0.4529450000000  0.4698950000000 1.0
C      1  0.5672820000000  0.4447080000000  0.5320610000000 1.0
C      1  0.4727540000000  0.4449550000000  0.4638370000000 1.0
C      1  0.5230940000000  0.5506080000000  0.4545620000000 1.0
C      1  0.4799170000000  0.5495840000000  0.5439150000000 1.0
C      1  0.5308300000000  0.4273050000000  0.4657140000000 1.0
C      1  0.4658070000000  0.5407930000000  0.4353660000000 1.0
C      1  0.4219910000000  0.4589710000000  0.5304120000000 1.0
C      1  0.4682380000000  0.4291360000000  0.5353820000000 1.0
C      1  0.5423250000000  0.5745040000000  0.5350090000000 1.0
C      1  0.4575450000000  0.5683200000000  0.4629730000000 1.0
C      1  0.5381980000000  0.5439720000000  0.5649310000000 1.0
C      1  0.4654270000000  0.4679360000000  0.5652360000000 1.0
C      1  0.5337520000000  0.4670200000000  0.4345080000000 1.0
C      1  0.5742200000000  0.4596640000000  0.4706400000000 1.0
C      1  0.4296710000000  0.5360970000000  0.4627280000000 1.0
C      1  0.5656750000000  0.5449740000000  0.5360760000000 1.0
C      1  0.5636110000000  0.4289630000000  0.4748480000000 1.0
C      1  0.4770580000000  0.5731430000000  0.4353360000000 1.0
C      1  0.4345920000000  0.4773580000000  0.5561630000000 1.0
C      1  0.4361150000000  0.4291380000000  0.5241000000000 1.0
C      1  0.5691780000000  0.5700900000000  0.5131800000000 1.0
C      1  0.4302290000000  0.5632440000000  0.4815460000000 1.0
C      1  0.5234730000000  0.5750900000000  0.5635750000000 1.0
C      1  0.4771650000000  0.4363680000000  0.5636510000000 1.0
C      1  0.5241030000000  0.4352650000000  0.4347720000000 1.0
C      1  0.5649540000000  0.4727290000000  0.4420770000000 1.0
C      1  0.4322750000000  0.5373960000000  0.4305440000000 1.0
C      1  0.5696500000000  0.5305120000000  0.5649760000000 1.0
C      1  0.4363020000000  0.4871290000000  0.5176210000000 1.0
C      1  0.5266210000000  0.4493330000000  0.4914320000000 1.0
C      1  0.4891060000000  0.5218570000000  0.4512710000000 1.0
C      1  0.5540600000000  0.4845470000000  0.4785960000000 1.0
C      1  0.4453210000000  0.5110980000000  0.4712880000000 1.0
C      1  0.5573390000000  0.5120950000000  0.5311440000000 1.0
C      1  0.4684650000000  0.4474000000000  0.5065790000000 1.0
C      1  0.5337190000000  0.5483370000000  0.5143750000000 1.0
C      1  0.4654480000000  0.5457820000000  0.4878450000000 1.0
C      1  0.5211450000000  0.5257470000000  0.5452960000000 1.0
C      1  0.4954890000000  0.4687040000000  0.5489470000000 1.0
C      1  0.5072470000000  0.4778290000000  0.4533600000000 1.0
C      1  0.5130830000000  0.5217560000000  0.4287930000000 1.0
C      1  0.4187410000000  0.5085750000000  0.5008290000000 1.0
C      1  0.5344600000000  0.4227070000000  0.5083470000000 1.0
C      1  0.4912600000000  0.5162690000000  0.5587010000000 1.0
C      1  0.5126210000000  0.4762710000000  0.5775490000000 1.0
C      1  0.4805990000000  0.4808370000000  0.4324660000000 1.0
C      1  0.5721560000000  0.5050650000000  0.4911320000000 1.0
C      1  0.4204440000000  0.4913830000000  0.4714040000000 1.0
C      1  0.5798450000000  0.4899190000000  0.5180310000000 1.0
C      1  0.4706680000000  0.4176330000000  0.4922280000000 1.0
C      1  0.5156430000000  0.5627420000000  0.4933270000000 1.0
C      1  0.4839130000000  0.5629070000000  0.5066480000000 1.0
C      1  0.3870220000000  0.5000210000000  0.4912360000000 1.0
C      1  0.5032560000000  0.3886960000000  0.5049010000000 1.0
C      1  0.5079190000000  0.5055870000000  0.3893200000000 1.0
C      1  0.6111020000000  0.5063870000000  0.4995380000000 1.0
C      1  0.4979430000000  0.6037150000000  0.4978990000000 1.0
C      1  0.4986970000000  0.5022320000000  0.5952490000000 1.0
C      1  0.4943370000000  0.4960930000000  0.4985750000000 1.0
END
