TITL C-2782228-2999-1350 0.00153090663940934 125000 -532.838701146156 0 0 89 (C1) n - 1
REM
REM in /home/nfs/bkarasulu/CARBON/AIRSS/Generating-Clusters/REBO/Higher-Symm/SD-CG/HFTN-CG
REM
REM
REM
REM
REM
REM ./C.cell (12c818d87b63d06a65506943cc24bca4)
REM
REM compiler GCC version 9.2.1 20190827 (Red Hat 9.2.1-1)
REM options -cpp -mtune=generic -march=x86-64 -g -O0 -fpre-include=/usr/include/finclude/math-vector-fortran.h
REM seed -1477808610 -124718797 1831888523 -1307241724 2050630541 2096869226 -1854265245 1549868013 -871841052 -1223023638 -1562308652 1043618694 -802606664 1791748019 -1624707983 543460565 -760610656 62241861 18927329 -787398207 -373805547 903962507 -1001820755 -117305217 -1779459784 1342340428 -939693403 -1324261117 -162859167 -144445988 648004941 -1026929867 -1322976268
REM
CELL 1.54180   50.00000   50.00000   50.00000   90.00000   90.00000   90.00000
LATT -1
SFAC C  
C      1  0.4785990000000  0.4745110000000  0.5600400000000 1.0
C      1  0.4851340000000  0.5366660000000  0.5617570000000 1.0
C      1  0.5372500000000  0.4940460000000  0.5600320000000 1.0
C      1  0.5866480000000  0.4819320000000  0.4120100000000 1.0
C      1  0.4559300000000  0.4389960000000  0.4118860000000 1.0
C      1  0.4679310000000  0.5723840000000  0.4016830000000 1.0
C      1  0.4396040000000  0.4618380000000  0.4526910000000 1.0
C      1  0.4815520000000  0.5851210000000  0.4471590000000 1.0
C      1  0.5709950000000  0.4570720000000  0.4516040000000 1.0
C      1  0.4439370000000  0.4967680000000  0.4716860000000 1.0
C      1  0.5149150000000  0.5720620000000  0.4797440000000 1.0
C      1  0.5294500000000  0.4522800000000  0.4736830000000 1.0
C      1  0.5199060000000  0.5867910000000  0.5094650000000 1.0
C      1  0.5614230000000  0.4271010000000  0.5183820000000 1.0
C      1  0.4160600000000  0.4711120000000  0.5201500000000 1.0
C      1  0.5668760000000  0.5656310000000  0.5318470000000 1.0
C      1  0.5239220000000  0.4034920000000  0.5440310000000 1.0
C      1  0.4021440000000  0.5192330000000  0.5443940000000 1.0
C      1  0.4776080000000  0.4667860000000  0.5320900000000 1.0
C      1  0.4716920000000  0.5436460000000  0.5354710000000 1.0
C      1  0.5486930000000  0.4945400000000  0.5321970000000 1.0
C      1  0.4893090000000  0.4836450000000  0.4596200000000 1.0
C      1  0.4942060000000  0.5318660000000  0.4576570000000 1.0
C      1  0.5341010000000  0.5000050000000  0.4608920000000 1.0
C      1  0.5407130000000  0.4809250000000  0.4826370000000 1.0
C      1  0.4697540000000  0.4803970000000  0.4814950000000 1.0
C      1  0.4900190000000  0.5489600000000  0.4824270000000 1.0
C      1  0.4901880000000  0.5397930000000  0.4308210000000 1.0
C      1  0.5453180000000  0.4957810000000  0.4350120000000 1.0
C      1  0.4830430000000  0.4738540000000  0.4338510000000 1.0
C      1  0.5278180000000  0.6070250000000  0.4448240000000 1.0
C      1  0.5418540000000  0.4168460000000  0.4408760000000 1.0
C      1  0.4072860000000  0.4995830000000  0.4337710000000 1.0
C      1  0.4997660000000  0.4690930000000  0.5784980000000 1.0
C      1  0.4724100000000  0.5189480000000  0.5799360000000 1.0
C      1  0.5282990000000  0.5162070000000  0.5755950000000 1.0
C      1  0.5762900000000  0.4773190000000  0.5258980000000 1.0
C      1  0.4619560000000  0.4434450000000  0.5247790000000 1.0
C      1  0.4681570000000  0.5745180000000  0.5245940000000 1.0
C      1  0.5266540000000  0.5011700000000  0.4138420000000 1.0
C      1  0.4967090000000  0.4877600000000  0.4129270000000 1.0
C      1  0.4998820000000  0.5205440000000  0.4119090000000 1.0
C      1  0.4451510000000  0.5032260000000  0.5434430000000 1.0
C      1  0.5246820000000  0.5470800000000  0.5382180000000 1.0
C      1  0.5278290000000  0.4502500000000  0.5439250000000 1.0
C      1  0.5689840000000  0.4790870000000  0.4324990000000 1.0
C      1  0.4600890000000  0.4564950000000  0.4322510000000 1.0
C      1  0.4787460000000  0.5656970000000  0.4257270000000 1.0
C      1  0.4067990000000  0.4961470000000  0.5041470000000 1.0
C      1  0.5501060000000  0.5788640000000  0.4954790000000 1.0
C      1  0.5471070000000  0.4084710000000  0.5001430000000 1.0
C      1  0.5765190000000  0.5111790000000  0.5251660000000 1.0
C      1  0.4768550000000  0.4185920000000  0.5261240000000 1.0
C      1  0.4406200000000  0.5570410000000  0.5325830000000 1.0
C      1  0.5149610000000  0.4416730000000  0.4952200000000 1.0
C      1  0.4346060000000  0.5117960000000  0.4953950000000 1.0
C      1  0.5326160000000  0.5474020000000  0.4906130000000 1.0
C      1  0.5133240000000  0.5365200000000  0.5614780000000 1.0
C      1  0.5254650000000  0.4688030000000  0.5655830000000 1.0
C      1  0.4614650000000  0.4965540000000  0.5657710000000 1.0
C      1  0.5458540000000  0.4400130000000  0.4542300000000 1.0
C      1  0.4262340000000  0.4888500000000  0.4491610000000 1.0
C      1  0.5096940000000  0.5900770000000  0.4566280000000 1.0
C      1  0.4087640000000  0.5286000000000  0.5061530000000 1.0
C      1  0.5647450000000  0.5506350000000  0.4948900000000 1.0
C      1  0.5181310000000  0.4134070000000  0.4997920000000 1.0
C      1  0.4175080000000  0.4944950000000  0.5424970000000 1.0
C      1  0.5385720000000  0.5711050000000  0.5327120000000 1.0
C      1  0.5430150000000  0.4258000000000  0.5426410000000 1.0
C      1  0.4784490000000  0.4893940000000  0.5100340000000 1.0
C      1  0.4851660000000  0.5320990000000  0.5094120000000 1.0
C      1  0.5284020000000  0.4862670000000  0.5107640000000 1.0
C      1  0.5026660000000  0.4053980000000  0.5236670000000 1.0
C      1  0.4154480000000  0.5442340000000  0.5312860000000 1.0
C      1  0.5769310000000  0.5386790000000  0.5198390000000 1.0
C      1  0.5181680000000  0.4585050000000  0.5183960000000 1.0
C      1  0.4557930000000  0.5090370000000  0.5175080000000 1.0
C      1  0.5177640000000  0.5342740000000  0.5124390000000 1.0
C      1  0.5671620000000  0.4625960000000  0.4817110000000 1.0
C      1  0.4463770000000  0.4580720000000  0.4814200000000 1.0
C      1  0.4758770000000  0.5786260000000  0.4762890000000 1.0
C      1  0.4862050000000  0.5839270000000  0.5049150000000 1.0
C      1  0.5730120000000  0.4537260000000  0.5091190000000 1.0
C      1  0.4378260000000  0.4526540000000  0.5089020000000 1.0
C      1  0.4966130000000  0.4687920000000  0.6054510000000 1.0
C      1  0.4746470000000  0.5202170000000  0.6069200000000 1.0
C      1  0.5290790000000  0.5158220000000  0.6028130000000 1.0
C      1  0.5055250000000  0.5046330000000  0.5099410000000 1.0
C      1  0.5064210000000  0.5064170000000  0.4612790000000 1.0
END
