TITL C-2782238-9940-2 4.58652677441332e-05 125000 -439.589448190398 0 0 75 (C1) n - 1
REM
REM in /home/nfs/bkarasulu/CARBON/AIRSS/Generating-Clusters/REBO/Higher-Symm/SD-CG/HFTN-CG
REM
REM
REM
REM
REM
REM ./C.cell (12c818d87b63d06a65506943cc24bca4)
REM
REM compiler GCC version 9.2.1 20190827 (Red Hat 9.2.1-1)
REM options -cpp -mtune=generic -march=x86-64 -g -O0 -fpre-include=/usr/include/finclude/math-vector-fortran.h
REM seed 1572982082 -449362815 867801854 1417413657 1759428483 1479404452 38627990 1548815340 -1828858278 -62667337 -1903366040 -1363291449 -1314828467 1608264243 169575805 -1398533321 370622094 -1467281601 1574452710 651519868 960006912 -1379011516 -305084453 -272045990 1943206068 -264968964 -366481364 312099236 1508751987 -1300686240 1874788583 1004800116 354779960
REM
CELL 1.54180   50.00000   50.00000   50.00000   90.00000   90.00000   90.00000
LATT -1
SFAC C  
C      1  0.4857970000000  0.4118600000000  0.4808300000000 1.0
C      1  0.5134730000000  0.4162860000000  0.5090770000000 1.0
C      1  0.4818530000000  0.4164200000000  0.5120770000000 1.0
C      1  0.5161580000000  0.4099390000000  0.4775900000000 1.0
C      1  0.4790260000000  0.5322300000000  0.4328610000000 1.0
C      1  0.5174390000000  0.5313530000000  0.5695530000000 1.0
C      1  0.4778340000000  0.5334310000000  0.5667050000000 1.0
C      1  0.5187140000000  0.5326200000000  0.4308920000000 1.0
C      1  0.4258030000000  0.5009020000000  0.5295160000000 1.0
C      1  0.5683420000000  0.4880510000000  0.4786410000000 1.0
C      1  0.4294830000000  0.4884500000000  0.4799430000000 1.0
C      1  0.5688400000000  0.4987630000000  0.5284520000000 1.0
C      1  0.5495070000000  0.4774470000000  0.5390970000000 1.0
C      1  0.4457390000000  0.4719150000000  0.4620680000000 1.0
C      1  0.5548060000000  0.4713220000000  0.4588590000000 1.0
C      1  0.4444510000000  0.4805220000000  0.5429220000000 1.0
C      1  0.4479710000000  0.5489680000000  0.5143730000000 1.0
C      1  0.5453740000000  0.5413660000000  0.4851580000000 1.0
C      1  0.4514700000000  0.5429290000000  0.4842680000000 1.0
C      1  0.5499950000000  0.5475160000000  0.5150650000000 1.0
C      1  0.5636810000000  0.5285600000000  0.5324180000000 1.0
C      1  0.4311240000000  0.5177380000000  0.4736400000000 1.0
C      1  0.5643540000000  0.5163920000000  0.4736630000000 1.0
C      1  0.4324340000000  0.5305140000000  0.5298960000000 1.0
C      1  0.5252200000000  0.5624810000000  0.4672890000000 1.0
C      1  0.4744560000000  0.5604670000000  0.5296030000000 1.0
C      1  0.5240260000000  0.5605020000000  0.5281160000000 1.0
C      1  0.4723560000000  0.5630390000000  0.4660570000000 1.0
C      1  0.4778820000000  0.4768870000000  0.5480150000000 1.0
C      1  0.5231520000000  0.4721740000000  0.4461380000000 1.0
C      1  0.4763730000000  0.4721080000000  0.4467250000000 1.0
C      1  0.5202180000000  0.4795040000000  0.5485650000000 1.0
C      1  0.5425730000000  0.4482250000000  0.4715180000000 1.0
C      1  0.4474800000000  0.4555750000000  0.5230770000000 1.0
C      1  0.5537690000000  0.4510240000000  0.5217470000000 1.0
C      1  0.4598460000000  0.4505260000000  0.4758440000000 1.0
C      1  0.5124250000000  0.5307950000000  0.5195810000000 1.0
C      1  0.4841580000000  0.5349930000000  0.4787830000000 1.0
C      1  0.5125240000000  0.5343840000000  0.4791330000000 1.0
C      1  0.4847960000000  0.5306510000000  0.5222260000000 1.0
C      1  0.5421380000000  0.5202080000000  0.4498400000000 1.0
C      1  0.4483610000000  0.5203710000000  0.5560880000000 1.0
C      1  0.5415880000000  0.5140090000000  0.5532720000000 1.0
C      1  0.4563370000000  0.5194250000000  0.4523070000000 1.0
C      1  0.4733800000000  0.4359780000000  0.5314910000000 1.0
C      1  0.5245960000000  0.4307910000000  0.4596100000000 1.0
C      1  0.4764680000000  0.4324140000000  0.4630590000000 1.0
C      1  0.5249440000000  0.4345610000000  0.5279660000000 1.0
C      1  0.4709730000000  0.4993490000000  0.5679250000000 1.0
C      1  0.5251170000000  0.4983990000000  0.4307310000000 1.0
C      1  0.4722110000000  0.4982600000000  0.4317060000000 1.0
C      1  0.5216280000000  0.4973810000000  0.5743580000000 1.0
C      1  0.5261830000000  0.5053980000000  0.4752690000000 1.0
C      1  0.4669310000000  0.5104750000000  0.5293050000000 1.0
C      1  0.5303920000000  0.5088770000000  0.5234430000000 1.0
C      1  0.4683300000000  0.5068670000000  0.4808560000000 1.0
C      1  0.5002960000000  0.4754700000000  0.4701020000000 1.0
C      1  0.4982800000000  0.4852990000000  0.5230450000000 1.0
C      1  0.5007550000000  0.4517090000000  0.5441610000000 1.0
C      1  0.4997370000000  0.4469220000000  0.4429260000000 1.0
C      1  0.4991910000000  0.5537130000000  0.4468060000000 1.0
C      1  0.5002900000000  0.5528130000000  0.5514470000000 1.0
C      1  0.4619130000000  0.4922660000000  0.5081080000000 1.0
C      1  0.5349590000000  0.4913190000000  0.5016270000000 1.0
C      1  0.4257290000000  0.4777340000000  0.5079190000000 1.0
C      1  0.5713120000000  0.4764990000000  0.5060270000000 1.0
C      1  0.4707240000000  0.4617220000000  0.5013710000000 1.0
C      1  0.5344100000000  0.4591850000000  0.4980970000000 1.0
C      1  0.4988120000000  0.5816580000000  0.4747210000000 1.0
C      1  0.4989980000000  0.5801560000000  0.5225120000000 1.0
C      1  0.4951300000000  0.5116650000000  0.5863460000000 1.0
C      1  0.4983050000000  0.5099750000000  0.4156740000000 1.0
C      1  0.5029580000000  0.4613160000000  0.5005770000000 1.0
C      1  0.4984770000000  0.5938130000000  0.4990480000000 1.0
C      1  0.4974610000000  0.4997730000000  0.4922520000000 1.0
END
