TITL C-2782240-8521-335 2.53350102827971e-06 125000 -184.278650555453 0 0 32 (C1) n - 1
REM
REM in /home/nfs/bkarasulu/CARBON/AIRSS/Generating-Clusters/REBO/Higher-Symm/SD-CG/HFTN-CG
REM
REM
REM
REM
REM
REM ./C.cell (12c818d87b63d06a65506943cc24bca4)
REM
REM compiler GCC version 9.2.1 20190827 (Red Hat 9.2.1-1)
REM options -cpp -mtune=generic -march=x86-64 -g -O0 -fpre-include=/usr/include/finclude/math-vector-fortran.h
REM seed -1100404644 1025239639 -869265004 -913604468 -1430536766 -1945773022 -613581045 -1840227944 -1074947893 -1288579908 23633277 -937683667 490594415 376116707 -1930537998 1963321581 445829569 -1271044725 -1701234819 1826085929 -797482681 -902495763 1938137966 1695499542 -762162997 325068567 -1931585566 647767900 -1086239167 1168853562 -402236847 1777825539 -1358790830
REM
CELL 1.54180   50.00000   50.00000   50.00000   90.00000   90.00000   90.00000
LATT -1
SFAC C  
C      1  0.4343700000000  0.4906250000000  0.5396820000000 1.0
C      1  0.4372800000000  0.4365830000000  0.4736420000000 1.0
C      1  0.4873810000000  0.4052500000000  0.4988460000000 1.0
C      1  0.5995560000000  0.6378410000000  0.5541240000000 1.0
C      1  0.5723060000000  0.5541160000000  0.4755230000000 1.0
C      1  0.5724340000000  0.5285500000000  0.4641610000000 1.0
C      1  0.3981900000000  0.4399660000000  0.5210670000000 1.0
C      1  0.5011780000000  0.5000450000000  0.4992630000000 1.0
C      1  0.5926560000000  0.5212430000000  0.4473860000000 1.0
C      1  0.4758730000000  0.3948740000000  0.5210960000000 1.0
C      1  0.5381020000000  0.4821950000000  0.4667200000000 1.0
C      1  0.4372090000000  0.4201930000000  0.5427530000000 1.0
C      1  0.5245570000000  0.5043740000000  0.4855790000000 1.0
C      1  0.4797480000000  0.4853050000000  0.5057050000000 1.0
C      1  0.5721850000000  0.5784520000000  0.4863380000000 1.0
C      1  0.5269300000000  0.4573190000000  0.4633800000000 1.0
C      1  0.4236530000000  0.4429730000000  0.5332400000000 1.0
C      1  0.5077460000000  0.4397330000000  0.4699500000000 1.0
C      1  0.4611570000000  0.4442370000000  0.4864300000000 1.0
C      1  0.4857370000000  0.4287440000000  0.4832760000000 1.0
C      1  0.5861930000000  0.6332430000000  0.5320530000000 1.0
C      1  0.4394010000000  0.4665310000000  0.5263680000000 1.0
C      1  0.4562050000000  0.4015110000000  0.5384710000000 1.0
C      1  0.4104150000000  0.4331740000000  0.4745290000000 1.0
C      1  0.5440690000000  0.6683330000000  0.4848870000000 1.0
C      1  0.5575520000000  0.6489820000000  0.4963150000000 1.0
C      1  0.5520170000000  0.5110280000000  0.4701160000000 1.0
C      1  0.5719360000000  0.6283370000000  0.5085070000000 1.0
C      1  0.4296590000000  0.5131900000000  0.5521510000000 1.0
C      1  0.4600680000000  0.4652830000000  0.5064840000000 1.0
C      1  0.3921740000000  0.4349830000000  0.4948060000000 1.0
C      1  0.5720630000000  0.6027870000000  0.4971520000000 1.0
END
