TITL C-2782238-9940-106 -0.00680712057123131 125000 -319.958874543812 0 0 54 (C1) n - 1
REM
REM in /home/nfs/bkarasulu/CARBON/AIRSS/Generating-Clusters/REBO/Higher-Symm/SD-CG/HFTN-CG
REM
REM
REM
REM
REM
REM ./C.cell (12c818d87b63d06a65506943cc24bca4)
REM
REM compiler GCC version 9.2.1 20190827 (Red Hat 9.2.1-1)
REM options -cpp -mtune=generic -march=x86-64 -g -O0 -fpre-include=/usr/include/finclude/math-vector-fortran.h
REM seed 1485633206 619636560 -157664022 1147377703 -1130069541 -804737463 78718232 731451566 156743720 -1492862405 -1387832669 1493824533 1388142531 579241806 1309173644 1980146246 2032385464 -116113386 126756897 1280303355 416823489 316714159 -1184186432 1988521669 1766199988 726420405 152942050 352711338 1739324363 -1325165390 1546257387 798326873 -1857152644
REM
CELL 1.54180   50.00000   50.00000   50.00000   90.00000   90.00000   90.00000
LATT -1
SFAC C  
C      1  0.4775220000000  0.5263920000000  0.5603550000000 1.0
C      1  0.4358570000000  0.4632040000000  0.5217570000000 1.0
C      1  0.4317210000000  0.5290720000000  0.5001100000000 1.0
C      1  0.4565990000000  0.4657980000000  0.4476970000000 1.0
C      1  0.4966250000000  0.5300060000000  0.4460570000000 1.0
C      1  0.5363150000000  0.4752980000000  0.4475110000000 1.0
C      1  0.5328130000000  0.5209530000000  0.4726330000000 1.0
C      1  0.5622670000000  0.4628370000000  0.5155640000000 1.0
C      1  0.5585360000000  0.5329530000000  0.5431880000000 1.0
C      1  0.5000290000000  0.4726820000000  0.5350240000000 1.0
C      1  0.5080230000000  0.4362580000000  0.5206060000000 1.0
C      1  0.5092510000000  0.5617060000000  0.5217440000000 1.0
C      1  0.4791900000000  0.4421000000000  0.5163300000000 1.0
C      1  0.4750490000000  0.5636190000000  0.5152310000000 1.0
C      1  0.4750410000000  0.4452970000000  0.4874240000000 1.0
C      1  0.4840190000000  0.5623910000000  0.4822300000000 1.0
C      1  0.5014910000000  0.4454940000000  0.4751270000000 1.0
C      1  0.5177850000000  0.5686360000000  0.4835170000000 1.0
C      1  0.5224660000000  0.4413620000000  0.4950960000000 1.0
C      1  0.5393220000000  0.5561840000000  0.5068050000000 1.0
C      1  0.5003780000000  0.4918130000000  0.5597920000000 1.0
C      1  0.4603860000000  0.5054160000000  0.5554550000000 1.0
C      1  0.4299450000000  0.4939730000000  0.5197360000000 1.0
C      1  0.4355320000000  0.5084300000000  0.4826550000000 1.0
C      1  0.4567640000000  0.4966600000000  0.4419080000000 1.0
C      1  0.4909960000000  0.5063890000000  0.4252560000000 1.0
C      1  0.5398240000000  0.4964600000000  0.4287860000000 1.0
C      1  0.5554570000000  0.5051630000000  0.4781870000000 1.0
C      1  0.5758570000000  0.4918960000000  0.5181010000000 1.0
C      1  0.5420690000000  0.5110780000000  0.5502590000000 1.0
C      1  0.4441470000000  0.5126200000000  0.5341310000000 1.0
C      1  0.4353380000000  0.4764070000000  0.4909500000000 1.0
C      1  0.4531980000000  0.5153380000000  0.4621220000000 1.0
C      1  0.4859230000000  0.4784810000000  0.4388200000000 1.0
C      1  0.5206810000000  0.5171820000000  0.4272900000000 1.0
C      1  0.5523070000000  0.4768250000000  0.4709670000000 1.0
C      1  0.5704150000000  0.5144450000000  0.5007700000000 1.0
C      1  0.5475310000000  0.4862800000000  0.5341980000000 1.0
C      1  0.5149200000000  0.5149890000000  0.5541760000000 1.0
C      1  0.4716310000000  0.4753950000000  0.5537880000000 1.0
C      1  0.4973390000000  0.5346530000000  0.5345260000000 1.0
C      1  0.4600750000000  0.4548020000000  0.5333850000000 1.0
C      1  0.4579960000000  0.5368740000000  0.5176780000000 1.0
C      1  0.4530830000000  0.4581500000000  0.4743830000000 1.0
C      1  0.4770680000000  0.5336300000000  0.4694980000000 1.0
C      1  0.5075450000000  0.4702260000000  0.4571310000000 1.0
C      1  0.5138600000000  0.5359210000000  0.4839930000000 1.0
C      1  0.5478560000000  0.4563480000000  0.4918720000000 1.0
C      1  0.5596140000000  0.5384500000000  0.5149690000000 1.0
C      1  0.5205310000000  0.4774120000000  0.5161460000000 1.0
C      1  0.4964080000000  0.5871180000000  0.5026630000000 1.0
C      1  0.5195980000000  0.4305300000000  0.5443880000000 1.0
C      1  0.4874850000000  0.5282120000000  0.5023100000000 1.0
C      1  0.5151690000000  0.4801930000000  0.4891180000000 1.0
END
