TITL C-2782228-2999-1175 -0.0017553107861992 125000 -762.400661515746 0 0 133 (C1) n - 1
REM
REM in /home/nfs/bkarasulu/CARBON/AIRSS/Generating-Clusters/REBO/Higher-Symm/SD-CG/HFTN-CG
REM
REM
REM
REM
REM
REM ./C.cell (12c818d87b63d06a65506943cc24bca4)
REM
REM compiler GCC version 9.2.1 20190827 (Red Hat 9.2.1-1)
REM options -cpp -mtune=generic -march=x86-64 -g -O0 -fpre-include=/usr/include/finclude/math-vector-fortran.h
REM seed 1381153516 -917416731 -629480118 2128877730 1115389571 -757456175 2101546634 -2100884546 1379804362 -476216374 302749989 1216851793 1104970097 -946665626 -959279514 1962786795 1764980687 -741353779 1779836228 -1317701636 -1815286243 1238576748 -1197315870 745577777 -493692797 1730185431 760226464 -219594891 1529431181 -1161722374 -1134829661 1666189237 1569843339
REM
CELL 1.54180   50.00000   50.00000   50.00000   90.00000   90.00000   90.00000
LATT -1
SFAC C  
C      1  0.5278580000000  0.4233630000000  0.4360440000000 1.0
C      1  0.4719600000000  0.4236320000000  0.4362060000000 1.0
C      1  0.4456730000000  0.4992050000000  0.5715360000000 1.0
C      1  0.5554620000000  0.4998290000000  0.5712100000000 1.0
C      1  0.5784030000000  0.4462870000000  0.5172270000000 1.0
C      1  0.4242390000000  0.4482990000000  0.5160630000000 1.0
C      1  0.4284880000000  0.4218780000000  0.4976320000000 1.0
C      1  0.5704990000000  0.4219540000000  0.4966350000000 1.0
C      1  0.4140580000000  0.5244110000000  0.4710340000000 1.0
C      1  0.5907460000000  0.5276280000000  0.4712350000000 1.0
C      1  0.5686550000000  0.4475160000000  0.4554310000000 1.0
C      1  0.4292740000000  0.4456610000000  0.4547800000000 1.0
C      1  0.5146880000000  0.4756040000000  0.4415970000000 1.0
C      1  0.4861860000000  0.4763630000000  0.4411820000000 1.0
C      1  0.4715060000000  0.4666260000000  0.5172240000000 1.0
C      1  0.5394140000000  0.4707570000000  0.5198560000000 1.0
C      1  0.4249480000000  0.5437900000000  0.5273990000000 1.0
C      1  0.5743650000000  0.5440370000000  0.5266670000000 1.0
C      1  0.5156990000000  0.6141870000000  0.5324120000000 1.0
C      1  0.4770310000000  0.6044390000000  0.5338570000000 1.0
C      1  0.5571010000000  0.5668020000000  0.5218460000000 1.0
C      1  0.4494280000000  0.5567410000000  0.5199900000000 1.0
C      1  0.5860620000000  0.4919140000000  0.5468940000000 1.0
C      1  0.4186760000000  0.4856990000000  0.5465530000000 1.0
C      1  0.5728440000000  0.5260810000000  0.4425050000000 1.0
C      1  0.4309250000000  0.5205350000000  0.4416320000000 1.0
C      1  0.5869950000000  0.4478860000000  0.4842170000000 1.0
C      1  0.4121110000000  0.4475550000000  0.4842070000000 1.0
C      1  0.4270420000000  0.5185170000000  0.5502340000000 1.0
C      1  0.5712970000000  0.5213210000000  0.5500120000000 1.0
C      1  0.5584990000000  0.4681670000000  0.5660800000000 1.0
C      1  0.4415130000000  0.4665860000000  0.5622960000000 1.0
C      1  0.5303430000000  0.5597240000000  0.5078220000000 1.0
C      1  0.4806660000000  0.5539230000000  0.5066090000000 1.0
C      1  0.4723320000000  0.5097200000000  0.5901660000000 1.0
C      1  0.5323790000000  0.5128350000000  0.5927390000000 1.0
C      1  0.4656810000000  0.4411040000000  0.4143350000000 1.0
C      1  0.5345270000000  0.4404570000000  0.4140780000000 1.0
C      1  0.4398640000000  0.5827230000000  0.4689920000000 1.0
C      1  0.5614870000000  0.5847170000000  0.4742450000000 1.0
C      1  0.5279200000000  0.4572120000000  0.5558320000000 1.0
C      1  0.4734460000000  0.4565960000000  0.5556990000000 1.0
C      1  0.5608900000000  0.5053840000000  0.5192970000000 1.0
C      1  0.4405890000000  0.5076090000000  0.5221870000000 1.0
C      1  0.4346120000000  0.5201640000000  0.4966460000000 1.0
C      1  0.5625030000000  0.5121300000000  0.4889310000000 1.0
C      1  0.5543550000000  0.4746340000000  0.4465690000000 1.0
C      1  0.4432290000000  0.4723430000000  0.4452820000000 1.0
C      1  0.5337860000000  0.5480260000000  0.4825010000000 1.0
C      1  0.4586230000000  0.5499550000000  0.4818030000000 1.0
C      1  0.4734340000000  0.4894810000000  0.5557550000000 1.0
C      1  0.5263890000000  0.4896260000000  0.5568540000000 1.0
C      1  0.5564810000000  0.4431560000000  0.5431100000000 1.0
C      1  0.4471470000000  0.4413010000000  0.5402430000000 1.0
C      1  0.4663760000000  0.4919640000000  0.4964990000000 1.0
C      1  0.5283560000000  0.4943800000000  0.4993870000000 1.0
C      1  0.5316730000000  0.4380080000000  0.5212230000000 1.0
C      1  0.4733720000000  0.4328750000000  0.5210950000000 1.0
C      1  0.4774770000000  0.4669590000000  0.4143490000000 1.0
C      1  0.5234840000000  0.4666320000000  0.4146070000000 1.0
C      1  0.5413160000000  0.4198440000000  0.4872250000000 1.0
C      1  0.4568080000000  0.4196280000000  0.4873300000000 1.0
C      1  0.5307610000000  0.5081320000000  0.5307350000000 1.0
C      1  0.4723520000000  0.5051980000000  0.5276710000000 1.0
C      1  0.4734220000000  0.5422190000000  0.4151550000000 1.0
C      1  0.5284610000000  0.5454910000000  0.4201710000000 1.0
C      1  0.4602090000000  0.5179600000000  0.4759650000000 1.0
C      1  0.5339150000000  0.5183760000000  0.4769570000000 1.0
C      1  0.4495460000000  0.5614710000000  0.4519570000000 1.0
C      1  0.5483170000000  0.5622150000000  0.4625090000000 1.0
C      1  0.4492320000000  0.5404540000000  0.4326090000000 1.0
C      1  0.5518310000000  0.5455040000000  0.4382130000000 1.0
C      1  0.4739880000000  0.5998830000000  0.5040170000000 1.0
C      1  0.5282010000000  0.6041790000000  0.5042250000000 1.0
C      1  0.4104440000000  0.4971300000000  0.4526980000000 1.0
C      1  0.5887760000000  0.4988390000000  0.4548700000000 1.0
C      1  0.4720690000000  0.4495160000000  0.4812060000000 1.0
C      1  0.5256310000000  0.4495300000000  0.4808530000000 1.0
C      1  0.5907670000000  0.4728280000000  0.4621860000000 1.0
C      1  0.4067400000000  0.4708330000000  0.4607160000000 1.0
C      1  0.4525220000000  0.4249040000000  0.4565480000000 1.0
C      1  0.5467140000000  0.4256910000000  0.4567470000000 1.0
C      1  0.5248750000000  0.4058500000000  0.5121090000000 1.0
C      1  0.4753480000000  0.4013050000000  0.5076470000000 1.0
C      1  0.4682680000000  0.5319270000000  0.5720020000000 1.0
C      1  0.5377710000000  0.5352830000000  0.5751210000000 1.0
C      1  0.4778750000000  0.5141910000000  0.4506160000000 1.0
C      1  0.5176830000000  0.5141910000000  0.4510470000000 1.0
C      1  0.5314210000000  0.5062590000000  0.4222090000000 1.0
C      1  0.4655480000000  0.5044200000000  0.4215150000000 1.0
C      1  0.4797590000000  0.5307810000000  0.5472750000000 1.0
C      1  0.5280620000000  0.5333730000000  0.5497230000000 1.0
C      1  0.4400070000000  0.4756650000000  0.5217420000000 1.0
C      1  0.5714670000000  0.4756570000000  0.5259450000000 1.0
C      1  0.4072500000000  0.5390120000000  0.5010540000000 1.0
C      1  0.5838130000000  0.5333400000000  0.5023660000000 1.0
C      1  0.5533970000000  0.4909830000000  0.4250150000000 1.0
C      1  0.4445260000000  0.4877880000000  0.4231630000000 1.0
C      1  0.4525770000000  0.5809010000000  0.4978760000000 1.0
C      1  0.5542880000000  0.5909140000000  0.5014530000000 1.0
C      1  0.5322240000000  0.4791980000000  0.4690830000000 1.0
C      1  0.4663000000000  0.4771600000000  0.4658260000000 1.0
C      1  0.4978870000000  0.6245400000000  0.5064540000000 1.0
C      1  0.5023700000000  0.5885070000000  0.5454080000000 1.0
C      1  0.4986750000000  0.4323220000000  0.4745500000000 1.0
C      1  0.5019470000000  0.5899320000000  0.4879370000000 1.0
C      1  0.5005880000000  0.4706430000000  0.3968720000000 1.0
C      1  0.4921700000000  0.4030730000000  0.4792310000000 1.0
C      1  0.5054910000000  0.4680100000000  0.5206790000000 1.0
C      1  0.5144250000000  0.6336110000000  0.4534790000000 1.0
C      1  0.4982310000000  0.5120430000000  0.4232410000000 1.0
C      1  0.5007510000000  0.4468870000000  0.5464010000000 1.0
C      1  0.4935750000000  0.4265590000000  0.5799420000000 1.0
C      1  0.5000620000000  0.5519740000000  0.4227370000000 1.0
C      1  0.4970930000000  0.5685830000000  0.4453430000000 1.0
C      1  0.5014360000000  0.5708130000000  0.5715110000000 1.0
C      1  0.5074400000000  0.6209850000000  0.4748100000000 1.0
C      1  0.5042060000000  0.5649240000000  0.5213680000000 1.0
C      1  0.5032570000000  0.5487390000000  0.5470760000000 1.0
C      1  0.4989710000000  0.4819570000000  0.5731580000000 1.0
C      1  0.4973870000000  0.4151710000000  0.5523990000000 1.0
C      1  0.4955570000000  0.5346630000000  0.4828110000000 1.0
C      1  0.4986000000000  0.4699460000000  0.4880740000000 1.0
C      1  0.5029960000000  0.4841900000000  0.6243430000000 1.0
C      1  0.4988230000000  0.5646060000000  0.4727560000000 1.0
C      1  0.4998860000000  0.4161310000000  0.4380780000000 1.0
C      1  0.4968500000000  0.4531640000000  0.5890950000000 1.0
C      1  0.4978680000000  0.5014450000000  0.4751210000000 1.0
C      1  0.4993140000000  0.4577140000000  0.6173810000000 1.0
C      1  0.5022290000000  0.4307060000000  0.5070740000000 1.0
C      1  0.5000540000000  0.5723110000000  0.5971990000000 1.0
C      1  0.4987790000000  0.3981010000000  0.5297170000000 1.0
C      1  0.5033710000000  0.5023810000000  0.5989250000000 1.0
END
