TITL C-2782226-7400-528 0.00170599253332706 125000 -781.433777123265 0 0 128 (C1) n - 1
REM
REM in /home/nfs/bkarasulu/CARBON/AIRSS/Generating-Clusters/REBO/Higher-Symm/SD-CG/HFTN-CG
REM
REM
REM
REM
REM
REM ./C.cell (12c818d87b63d06a65506943cc24bca4)
REM
REM compiler GCC version 9.2.1 20190827 (Red Hat 9.2.1-1)
REM options -cpp -mtune=generic -march=x86-64 -g -O0 -fpre-include=/usr/include/finclude/math-vector-fortran.h
REM seed -1251849207 1666102075 -170485897 -465968735 -1989301143 1113755131 598505531 550548955 -751745422 -816051797 -690084827 -973943369 1842128410 1207930587 1999016541 -1493397499 106027293 1339880390 1800083720 1467868058 1130116433 980886107 -279296566 2146343474 1164830131 -1471639119 -2058663780 -1899820250 560683413 -479524205 -1156418328 1377011290 -1861558591
REM
CELL 1.54180   50.00000   50.00000   50.00000   90.00000   90.00000   90.00000
LATT -1
SFAC C  
C      1  0.5255700000000  0.5253710000000  0.4548350000000 1.0
C      1  0.4906680000000  0.5146410000000  0.5509120000000 1.0
C      1  0.4624670000000  0.5089070000000  0.4510800000000 1.0
C      1  0.4688640000000  0.4544530000000  0.5326620000000 1.0
C      1  0.5229030000000  0.4547200000000  0.4642060000000 1.0
C      1  0.5411930000000  0.4928810000000  0.5325100000000 1.0
C      1  0.5497910000000  0.5632960000000  0.4410490000000 1.0
C      1  0.4752310000000  0.5733760000000  0.5540350000000 1.0
C      1  0.4292180000000  0.5130720000000  0.4497180000000 1.0
C      1  0.4492970000000  0.4387290000000  0.5527270000000 1.0
C      1  0.5288830000000  0.4310770000000  0.4417860000000 1.0
C      1  0.5726710000000  0.4876770000000  0.5563980000000 1.0
C      1  0.5222640000000  0.5873310000000  0.4734200000000 1.0
C      1  0.4381430000000  0.5654510000000  0.5234100000000 1.0
C      1  0.4105590000000  0.4724860000000  0.4738770000000 1.0
C      1  0.4827670000000  0.4170800000000  0.5332960000000 1.0
C      1  0.5622080000000  0.4446390000000  0.4725810000000 1.0
C      1  0.5740150000000  0.5265580000000  0.5269510000000 1.0
C      1  0.5443430000000  0.5369550000000  0.5024940000000 1.0
C      1  0.4881380000000  0.5637150000000  0.5092960000000 1.0
C      1  0.4436030000000  0.5174690000000  0.5104990000000 1.0
C      1  0.4508510000000  0.4583040000000  0.4856290000000 1.0
C      1  0.5055370000000  0.4307990000000  0.5037110000000 1.0
C      1  0.5546870000000  0.4701870000000  0.5021860000000 1.0
C      1  0.5159650000000  0.5530530000000  0.4928400000000 1.0
C      1  0.4686890000000  0.5413370000000  0.5147060000000 1.0
C      1  0.4424810000000  0.4915870000000  0.4884740000000 1.0
C      1  0.4732630000000  0.4424780000000  0.5028250000000 1.0
C      1  0.5260560000000  0.4525200000000  0.4963510000000 1.0
C      1  0.5526870000000  0.5037240000000  0.5023140000000 1.0
C      1  0.5853890000000  0.4553130000000  0.5230290000000 1.0
C      1  0.5822500000000  0.5505490000000  0.4738730000000 1.0
C      1  0.5023340000000  0.5980780000000  0.5234820000000 1.0
C      1  0.4107930000000  0.5441730000000  0.4852300000000 1.0
C      1  0.4166080000000  0.4351480000000  0.5136440000000 1.0
C      1  0.4994140000000  0.4053860000000  0.4735790000000 1.0
C      1  0.5587700000000  0.4855570000000  0.4351600000000 1.0
C      1  0.5513770000000  0.5498930000000  0.5616250000000 1.0
C      1  0.4848650000000  0.5671860000000  0.4427150000000 1.0
C      1  0.4405140000000  0.5239380000000  0.5609290000000 1.0
C      1  0.4481570000000  0.4518600000000  0.4416330000000 1.0
C      1  0.5148780000000  0.4371240000000  0.5674800000000 1.0
C      1  0.4552770000000  0.5865520000000  0.5124270000000 1.0
C      1  0.4028360000000  0.4965330000000  0.4876770000000 1.0
C      1  0.4571060000000  0.4075730000000  0.5128060000000 1.0
C      1  0.5475730000000  0.4206370000000  0.4861710000000 1.0
C      1  0.5904400000000  0.5020640000000  0.5137900000000 1.0
C      1  0.5485670000000  0.5838790000000  0.4847150000000 1.0
C      1  0.4925770000000  0.5343830000000  0.5855200000000 1.0
C      1  0.4713860000000  0.5079720000000  0.4195700000000 1.0
C      1  0.4781900000000  0.4869430000000  0.5812400000000 1.0
C      1  0.5047740000000  0.4731480000000  0.4187390000000 1.0
C      1  0.5242470000000  0.4979460000000  0.5870300000000 1.0
C      1  0.5188560000000  0.5199710000000  0.4159240000000 1.0
C      1  0.5570970000000  0.5737670000000  0.5113470000000 1.0
C      1  0.4678450000000  0.5882510000000  0.4857030000000 1.0
C      1  0.4049580000000  0.4986450000000  0.5159640000000 1.0
C      1  0.4450470000000  0.4178360000000  0.4839000000000 1.0
C      1  0.5452270000000  0.4223760000000  0.5142900000000 1.0
C      1  0.5865710000000  0.4904120000000  0.4859730000000 1.0
C      1  0.5204610000000  0.5827120000000  0.5394330000000 1.0
C      1  0.4383430000000  0.5644440000000  0.4531290000000 1.0
C      1  0.4122920000000  0.4824180000000  0.5431420000000 1.0
C      1  0.4817690000000  0.4187590000000  0.4558690000000 1.0
C      1  0.5618960000000  0.4415860000000  0.5363900000000 1.0
C      1  0.5777970000000  0.5279890000000  0.4561390000000 1.0
C      1  0.5064020000000  0.5284710000000  0.5114080000000 1.0
C      1  0.4808820000000  0.5175770000000  0.4964460000000 1.0
C      1  0.4717110000000  0.4904500000000  0.5018160000000 1.0
C      1  0.4893020000000  0.4672950000000  0.4914670000000 1.0
C      1  0.5118240000000  0.4781980000000  0.5098780000000 1.0
C      1  0.5206290000000  0.5041560000000  0.5001340000000 1.0
C      1  0.4207240000000  0.4508090000000  0.4905050000000 1.0
C      1  0.4890450000000  0.4017530000000  0.5034650000000 1.0
C      1  0.5842350000000  0.4582020000000  0.4913020000000 1.0
C      1  0.5755640000000  0.5490720000000  0.5038480000000 1.0
C      1  0.4996270000000  0.5910690000000  0.4921330000000 1.0
C      1  0.4283310000000  0.5449900000000  0.5071300000000 1.0
C      1  0.5463820000000  0.5719690000000  0.5372140000000 1.0
C      1  0.4624630000000  0.5778270000000  0.4606000000000 1.0
C      1  0.4160130000000  0.5142150000000  0.5437750000000 1.0
C      1  0.4552670000000  0.4275110000000  0.4604950000000 1.0
C      1  0.5326150000000  0.4267250000000  0.5453860000000 1.0
C      1  0.5770630000000  0.4996020000000  0.4603140000000 1.0
C      1  0.5226090000000  0.4672230000000  0.5392490000000 1.0
C      1  0.5318180000000  0.5034890000000  0.4688670000000 1.0
C      1  0.5106750000000  0.5341520000000  0.5430970000000 1.0
C      1  0.4801900000000  0.5269520000000  0.4678040000000 1.0
C      1  0.4602370000000  0.4837150000000  0.5307970000000 1.0
C      1  0.4925940000000  0.4656020000000  0.4590700000000 1.0
C      1  0.4087880000000  0.5194980000000  0.4717810000000 1.0
C      1  0.4352340000000  0.4225490000000  0.5296980000000 1.0
C      1  0.5266440000000  0.4124080000000  0.4685840000000 1.0
C      1  0.5900040000000  0.4813200000000  0.5341470000000 1.0
C      1  0.5655410000000  0.5726020000000  0.4638140000000 1.0
C      1  0.4749350000000  0.5938130000000  0.5333090000000 1.0
C      1  0.5449660000000  0.4765080000000  0.4710690000000 1.0
C      1  0.5396240000000  0.5251240000000  0.5329950000000 1.0
C      1  0.5052000000000  0.5413490000000  0.4654580000000 1.0
C      1  0.4681020000000  0.5136420000000  0.5341370000000 1.0
C      1  0.4642010000000  0.4807210000000  0.4638130000000 1.0
C      1  0.5003440000000  0.4467650000000  0.5317620000000 1.0
C      1  0.4764520000000  0.4578980000000  0.4233570000000 1.0
C      1  0.5257190000000  0.4675700000000  0.5789980000000 1.0
C      1  0.5460520000000  0.5144450000000  0.4224520000000 1.0
C      1  0.5217090000000  0.5483590000000  0.5787470000000 1.0
C      1  0.4717370000000  0.5396420000000  0.4273130000000 1.0
C      1  0.4539280000000  0.4940940000000  0.5688710000000 1.0
C      1  0.5053290000000  0.5458520000000  0.4257130000000 1.0
C      1  0.4677620000000  0.5399030000000  0.5741510000000 1.0
C      1  0.4527530000000  0.4812090000000  0.4241050000000 1.0
C      1  0.4923720000000  0.4607180000000  0.5776610000000 1.0
C      1  0.5303990000000  0.4681720000000  0.4270180000000 1.0
C      1  0.5415940000000  0.5216600000000  0.5796450000000 1.0
C      1  0.5038160000000  0.5629700000000  0.5559310000000 1.0
C      1  0.4421210000000  0.5409720000000  0.4389500000000 1.0
C      1  0.4385820000000  0.4705820000000  0.5528900000000 1.0
C      1  0.4973190000000  0.4387220000000  0.4383500000000 1.0
C      1  0.5507640000000  0.4642840000000  0.5583280000000 1.0
C      1  0.5592250000000  0.5365110000000  0.4349050000000 1.0
C      1  0.5186390000000  0.5717520000000  0.4437440000000 1.0
C      1  0.4488070000000  0.5555290000000  0.5511300000000 1.0
C      1  0.4279590000000  0.4789400000000  0.4474680000000 1.0
C      1  0.4810810000000  0.4324370000000  0.5635350000000 1.0
C      1  0.5557270000000  0.4520650000000  0.4415850000000 1.0
C      1  0.5680440000000  0.5197150000000  0.5598630000000 1.0
C      1  0.4969780000000  0.5064850000000  0.5895590000000 1.0
C      1  0.4996740000000  0.4998710000000  0.4129190000000 1.0
END
