TITL C-2782232-2968-316 -0.00950578072403029 125000 -966.214644987842 0 0 167 (C1) n - 1
REM
REM in /home/nfs/bkarasulu/CARBON/AIRSS/Generating-Clusters/REBO/Higher-Symm/SD-CG/HFTN-CG
REM
REM
REM
REM
REM
REM ./C.cell (12c818d87b63d06a65506943cc24bca4)
REM
REM compiler GCC version 9.2.1 20190827 (Red Hat 9.2.1-1)
REM options -cpp -mtune=generic -march=x86-64 -g -O0 -fpre-include=/usr/include/finclude/math-vector-fortran.h
REM seed 1668471299 -364674539 1599231959 872364698 301041028 -880269280 1612475303 263951082 525117183 -2075981926 -536001260 -574704234 2016666059 -659510598 1775666466 -1418624915 887799439 -1726037240 -1921182007 -747696558 -2121108539 -131823113 -2346870 -1280004287 -502221436 761641966 1802414194 -330016671 1388307039 756761406 1962487232 1557351419 2001273526
REM
CELL 1.54180   50.00000   50.00000   50.00000   90.00000   90.00000   90.00000
LATT -1
SFAC C  
C      1  0.5107180000000  0.4442670000000  0.5849810000000 1.0
C      1  0.5157430000000  0.5575810000000  0.4181800000000 1.0
C      1  0.5104440000000  0.5568220000000  0.5869550000000 1.0
C      1  0.5128540000000  0.4423820000000  0.4150900000000 1.0
C      1  0.4480380000000  0.5205210000000  0.5800560000000 1.0
C      1  0.4503340000000  0.4806030000000  0.4146020000000 1.0
C      1  0.4475900000000  0.4816390000000  0.5819390000000 1.0
C      1  0.4514990000000  0.5197840000000  0.4161140000000 1.0
C      1  0.5713730000000  0.5502510000000  0.5575420000000 1.0
C      1  0.5754190000000  0.4484110000000  0.4411860000000 1.0
C      1  0.5714760000000  0.4512430000000  0.5570800000000 1.0
C      1  0.5738530000000  0.5497060000000  0.4401250000000 1.0
C      1  0.4591490000000  0.4478360000000  0.4121050000000 1.0
C      1  0.4564850000000  0.5527110000000  0.5847290000000 1.0
C      1  0.4617060000000  0.5522650000000  0.4151150000000 1.0
C      1  0.4576340000000  0.4497250000000  0.5858980000000 1.0
C      1  0.5071320000000  0.5947650000000  0.5486710000000 1.0
C      1  0.5074680000000  0.4108470000000  0.4566750000000 1.0
C      1  0.5044270000000  0.4089630000000  0.5438830000000 1.0
C      1  0.5069790000000  0.5908770000000  0.4613620000000 1.0
C      1  0.5716510000000  0.4251960000000  0.5268000000000 1.0
C      1  0.5707250000000  0.5649800000000  0.4674890000000 1.0
C      1  0.5748800000000  0.5806700000000  0.5318690000000 1.0
C      1  0.5718480000000  0.4295300000000  0.4671420000000 1.0
C      1  0.4515860000000  0.4078050000000  0.4833690000000 1.0
C      1  0.4492870000000  0.5958070000000  0.5176490000000 1.0
C      1  0.4485080000000  0.5940850000000  0.4834880000000 1.0
C      1  0.4512560000000  0.4083210000000  0.5167370000000 1.0
C      1  0.4838410000000  0.4349340000000  0.4186370000000 1.0
C      1  0.4816910000000  0.5659680000000  0.5819580000000 1.0
C      1  0.4850010000000  0.5661730000000  0.4219430000000 1.0
C      1  0.4819110000000  0.4357250000000  0.5813620000000 1.0
C      1  0.4363580000000  0.5426100000000  0.4347930000000 1.0
C      1  0.4358520000000  0.4576730000000  0.5618540000000 1.0
C      1  0.4351660000000  0.4578390000000  0.4340380000000 1.0
C      1  0.4358100000000  0.5432890000000  0.5594150000000 1.0
C      1  0.5240660000000  0.5277840000000  0.5553420000000 1.0
C      1  0.5275110000000  0.4714090000000  0.4461570000000 1.0
C      1  0.5232270000000  0.4746720000000  0.5553360000000 1.0
C      1  0.5258430000000  0.5251040000000  0.4471630000000 1.0
C      1  0.4872810000000  0.5166460000000  0.5856710000000 1.0
C      1  0.4896470000000  0.4871450000000  0.4173040000000 1.0
C      1  0.4857590000000  0.4912680000000  0.5877610000000 1.0
C      1  0.4905050000000  0.5124360000000  0.4183890000000 1.0
C      1  0.4242360000000  0.4689400000000  0.5390820000000 1.0
C      1  0.4260490000000  0.5311440000000  0.4576830000000 1.0
C      1  0.4239550000000  0.5309060000000  0.5378400000000 1.0
C      1  0.4266260000000  0.4698050000000  0.4580290000000 1.0
C      1  0.4781960000000  0.4153340000000  0.5608820000000 1.0
C      1  0.4811310000000  0.5849070000000  0.4431450000000 1.0
C      1  0.4797270000000  0.5875960000000  0.5624150000000 1.0
C      1  0.4803540000000  0.4157460000000  0.4402770000000 1.0
C      1  0.5266290000000  0.4584650000000  0.4844190000000 1.0
C      1  0.5288730000000  0.5403930000000  0.5176870000000 1.0
C      1  0.5255470000000  0.5380310000000  0.4850020000000 1.0
C      1  0.5287210000000  0.4648640000000  0.5170820000000 1.0
C      1  0.5467530000000  0.4072760000000  0.4607500000000 1.0
C      1  0.5464040000000  0.5917780000000  0.5442180000000 1.0
C      1  0.5462420000000  0.5879200000000  0.4662320000000 1.0
C      1  0.5431270000000  0.4123810000000  0.5368930000000 1.0
C      1  0.4107550000000  0.5432960000000  0.4775690000000 1.0
C      1  0.4105870000000  0.4529590000000  0.5161350000000 1.0
C      1  0.4172960000000  0.4566140000000  0.4826310000000 1.0
C      1  0.4095380000000  0.5431160000000  0.5173540000000 1.0
C      1  0.5599090000000  0.5344390000000  0.5293280000000 1.0
C      1  0.5517840000000  0.4755590000000  0.4787920000000 1.0
C      1  0.5606970000000  0.4671540000000  0.5286840000000 1.0
C      1  0.5551570000000  0.5272500000000  0.4768940000000 1.0
C      1  0.5449050000000  0.4455680000000  0.4424730000000 1.0
C      1  0.5390930000000  0.5546740000000  0.5564360000000 1.0
C      1  0.5407920000000  0.5526470000000  0.4416830000000 1.0
C      1  0.5388690000000  0.4476900000000  0.5551110000000 1.0
C      1  0.5252160000000  0.6050070000000  0.5215900000000 1.0
C      1  0.5227700000000  0.3956390000000  0.4821780000000 1.0
C      1  0.5208490000000  0.3971790000000  0.5164180000000 1.0
C      1  0.5245470000000  0.6009030000000  0.4890490000000 1.0
C      1  0.4710200000000  0.4508100000000  0.5440880000000 1.0
C      1  0.4687460000000  0.5496360000000  0.4570500000000 1.0
C      1  0.4711210000000  0.5534520000000  0.5437580000000 1.0
C      1  0.4680720000000  0.4506290000000  0.4581800000000 1.0
C      1  0.4904870000000  0.4323340000000  0.5269210000000 1.0
C      1  0.4910990000000  0.5646100000000  0.4760350000000 1.0
C      1  0.4949450000000  0.5727050000000  0.5286010000000 1.0
C      1  0.4964520000000  0.4366590000000  0.4701550000000 1.0
C      1  0.5868140000000  0.4755700000000  0.5750440000000 1.0
C      1  0.5912710000000  0.5226600000000  0.4285430000000 1.0
C      1  0.5870500000000  0.5260980000000  0.5754670000000 1.0
C      1  0.5872400000000  0.4715210000000  0.4253870000000 1.0
C      1  0.5292730000000  0.4194610000000  0.4341500000000 1.0
C      1  0.5273410000000  0.5806920000000  0.5696110000000 1.0
C      1  0.5281490000000  0.5822730000000  0.4386200000000 1.0
C      1  0.5258810000000  0.4212660000000  0.5648690000000 1.0
C      1  0.5440300000000  0.5637090000000  0.4888980000000 1.0
C      1  0.5427590000000  0.4353530000000  0.5127360000000 1.0
C      1  0.5419500000000  0.4306270000000  0.4827290000000 1.0
C      1  0.5456730000000  0.5701140000000  0.5188730000000 1.0
C      1  0.4558250000000  0.5815270000000  0.4593320000000 1.0
C      1  0.4552520000000  0.4206160000000  0.5415600000000 1.0
C      1  0.4569840000000  0.4196180000000  0.4586600000000 1.0
C      1  0.4571580000000  0.5849990000000  0.5424250000000 1.0
C      1  0.5580270000000  0.4844210000000  0.4491250000000 1.0
C      1  0.5547550000000  0.5145660000000  0.5549740000000 1.0
C      1  0.5578450000000  0.5142360000000  0.4484730000000 1.0
C      1  0.5542920000000  0.4866300000000  0.5545980000000 1.0
C      1  0.5869450000000  0.5533970000000  0.4896010000000 1.0
C      1  0.5971560000000  0.4265700000000  0.5283450000000 1.0
C      1  0.5866170000000  0.4442820000000  0.4917830000000 1.0
C      1  0.6004650000000  0.5802740000000  0.5319670000000 1.0
C      1  0.5082180000000  0.4849490000000  0.5294690000000 1.0
C      1  0.5034350000000  0.5227720000000  0.4683490000000 1.0
C      1  0.5080160000000  0.5190500000000  0.5299140000000 1.0
C      1  0.5029330000000  0.4691730000000  0.4645890000000 1.0
C      1  0.5550110000000  0.4692350000000  0.5838310000000 1.0
C      1  0.5599620000000  0.5279220000000  0.4173320000000 1.0
C      1  0.5551440000000  0.5319860000000  0.5842680000000 1.0
C      1  0.5560480000000  0.4733420000000  0.4166910000000 1.0
C      1  0.4698950000000  0.4591810000000  0.4890020000000 1.0
C      1  0.4504520000000  0.5537210000000  0.5185500000000 1.0
C      1  0.4547260000000  0.5512360000000  0.4853240000000 1.0
C      1  0.4609770000000  0.4737280000000  0.5244010000000 1.0
C      1  0.5316680000000  0.5299760000000  0.4060910000000 1.0
C      1  0.5262160000000  0.4678800000000  0.5946000000000 1.0
C      1  0.5278990000000  0.4664250000000  0.4065550000000 1.0
C      1  0.5263080000000  0.5333490000000  0.5953990000000 1.0
C      1  0.4715500000000  0.4729620000000  0.4403920000000 1.0
C      1  0.4735160000000  0.5283690000000  0.5581740000000 1.0
C      1  0.4731220000000  0.5256280000000  0.4424800000000 1.0
C      1  0.4745850000000  0.4763420000000  0.5615490000000 1.0
C      1  0.4294790000000  0.5003180000000  0.4323440000000 1.0
C      1  0.4267910000000  0.5004470000000  0.5635650000000 1.0
C      1  0.3841430000000  0.4986210000000  0.5263040000000 1.0
C      1  0.3848900000000  0.4977470000000  0.4672790000000 1.0
C      1  0.4259030000000  0.5643460000000  0.4977850000000 1.0
C      1  0.4419330000000  0.4555330000000  0.5043400000000 1.0
C      1  0.4003690000000  0.4988740000000  0.4482910000000 1.0
C      1  0.3978040000000  0.4996270000000  0.5467010000000 1.0
C      1  0.5216490000000  0.5009530000000  0.5726630000000 1.0
C      1  0.5260310000000  0.4985710000000  0.4301220000000 1.0
C      1  0.4727710000000  0.6069260000000  0.4993670000000 1.0
C      1  0.4706870000000  0.3880090000000  0.5001890000000 1.0
C      1  0.4820630000000  0.5518590000000  0.5056460000000 1.0
C      1  0.4909090000000  0.4370050000000  0.5015900000000 1.0
C      1  0.4973660000000  0.3820590000000  0.4989770000000 1.0
C      1  0.4964740000000  0.5883310000000  0.4996690000000 1.0
C      1  0.4339540000000  0.5001100000000  0.5299100000000 1.0
C      1  0.4360910000000  0.5006180000000  0.4659130000000 1.0
C      1  0.5232790000000  0.4994970000000  0.3996180000000 1.0
C      1  0.5213290000000  0.5005490000000  0.6031030000000 1.0
C      1  0.5740440000000  0.4687990000000  0.5015090000000 1.0
C      1  0.5750100000000  0.5301910000000  0.5042480000000 1.0
C      1  0.4810090000000  0.5016580000000  0.5410440000000 1.0
C      1  0.4853890000000  0.4974240000000  0.4571610000000 1.0
C      1  0.3985850000000  0.5234160000000  0.4969660000000 1.0
C      1  0.3919700000000  0.4722850000000  0.4972910000000 1.0
C      1  0.5999700000000  0.4969910000000  0.4277360000000 1.0
C      1  0.5960850000000  0.5007680000000  0.5758480000000 1.0
C      1  0.5080960000000  0.5023290000000  0.4936760000000 1.0
C      1  0.4785450000000  0.4900740000000  0.5001030000000 1.0
C      1  0.6011550000000  0.5007590000000  0.4744450000000 1.0
C      1  0.6451750000000  0.5025580000000  0.4454920000000 1.0
C      1  0.5421590000000  0.5019330000000  0.4936870000000 1.0
C      1  0.4114500000000  0.4981260000000  0.4971050000000 1.0
C      1  0.5787240000000  0.5002260000000  0.4940990000000 1.0
C      1  0.3418190000000  0.5000950000000  0.4961540000000 1.0
C      1  0.6232920000000  0.5016640000000  0.4598850000000 1.0
C      1  0.4455560000000  0.4988150000000  0.4979020000000 1.0
C      1  0.3689940000000  0.4956210000000  0.4965800000000 1.0
END
