TITL C-2782226-7400-46 -0.000195657655722757 125000 -963.699112402744 0 0 167 (C1) n - 1
REM
REM in /home/nfs/bkarasulu/CARBON/AIRSS/Generating-Clusters/REBO/Higher-Symm/SD-CG/HFTN-CG
REM
REM
REM
REM
REM
REM ./C.cell (12c818d87b63d06a65506943cc24bca4)
REM
REM compiler GCC version 9.2.1 20190827 (Red Hat 9.2.1-1)
REM options -cpp -mtune=generic -march=x86-64 -g -O0 -fpre-include=/usr/include/finclude/math-vector-fortran.h
REM seed -1765647139 -1560212317 -918808559 1570691571 -105306237 1647565208 -920053131 -69284714 566204926 1225667688 -1919496335 -1270348944 1825709946 -1467968093 -336676995 -1221138935 391000400 1435026940 -1911563140 1231743278 2068262277 -1479830903 699006682 -1075816697 2070635125 260803277 1034567494 1342573116 -92858811 316817687 2133088679 607208968 -439991092
REM
CELL 1.54180   50.00000   50.00000   50.00000   90.00000   90.00000   90.00000
LATT -1
SFAC C  
C      1  0.5309030000000  0.5098350000000  0.4691270000000 1.0
C      1  0.5220610000000  0.5223000000000  0.5153600000000 1.0
C      1  0.5294650000000  0.4729530000000  0.5049070000000 1.0
C      1  0.4634310000000  0.4876390000000  0.4774330000000 1.0
C      1  0.4780560000000  0.4761130000000  0.5213640000000 1.0
C      1  0.4696580000000  0.5245590000000  0.5048690000000 1.0
C      1  0.5213770000000  0.5989050000000  0.5238930000000 1.0
C      1  0.5194850000000  0.4148860000000  0.5685150000000 1.0
C      1  0.5256290000000  0.4722450000000  0.3964230000000 1.0
C      1  0.4701040000000  0.4020200000000  0.5444220000000 1.0
C      1  0.4710270000000  0.5869390000000  0.5658150000000 1.0
C      1  0.4685870000000  0.5171480000000  0.3917900000000 1.0
C      1  0.4631630000000  0.5300000000000  0.5634970000000 1.0
C      1  0.4659360000000  0.4348780000000  0.4944500000000 1.0
C      1  0.4711250000000  0.5335040000000  0.4451430000000 1.0
C      1  0.5276200000000  0.4697750000000  0.5597740000000 1.0
C      1  0.5288950000000  0.5710970000000  0.4961770000000 1.0
C      1  0.5240160000000  0.4578470000000  0.4489350000000 1.0
C      1  0.5446090000000  0.4538030000000  0.4261320000000 1.0
C      1  0.5524960000000  0.5943560000000  0.4865390000000 1.0
C      1  0.5503700000000  0.4601540000000  0.5911060000000 1.0
C      1  0.4530180000000  0.5502820000000  0.4222660000000 1.0
C      1  0.4529480000000  0.4047470000000  0.4948530000000 1.0
C      1  0.4504130000000  0.5459540000000  0.5890070000000 1.0
C      1  0.4941390000000  0.4567530000000  0.4501730000000 1.0
C      1  0.4994910000000  0.5637330000000  0.4864390000000 1.0
C      1  0.4855140000000  0.4854000000000  0.5671800000000 1.0
C      1  0.5145200000000  0.5504870000000  0.4518570000000 1.0
C      1  0.5164490000000  0.4366530000000  0.4946520000000 1.0
C      1  0.5179750000000  0.5188340000000  0.5641370000000 1.0
C      1  0.4878250000000  0.4789600000000  0.4058460000000 1.0
C      1  0.4835690000000  0.5882660000000  0.5186140000000 1.0
C      1  0.4918380000000  0.4422090000000  0.5595960000000 1.0
C      1  0.5080380000000  0.5298300000000  0.3996510000000 1.0
C      1  0.5032210000000  0.4024840000000  0.5220740000000 1.0
C      1  0.5113600000000  0.5642410000000  0.5685360000000 1.0
C      1  0.3922580000000  0.5050920000000  0.5338880000000 1.0
C      1  0.3911690000000  0.4680310000000  0.4887940000000 1.0
C      1  0.3941420000000  0.5278910000000  0.4768490000000 1.0
C      1  0.6031220000000  0.4937570000000  0.5328790000000 1.0
C      1  0.6057290000000  0.5321260000000  0.4869440000000 1.0
C      1  0.6074350000000  0.4724670000000  0.4778070000000 1.0
C      1  0.4280630000000  0.5052360000000  0.4835910000000 1.0
C      1  0.4286980000000  0.5102580000000  0.5173560000000 1.0
C      1  0.4288310000000  0.4783110000000  0.5028800000000 1.0
C      1  0.5684380000000  0.4963620000000  0.4820810000000 1.0
C      1  0.5649260000000  0.4921350000000  0.5157310000000 1.0
C      1  0.5634940000000  0.5234580000000  0.5020540000000 1.0
C      1  0.4401260000000  0.4902630000000  0.5801610000000 1.0
C      1  0.4449690000000  0.4394830000000  0.4521610000000 1.0
C      1  0.4493950000000  0.5637260000000  0.4734860000000 1.0
C      1  0.5598780000000  0.5068980000000  0.5800720000000 1.0
C      1  0.5604850000000  0.5643920000000  0.4513680000000 1.0
C      1  0.5586580000000  0.4328460000000  0.4710250000000 1.0
C      1  0.3946240000000  0.4613330000000  0.5147670000000 1.0
C      1  0.3938590000000  0.5083840000000  0.4575980000000 1.0
C      1  0.3936280000000  0.5315160000000  0.5272880000000 1.0
C      1  0.6031850000000  0.5383760000000  0.5131280000000 1.0
C      1  0.6081310000000  0.4911250000000  0.4578710000000 1.0
C      1  0.6028650000000  0.4667420000000  0.5290120000000 1.0
C      1  0.4720630000000  0.4717190000000  0.5951550000000 1.0
C      1  0.4768890000000  0.4378720000000  0.4283510000000 1.0
C      1  0.4784740000000  0.5898490000000  0.4791900000000 1.0
C      1  0.5289820000000  0.5261640000000  0.5959130000000 1.0
C      1  0.5295220000000  0.5679060000000  0.4264410000000 1.0
C      1  0.5286090000000  0.4079530000000  0.4791550000000 1.0
C      1  0.5510230000000  0.5280250000000  0.5326810000000 1.0
C      1  0.5605150000000  0.4600780000000  0.5102240000000 1.0
C      1  0.5590780000000  0.5127230000000  0.4542000000000 1.0
C      1  0.4451510000000  0.4754310000000  0.5313160000000 1.0
C      1  0.4437070000000  0.5402520000000  0.5097480000000 1.0
C      1  0.4397030000000  0.4868540000000  0.4581230000000 1.0
C      1  0.5151060000000  0.5901110000000  0.5794630000000 1.0
C      1  0.5026780000000  0.3799320000000  0.5374810000000 1.0
C      1  0.5218120000000  0.5321540000000  0.3760140000000 1.0
C      1  0.4903290000000  0.4086960000000  0.5623380000000 1.0
C      1  0.4824810000000  0.6019410000000  0.5485700000000 1.0
C      1  0.4611970000000  0.4756200000000  0.3965770000000 1.0
C      1  0.5626080000000  0.4506090000000  0.5605930000000 1.0
C      1  0.5651790000000  0.4789800000000  0.4274340000000 1.0
C      1  0.5651280000000  0.5757300000000  0.5121770000000 1.0
C      1  0.4294700000000  0.5507720000000  0.5621330000000 1.0
C      1  0.4350110000000  0.5220440000000  0.4289900000000 1.0
C      1  0.4320100000000  0.4248170000000  0.5126780000000 1.0
C      1  0.5841410000000  0.4426520000000  0.5373060000000 1.0
C      1  0.5917570000000  0.4959220000000  0.4305260000000 1.0
C      1  0.5871680000000  0.5597350000000  0.5288410000000 1.0
C      1  0.4096850000000  0.5564390000000  0.5375190000000 1.0
C      1  0.4114470000000  0.5012220000000  0.4319410000000 1.0
C      1  0.4112400000000  0.4404030000000  0.5299410000000 1.0
C      1  0.5811480000000  0.5583230000000  0.4688540000000 1.0
C      1  0.5800070000000  0.4946680000000  0.5653790000000 1.0
C      1  0.5791280000000  0.4490410000000  0.4625670000000 1.0
C      1  0.4219980000000  0.4412410000000  0.4675730000000 1.0
C      1  0.4182150000000  0.5034520000000  0.5691930000000 1.0
C      1  0.4265230000000  0.5514290000000  0.4653680000000 1.0
C      1  0.5585020000000  0.5504570000000  0.4229690000000 1.0
C      1  0.5551240000000  0.5384870000000  0.5776210000000 1.0
C      1  0.5595960000000  0.4130960000000  0.4931710000000 1.0
C      1  0.4466700000000  0.4535910000000  0.4240930000000 1.0
C      1  0.4457970000000  0.4593640000000  0.5772020000000 1.0
C      1  0.4500940000000  0.5838860000000  0.4971850000000 1.0
C      1  0.4258530000000  0.4489470000000  0.4933200000000 1.0
C      1  0.4297690000000  0.5254360000000  0.4591700000000 1.0
C      1  0.4251250000000  0.5214500000000  0.5493250000000 1.0
C      1  0.5712440000000  0.5511760000000  0.4931660000000 1.0
C      1  0.5718100000000  0.4750140000000  0.4580470000000 1.0
C      1  0.5686640000000  0.4783600000000  0.5456750000000 1.0
C      1  0.4942720000000  0.4888210000000  0.5418660000000 1.0
C      1  0.4880930000000  0.4753460000000  0.4738120000000 1.0
C      1  0.4971470000000  0.5331020000000  0.4962740000000 1.0
C      1  0.5078420000000  0.5122210000000  0.5396230000000 1.0
C      1  0.5088750000000  0.5276400000000  0.4663520000000 1.0
C      1  0.4980020000000  0.4634100000000  0.5004790000000 1.0
C      1  0.4585720000000  0.5655750000000  0.5235740000000 1.0
C      1  0.4620000000000  0.4514490000000  0.5483460000000 1.0
C      1  0.4516460000000  0.4857550000000  0.4306760000000 1.0
C      1  0.5334330000000  0.4438870000000  0.5221630000000 1.0
C      1  0.5380560000000  0.5529630000000  0.5518730000000 1.0
C      1  0.5534490000000  0.5167930000000  0.4220700000000 1.0
C      1  0.4582530000000  0.5619720000000  0.5534980000000 1.0
C      1  0.4607850000000  0.4266720000000  0.5272990000000 1.0
C      1  0.4646260000000  0.5124360000000  0.4190660000000 1.0
C      1  0.5320360000000  0.4393000000000  0.5627520000000 1.0
C      1  0.5379150000000  0.5740010000000  0.5286820000000 1.0
C      1  0.5429490000000  0.4907260000000  0.4071790000000 1.0
C      1  0.5170860000000  0.4127050000000  0.4474590000000 1.0
C      1  0.5152840000000  0.5917570000000  0.4462560000000 1.0
C      1  0.5152580000000  0.4972730000000  0.6061270000000 1.0
C      1  0.4866490000000  0.5854490000000  0.4473820000000 1.0
C      1  0.4876380000000  0.4124510000000  0.4486480000000 1.0
C      1  0.4857240000000  0.5011670000000  0.6056380000000 1.0
C      1  0.5025420000000  0.5439480000000  0.5903580000000 1.0
C      1  0.5020940000000  0.3994360000000  0.4935110000000 1.0
C      1  0.5028290000000  0.5544400000000  0.4139420000000 1.0
C      1  0.5001990000000  0.4553080000000  0.5874950000000 1.0
C      1  0.5040050000000  0.6023260000000  0.4958220000000 1.0
C      1  0.5041270000000  0.4506300000000  0.4118450000000 1.0
C      1  0.4107000000000  0.5418450000000  0.5007300000000 1.0
C      1  0.4115490000000  0.4792270000000  0.5383010000000 1.0
C      1  0.4069270000000  0.4779690000000  0.4634130000000 1.0
C      1  0.5924140000000  0.4539340000000  0.5001070000000 1.0
C      1  0.5846400000000  0.5206990000000  0.5355340000000 1.0
C      1  0.5919360000000  0.5206990000000  0.4609950000000 1.0
C      1  0.4164330000000  0.4679380000000  0.4319780000000 1.0
C      1  0.4212650000000  0.5727030000000  0.5115680000000 1.0
C      1  0.4228220000000  0.4524550000000  0.5560270000000 1.0
C      1  0.5846730000000  0.5291490000000  0.4286260000000 1.0
C      1  0.5783380000000  0.4246090000000  0.5118660000000 1.0
C      1  0.5772500000000  0.5470490000000  0.5558480000000 1.0
C      1  0.5366640000000  0.5643620000000  0.4655560000000 1.0
C      1  0.5349730000000  0.4951650000000  0.5714750000000 1.0
C      1  0.5343110000000  0.4465030000000  0.4714140000000 1.0
C      1  0.4683640000000  0.4417050000000  0.4672130000000 1.0
C      1  0.4636470000000  0.5035710000000  0.5725050000000 1.0
C      1  0.4742250000000  0.5513740000000  0.4671890000000 1.0
C      1  0.5254430000000  0.6022010000000  0.4715220000000 1.0
C      1  0.5233830000000  0.4691950000000  0.5994830000000 1.0
C      1  0.5256730000000  0.4271550000000  0.4239050000000 1.0
C      1  0.4788510000000  0.4020490000000  0.4758790000000 1.0
C      1  0.4785100000000  0.5302740000000  0.6001410000000 1.0
C      1  0.4792560000000  0.5672200000000  0.4255600000000 1.0
C      1  0.5080260000000  0.4287880000000  0.5328640000000 1.0
C      1  0.4958510000000  0.5651950000000  0.5403640000000 1.0
C      1  0.5020750000000  0.5033160000000  0.4084320000000 1.0
C      1  0.4638240000000  0.4972630000000  0.5033670000000 1.0
C      1  0.5313020000000  0.5005500000000  0.4958350000000 1.0
END
