TITL C-2782229-3092-886 0.000917394326112481 125000 -219.092567445788 0 0 42 (C1) n - 1
REM
REM in /home/nfs/bkarasulu/CARBON/AIRSS/Generating-Clusters/REBO/Higher-Symm/SD-CG/HFTN-CG
REM
REM
REM
REM
REM
REM ./C.cell (12c818d87b63d06a65506943cc24bca4)
REM
REM compiler GCC version 9.2.1 20190827 (Red Hat 9.2.1-1)
REM options -cpp -mtune=generic -march=x86-64 -g -O0 -fpre-include=/usr/include/finclude/math-vector-fortran.h
REM seed -1342646394 1653862713 -1417118507 -1860734361 -1949222699 -509844611 -1342694059 -912546480 1546339376 -2006096291 -177967411 954958619 134984645 -852231230 -677195638 2085500378 983388743 46230411 -1102187223 -860411288 779260617 321209641 1184682291 -677709068 446637364 1170415351 -1345726373 1230755113 560865698 -1979148353 1380581947 -216559918 -1917153345
REM
CELL 1.54180   50.00000   50.00000   50.00000   90.00000   90.00000   90.00000
LATT -1
SFAC C  
C      1  0.5319920000000  0.4968190000000  0.5551060000000 1.0
C      1  0.5446940000000  0.5293660000000  0.4928350000000 1.0
C      1  0.4911610000000  0.5541240000000  0.5325640000000 1.0
C      1  0.4730420000000  0.4956530000000  0.4497400000000 1.0
C      1  0.5305390000000  0.5100950000000  0.4429980000000 1.0
C      1  0.4710310000000  0.5080560000000  0.5562220000000 1.0
C      1  0.4458370000000  0.5350500000000  0.5110690000000 1.0
C      1  0.5573980000000  0.4700540000000  0.5104150000000 1.0
C      1  0.4514750000000  0.4732080000000  0.4913900000000 1.0
C      1  0.5024280000000  0.5546170000000  0.4685570000000 1.0
C      1  0.4962290000000  0.4519330000000  0.4695730000000 1.0
C      1  0.5071860000000  0.4509300000000  0.5319130000000 1.0
C      1  0.5506250000000  0.4960910000000  0.5308060000000 1.0
C      1  0.4955460000000  0.5305820000000  0.5533270000000 1.0
C      1  0.5239920000000  0.5509060000000  0.4946390000000 1.0
C      1  0.4502260000000  0.4988910000000  0.4699300000000 1.0
C      1  0.4518590000000  0.5091900000000  0.5319050000000 1.0
C      1  0.5510970000000  0.5075940000000  0.4685250000000 1.0
C      1  0.5038200000000  0.5300580000000  0.4476830000000 1.0
C      1  0.5105890000000  0.4710730000000  0.5580200000000 1.0
C      1  0.4950660000000  0.4707050000000  0.4446700000000 1.0
C      1  0.4632910000000  0.5600540000000  0.5158200000000 1.0
C      1  0.4701700000000  0.4481750000000  0.4900400000000 1.0
C      1  0.5312600000000  0.4526300000000  0.5092480000000 1.0
C      1  0.5057800000000  0.5301980000000  0.5148230000000 1.0
C      1  0.5317580000000  0.4993440000000  0.5024970000000 1.0
C      1  0.4929510000000  0.5274430000000  0.4859160000000 1.0
C      1  0.5047000000000  0.4702270000000  0.4970040000000 1.0
C      1  0.4789330000000  0.4625630000000  0.5181200000000 1.0
C      1  0.5008830000000  0.5022080000000  0.4685820000000 1.0
C      1  0.5237160000000  0.4805960000000  0.4581920000000 1.0
C      1  0.4842000000000  0.4823440000000  0.5405530000000 1.0
C      1  0.4618240000000  0.5257520000000  0.4847520000000 1.0
C      1  0.5446320000000  0.4763940000000  0.4803690000000 1.0
C      1  0.4695000000000  0.4988630000000  0.5047050000000 1.0
C      1  0.5081010000000  0.5049520000000  0.5319340000000 1.0
C      1  0.5003220000000  0.5010570000000  0.4292410000000 1.0
C      1  0.5016110000000  0.5016840000000  0.5707910000000 1.0
C      1  0.4931020000000  0.5648790000000  0.4999130000000 1.0
C      1  0.5673910000000  0.5027210000000  0.4999670000000 1.0
C      1  0.4340360000000  0.5026450000000  0.5016090000000 1.0
C      1  0.5015870000000  0.4347540000000  0.5004800000000 1.0
END
