TITL C-2782240-8521-1108 0.000713927613494092 125000 -972.461187906563 0 0 172 (C1) n - 1
REM
REM in /home/nfs/bkarasulu/CARBON/AIRSS/Generating-Clusters/REBO/Higher-Symm/SD-CG/HFTN-CG
REM
REM
REM
REM
REM
REM ./C.cell (12c818d87b63d06a65506943cc24bca4)
REM
REM compiler GCC version 9.2.1 20190827 (Red Hat 9.2.1-1)
REM options -cpp -mtune=generic -march=x86-64 -g -O0 -fpre-include=/usr/include/finclude/math-vector-fortran.h
REM seed -654889345 151731661 -587394999 -885321774 -1388193241 989910585 1675158381 927385992 833823078 528494660 346440057 -1333122772 -141970140 -2063658080 1981190454 -2126436475 -1049249055 1202132233 483130001 1605059022 153758734 1051123587 -1554592407 225063935 795984484 -1316266628 -2138011505 469513521 643602086 2073588651 -1337916807 2112535344 -978875031
REM
CELL 1.54180   50.00000   50.00000   50.00000   90.00000   90.00000   90.00000
LATT -1
SFAC C  
C      1  0.5722330000000  0.4499600000000  0.4796810000000 1.0
C      1  0.5804260000000  0.5414750000000  0.4748460000000 1.0
C      1  0.5714020000000  0.5059390000000  0.5473160000000 1.0
C      1  0.5801800000000  0.4214130000000  0.4647350000000 1.0
C      1  0.5965790000000  0.5635440000000  0.4568590000000 1.0
C      1  0.5860550000000  0.5066870000000  0.5767910000000 1.0
C      1  0.4570220000000  0.6214570000000  0.4819390000000 1.0
C      1  0.4536510000000  0.4554160000000  0.6213930000000 1.0
C      1  0.4717230000000  0.4115850000000  0.3966970000000 1.0
C      1  0.6179320000000  0.5779260000000  0.4563650000000 1.0
C      1  0.6059300000000  0.4950620000000  0.5886080000000 1.0
C      1  0.5871880000000  0.4122270000000  0.4403050000000 1.0
C      1  0.5316490000000  0.5170220000000  0.4445610000000 1.0
C      1  0.5330870000000  0.5383110000000  0.5462370000000 1.0
C      1  0.5300610000000  0.4384950000000  0.5003100000000 1.0
C      1  0.4638390000000  0.5085050000000  0.4709480000000 1.0
C      1  0.4600270000000  0.5224210000000  0.5225010000000 1.0
C      1  0.4643710000000  0.4675650000000  0.5041270000000 1.0
C      1  0.5013160000000  0.5270430000000  0.4206310000000 1.0
C      1  0.4995210000000  0.5532400000000  0.5617450000000 1.0
C      1  0.5006060000000  0.4111480000000  0.5201520000000 1.0
C      1  0.4777620000000  0.5596330000000  0.5873250000000 1.0
C      1  0.4739110000000  0.4009570000000  0.5289670000000 1.0
C      1  0.4740800000000  0.5369650000000  0.4059920000000 1.0
C      1  0.4995940000000  0.4847560000000  0.5151380000000 1.0
C      1  0.5084550000000  0.4846540000000  0.4689550000000 1.0
C      1  0.5090510000000  0.5310050000000  0.5013510000000 1.0
C      1  0.4650930000000  0.4727610000000  0.5718890000000 1.0
C      1  0.4704690000000  0.4512650000000  0.4391030000000 1.0
C      1  0.4705700000000  0.5723910000000  0.4919350000000 1.0
C      1  0.5368230000000  0.5131910000000  0.5970640000000 1.0
C      1  0.5294450000000  0.4039450000000  0.4471330000000 1.0
C      1  0.5436040000000  0.5783730000000  0.4449570000000 1.0
C      1  0.5309040000000  0.4205630000000  0.4248730000000 1.0
C      1  0.5385800000000  0.5947770000000  0.4708050000000 1.0
C      1  0.5334250000000  0.4828320000000  0.5888970000000 1.0
C      1  0.4895340000000  0.4567200000000  0.5550770000000 1.0
C      1  0.4943370000000  0.4742920000000  0.4338870000000 1.0
C      1  0.4965450000000  0.5678460000000  0.5089430000000 1.0
C      1  0.5436290000000  0.5524570000000  0.5945450000000 1.0
C      1  0.5453890000000  0.4021760000000  0.4952440000000 1.0
C      1  0.5488950000000  0.5547200000000  0.4135080000000 1.0
C      1  0.5786320000000  0.4914670000000  0.4503820000000 1.0
C      1  0.5783470000000  0.5514670000000  0.5244300000000 1.0
C      1  0.5779270000000  0.4643800000000  0.5303840000000 1.0
C      1  0.5567960000000  0.5701380000000  0.5116040000000 1.0
C      1  0.5557440000000  0.4580220000000  0.5535880000000 1.0
C      1  0.5578400000000  0.4737880000000  0.4334020000000 1.0
C      1  0.5474010000000  0.4645530000000  0.4062900000000 1.0
C      1  0.5451760000000  0.5978630000000  0.5182190000000 1.0
C      1  0.5479780000000  0.4441950000000  0.5771460000000 1.0
C      1  0.4521090000000  0.5184220000000  0.5739290000000 1.0
C      1  0.4636360000000  0.4265120000000  0.4892960000000 1.0
C      1  0.4534460000000  0.5542110000000  0.4483390000000 1.0
C      1  0.4695200000000  0.5108190000000  0.3917000000000 1.0
C      1  0.4779160000000  0.5860240000000  0.5690400000000 1.0
C      1  0.4683210000000  0.4082750000000  0.5557130000000 1.0
C      1  0.5296490000000  0.4142520000000  0.5583220000000 1.0
C      1  0.5231640000000  0.4909500000000  0.3892500000000 1.0
C      1  0.5212410000000  0.5992190000000  0.5496960000000 1.0
C      1  0.4700810000000  0.4978750000000  0.6353330000000 1.0
C      1  0.4575880000000  0.3795070000000  0.4442210000000 1.0
C      1  0.4748950000000  0.6136210000000  0.4292820000000 1.0
C      1  0.5207300000000  0.5538720000000  0.4808560000000 1.0
C      1  0.5124830000000  0.4867160000000  0.5423950000000 1.0
C      1  0.5186960000000  0.4550880000000  0.4582610000000 1.0
C      1  0.5357050000000  0.4514230000000  0.5303650000000 1.0
C      1  0.5266260000000  0.4852760000000  0.4333710000000 1.0
C      1  0.5274800000000  0.5622660000000  0.5224720000000 1.0
C      1  0.5186210000000  0.5145270000000  0.4748130000000 1.0
C      1  0.5320950000000  0.5207440000000  0.5203330000000 1.0
C      1  0.5206920000000  0.4694970000000  0.4957760000000 1.0
C      1  0.4766680000000  0.5001020000000  0.5841500000000 1.0
C      1  0.4762080000000  0.4239980000000  0.4577880000000 1.0
C      1  0.4766110000000  0.5718080000000  0.4610780000000 1.0
C      1  0.5159890000000  0.3920990000000  0.4995830000000 1.0
C      1  0.5212800000000  0.5481650000000  0.4025230000000 1.0
C      1  0.5166360000000  0.5533150000000  0.5912400000000 1.0
C      1  0.5195270000000  0.5852250000000  0.4907640000000 1.0
C      1  0.5171540000000  0.4686430000000  0.5706720000000 1.0
C      1  0.5202800000000  0.4454580000000  0.4281420000000 1.0
C      1  0.5717490000000  0.4122920000000  0.4928950000000 1.0
C      1  0.5692350000000  0.5565190000000  0.4395620000000 1.0
C      1  0.5631430000000  0.5294090000000  0.5841450000000 1.0
C      1  0.4658820000000  0.4353630000000  0.4089990000000 1.0
C      1  0.4568090000000  0.6002920000000  0.5001680000000 1.0
C      1  0.4588390000000  0.4492770000000  0.5943920000000 1.0
C      1  0.5961800000000  0.5604240000000  0.5497980000000 1.0
C      1  0.6052430000000  0.4469290000000  0.5299550000000 1.0
C      1  0.6024070000000  0.5064400000000  0.4342700000000 1.0
C      1  0.4938530000000  0.5046130000000  0.4451570000000 1.0
C      1  0.4939470000000  0.5421490000000  0.5300230000000 1.0
C      1  0.5023890000000  0.4447070000000  0.5284300000000 1.0
C      1  0.4792250000000  0.6009180000000  0.5223250000000 1.0
C      1  0.4865980000000  0.4321660000000  0.5913550000000 1.0
C      1  0.4815080000000  0.4618050000000  0.4018240000000 1.0
C      1  0.4160050000000  0.5108080000000  0.4867000000000 1.0
C      1  0.4106950000000  0.5052810000000  0.5180900000000 1.0
C      1  0.4157040000000  0.4713360000000  0.4980000000000 1.0
C      1  0.4438570000000  0.4674550000000  0.4529940000000 1.0
C      1  0.4499400000000  0.5499280000000  0.4981520000000 1.0
C      1  0.4412580000000  0.4827640000000  0.5549460000000 1.0
C      1  0.5183650000000  0.5810880000000  0.4250300000000 1.0
C      1  0.5161500000000  0.5210860000000  0.6172210000000 1.0
C      1  0.5104440000000  0.3833880000000  0.4488050000000 1.0
C      1  0.4926140000000  0.5643170000000  0.4100290000000 1.0
C      1  0.4912290000000  0.5433990000000  0.6110180000000 1.0
C      1  0.5002860000000  0.3813280000000  0.4785890000000 1.0
C      1  0.4384890000000  0.4312680000000  0.4687180000000 1.0
C      1  0.4262230000000  0.5563570000000  0.4625190000000 1.0
C      1  0.4211230000000  0.5287340000000  0.5642870000000 1.0
C      1  0.4639540000000  0.4876720000000  0.4092420000000 1.0
C      1  0.4724660000000  0.5818960000000  0.5426840000000 1.0
C      1  0.4650570000000  0.4352920000000  0.5579210000000 1.0
C      1  0.4366880000000  0.4728890000000  0.4200700000000 1.0
C      1  0.4280900000000  0.5905030000000  0.5089880000000 1.0
C      1  0.4308440000000  0.4504840000000  0.5760530000000 1.0
C      1  0.4178460000000  0.4855820000000  0.4671730000000 1.0
C      1  0.4203680000000  0.5368100000000  0.5093570000000 1.0
C      1  0.4194560000000  0.4746800000000  0.5294140000000 1.0
C      1  0.4421630000000  0.4599580000000  0.4853210000000 1.0
C      1  0.4394030000000  0.5286190000000  0.4755480000000 1.0
C      1  0.4340430000000  0.5105690000000  0.5391760000000 1.0
C      1  0.4367820000000  0.4414400000000  0.4202100000000 1.0
C      1  0.4086400000000  0.5927630000000  0.4897620000000 1.0
C      1  0.4141570000000  0.4713310000000  0.5843390000000 1.0
C      1  0.4562820000000  0.5540350000000  0.5355780000000 1.0
C      1  0.4586730000000  0.4572620000000  0.5326850000000 1.0
C      1  0.4546440000000  0.5031040000000  0.4385140000000 1.0
C      1  0.5148210000000  0.4361790000000  0.5787210000000 1.0
C      1  0.5135430000000  0.4621140000000  0.4011660000000 1.0
C      1  0.5113030000000  0.6037880000000  0.5181330000000 1.0
C      1  0.4262400000000  0.5653090000000  0.5259440000000 1.0
C      1  0.4290920000000  0.4461110000000  0.5450430000000 1.0
C      1  0.4207650000000  0.4955490000000  0.4370400000000 1.0
C      1  0.5826060000000  0.5262870000000  0.5052130000000 1.0
C      1  0.5734210000000  0.4943020000000  0.5145050000000 1.0
C      1  0.5781830000000  0.4827580000000  0.4825270000000 1.0
C      1  0.5319250000000  0.4184170000000  0.5286450000000 1.0
C      1  0.5273220000000  0.5096520000000  0.4112540000000 1.0
C      1  0.5260180000000  0.5709270000000  0.5540530000000 1.0
C      1  0.5475160000000  0.4661430000000  0.4637420000000 1.0
C      1  0.5518060000000  0.5530890000000  0.4853190000000 1.0
C      1  0.5465100000000  0.4871120000000  0.5445910000000 1.0
C      1  0.4180060000000  0.4977400000000  0.5734670000000 1.0
C      1  0.4300350000000  0.4291670000000  0.4435430000000 1.0
C      1  0.4086260000000  0.5751600000000  0.4687690000000 1.0
C      1  0.5794780000000  0.4386470000000  0.5093560000000 1.0
C      1  0.5796560000000  0.5253200000000  0.4472480000000 1.0
C      1  0.5740370000000  0.5372220000000  0.5543520000000 1.0
C      1  0.4879320000000  0.4470250000000  0.5013860000000 1.0
C      1  0.4795200000000  0.5327660000000  0.4536080000000 1.0
C      1  0.4762410000000  0.5226370000000  0.5511580000000 1.0
C      1  0.5521070000000  0.5220240000000  0.4951160000000 1.0
C      1  0.5392860000000  0.4888510000000  0.5129830000000 1.0
C      1  0.5481770000000  0.4976470000000  0.4752870000000 1.0
C      1  0.4231150000000  0.5225670000000  0.4237750000000 1.0
C      1  0.4235460000000  0.5597550000000  0.5573960000000 1.0
C      1  0.4311460000000  0.4202930000000  0.5259030000000 1.0
C      1  0.4869370000000  0.5865610000000  0.4349170000000 1.0
C      1  0.4844940000000  0.5101990000000  0.6118810000000 1.0
C      1  0.4792360000000  0.3934090000000  0.4543730000000 1.0
C      1  0.4531510000000  0.4103670000000  0.5124670000000 1.0
C      1  0.4511410000000  0.5342440000000  0.4255110000000 1.0
C      1  0.4540270000000  0.5504390000000  0.5693500000000 1.0
C      1  0.5282380000000  0.4193200000000  0.4731830000000 1.0
C      1  0.5305070000000  0.5470980000000  0.4413830000000 1.0
C      1  0.5253140000000  0.5213310000000  0.5689710000000 1.0
C      1  0.5001390000000  0.5060260000000  0.5629270000000 1.0
C      1  0.4996620000000  0.4359720000000  0.4747610000000 1.0
C      1  0.5033430000000  0.5539440000000  0.4555920000000 1.0
C      1  0.4721900000000  0.4994100000000  0.5012400000000 1.0
END
