TITL C-2782238-9940-366 0.0540139684795897 125000 -160.369263145742 0 0 32 (C2) n - 1
REM
REM in /home/nfs/bkarasulu/CARBON/AIRSS/Generating-Clusters/REBO/Higher-Symm/SD-CG/HFTN-CG
REM
REM
REM
REM
REM
REM ./C.cell (12c818d87b63d06a65506943cc24bca4)
REM
REM compiler GCC version 9.2.1 20190827 (Red Hat 9.2.1-1)
REM options -cpp -mtune=generic -march=x86-64 -g -O0 -fpre-include=/usr/include/finclude/math-vector-fortran.h
REM seed 1412656469 373466960 -1523198045 -1861216083 1593090706 1699815373 -1401617100 1406788305 1480128687 -1600266012 1184428012 -881124279 -740173331 -738184487 -29257512 1376890105 2063582650 -1386765585 79578229 -1796702442 1504789867 113158016 1385136827 -203050901 -100905016 1598383402 1949423504 95067935 1289196182 -1410612321 764784114 75125484 372014568
REM
CELL 1.54180   50.00000   50.00000   50.00000   90.00000   90.00000   90.00000
LATT -1
SFAC C  
C      1  0.4734180000000  0.4942730000000  0.5080750000000 1.0
C      1  0.5265890000000  0.5057320000000  0.5080470000000 1.0
C      1  0.4220970000000  0.5764070000000  0.5028450000000 1.0
C      1  0.5779060000000  0.4235940000000  0.5028240000000 1.0
C      1  0.4237500000000  0.5750230000000  0.5348650000000 1.0
C      1  0.5762820000000  0.4250010000000  0.5348450000000 1.0
C      1  0.4739540000000  0.4961430000000  0.4760270000000 1.0
C      1  0.5260240000000  0.5038410000000  0.4760000000000 1.0
C      1  0.5325150000000  0.4603650000000  0.4660300000000 1.0
C      1  0.4674540000000  0.5396120000000  0.4660340000000 1.0
C      1  0.4808780000000  0.5327210000000  0.5392950000000 1.0
C      1  0.5191580000000  0.4673060000000  0.5392990000000 1.0
C      1  0.5212470000000  0.4654190000000  0.4907540000000 1.0
C      1  0.4787440000000  0.5345750000000  0.4907510000000 1.0
C      1  0.4676540000000  0.5429310000000  0.5151270000000 1.0
C      1  0.5323600000000  0.4570790000000  0.5151260000000 1.0
C      1  0.4458670000000  0.5588990000000  0.5169430000000 1.0
C      1  0.5541490000000  0.4411120000000  0.5169330000000 1.0
C      1  0.4978480000000  0.4801130000000  0.4915910000000 1.0
C      1  0.5021440000000  0.5198810000000  0.4915760000000 1.0
C      1  0.5230300000000  0.4981610000000  0.5471540000000 1.0
C      1  0.4770130000000  0.5018700000000  0.5471740000000 1.0
C      1  0.5091060000000  0.4901920000000  0.4262070000000 1.0
C      1  0.4908260000000  0.5097580000000  0.4262080000000 1.0
C      1  0.5026630000000  0.5505970000000  0.5583900000000 1.0
C      1  0.4973910000000  0.4494420000000  0.5584260000000 1.0
C      1  0.5507150000000  0.4506590000000  0.4409690000000 1.0
C      1  0.4492310000000  0.5493020000000  0.4409820000000 1.0
C      1  0.4735240000000  0.5282840000000  0.4362260000000 1.0
C      1  0.5264170000000  0.4716730000000  0.4362210000000 1.0
C      1  0.4883790000000  0.4783640000000  0.5495400000000 1.0
C      1  0.5116670000000  0.5216700000000  0.5495150000000 1.0
END
