TITL C-2782227-3064-1464 -0.00552106653960224 125000 -198.476879968061 0 0 32 (Cs) n - 1
REM
REM in /home/nfs/bkarasulu/CARBON/AIRSS/Generating-Clusters/REBO/Higher-Symm/SD-CG/HFTN-CG
REM
REM
REM
REM
REM
REM ./C.cell (12c818d87b63d06a65506943cc24bca4)
REM
REM compiler GCC version 9.2.1 20190827 (Red Hat 9.2.1-1)
REM options -cpp -mtune=generic -march=x86-64 -g -O0 -fpre-include=/usr/include/finclude/math-vector-fortran.h
REM seed -735254933 767893310 1012469975 -638161169 845429609 -1489416975 2134295426 802584290 292092612 721418736 -379478307 595555430 1658864906 128427921 -1472929840 -2059398424 -2032056163 -324202035 179768924 -1949995835 -2123315209 26485601 -2024901179 1694507355 -1752252008 1131858848 1293617886 -439547161 -5484248 98775948 128405438 -6841200 -30100765
REM
CELL 1.54180   50.00000   50.00000   50.00000   90.00000   90.00000   90.00000
LATT -1
SFAC C  
C      1  0.4832790000000  0.4513770000000  0.5163330000000 1.0
C      1  0.5193590000000  0.4834000000000  0.4480410000000 1.0
C      1  0.4520150000000  0.5160210000000  0.4877980000000 1.0
C      1  0.5188830000000  0.4496820000000  0.4827590000000 1.0
C      1  0.4867390000000  0.5507440000000  0.4877980000000 1.0
C      1  0.5157070000000  0.5525990000000  0.5150150000000 1.0
C      1  0.4829190000000  0.4852340000000  0.5510050000000 1.0
C      1  0.5175250000000  0.5198390000000  0.5510050000000 1.0
C      1  0.4848570000000  0.5179020000000  0.4517810000000 1.0
C      1  0.5513820000000  0.5194780000000  0.5163340000000 1.0
C      1  0.4501590000000  0.4870530000000  0.5150150000000 1.0
C      1  0.5530760000000  0.4838740000000  0.4827590000000 1.0
C      1  0.4843760000000  0.5527740000000  0.5192060000000 1.0
C      1  0.5162110000000  0.5146980000000  0.4507170000000 1.0
C      1  0.4518460000000  0.4847410000000  0.4835470000000 1.0
C      1  0.5180190000000  0.5509120000000  0.4835480000000 1.0
C      1  0.4874040000000  0.4512270000000  0.4850080000000 1.0
C      1  0.5147080000000  0.4531960000000  0.5138880000000 1.0
C      1  0.4861480000000  0.5166110000000  0.5519980000000 1.0
C      1  0.5141720000000  0.4885860000000  0.5482510000000 1.0
C      1  0.4880610000000  0.4865490000000  0.4507170000000 1.0
C      1  0.5495620000000  0.4880500000000  0.5138880000000 1.0
C      1  0.4499850000000  0.5183840000000  0.5192060000000 1.0
C      1  0.5515320000000  0.5153540000000  0.4850080000000 1.0
C      1  0.5343480000000  0.4684100000000  0.4674770000000 1.0
C      1  0.4711980000000  0.5315620000000  0.4730050000000 1.0
C      1  0.4682650000000  0.4710850000000  0.5307700000000 1.0
C      1  0.5287900000000  0.4739670000000  0.5281460000000 1.0
C      1  0.4701480000000  0.5326120000000  0.5340320000000 1.0
C      1  0.5318460000000  0.5298610000000  0.4696360000000 1.0
C      1  0.5316740000000  0.5344920000000  0.5307710000000 1.0
C      1  0.4728970000000  0.4709130000000  0.4696350000000 1.0
END
