TITL C-2782237-5345-1102 -0.000372984586372011 125000 -314.320220102039 0 0 56 (Ci) n - 1
REM
REM in /home/nfs/bkarasulu/CARBON/AIRSS/Generating-Clusters/REBO/Higher-Symm/SD-CG/HFTN-CG
REM
REM
REM
REM
REM
REM ./C.cell (12c818d87b63d06a65506943cc24bca4)
REM
REM compiler GCC version 9.2.1 20190827 (Red Hat 9.2.1-1)
REM options -cpp -mtune=generic -march=x86-64 -g -O0 -fpre-include=/usr/include/finclude/math-vector-fortran.h
REM seed -1843128862 921372000 -1897467333 1772661462 1114744575 2081864729 -1325443612 244059013 -262775286 697037840 362586516 -1021248502 -884620039 -1422934910 1489608596 1745523655 741545597 -1590131619 1591850125 1291908004 -1051665872 494925253 -441763754 -457763497 1447348199 -2115050137 183858101 -1362306136 137546140 716466177 -1241374053 -1079226087 749769028
REM
CELL 1.54180   50.00000   50.00000   50.00000   90.00000   90.00000   90.00000
LATT -1
SFAC C  
C      1  0.5062360000000  0.5175580000000  0.5252000000000 1.0
C      1  0.4913570000000  0.5163260000000  0.4766640000000 1.0
C      1  0.5086430000000  0.4836740000000  0.5233360000000 1.0
C      1  0.4937640000000  0.4824420000000  0.4748000000000 1.0
C      1  0.4934370000000  0.4705150000000  0.4429180000000 1.0
C      1  0.5065280000000  0.4712800000000  0.5550970000000 1.0
C      1  0.4934720000000  0.5287200000000  0.4449030000000 1.0
C      1  0.5065630000000  0.5294850000000  0.5570820000000 1.0
C      1  0.4744760000000  0.4503580000000  0.4574320000000 1.0
C      1  0.5251070000000  0.4504610000000  0.5414550000000 1.0
C      1  0.4748930000000  0.5495390000000  0.4585450000000 1.0
C      1  0.5255240000000  0.5496420000000  0.5425680000000 1.0
C      1  0.4845620000000  0.4650560000000  0.5102580000000 1.0
C      1  0.5172000000000  0.4645320000000  0.4873730000000 1.0
C      1  0.4828000000000  0.5354680000000  0.5126270000000 1.0
C      1  0.5154380000000  0.5349440000000  0.4897420000000 1.0
C      1  0.4621610000000  0.4591730000000  0.5338640000000 1.0
C      1  0.5371660000000  0.4553910000000  0.4633060000000 1.0
C      1  0.4628340000000  0.5446090000000  0.5366940000000 1.0
C      1  0.5378390000000  0.5408270000000  0.4661360000000 1.0
C      1  0.5368720000000  0.5199770000000  0.5119190000000 1.0
C      1  0.4610310000000  0.5197150000000  0.4917130000000 1.0
C      1  0.5389690000000  0.4802850000000  0.5082870000000 1.0
C      1  0.4631280000000  0.4800230000000  0.4880810000000 1.0
C      1  0.5182910000000  0.5549440000000  0.5165810000000 1.0
C      1  0.4805770000000  0.5539040000000  0.4850980000000 1.0
C      1  0.5194230000000  0.4460960000000  0.5149020000000 1.0
C      1  0.4817090000000  0.4450560000000  0.4834190000000 1.0
C      1  0.5210810000000  0.4615530000000  0.4353040000000 1.0
C      1  0.4776410000000  0.4664130000000  0.5615940000000 1.0
C      1  0.5223590000000  0.5335870000000  0.4384060000000 1.0
C      1  0.4789190000000  0.5384470000000  0.5646960000000 1.0
C      1  0.5204210000000  0.5121460000000  0.5777230000000 1.0
C      1  0.4792030000000  0.5127260000000  0.4233260000000 1.0
C      1  0.5207970000000  0.4872740000000  0.5766740000000 1.0
C      1  0.4795790000000  0.4878540000000  0.4222770000000 1.0
C      1  0.4350500000000  0.4851700000000  0.4406360000000 1.0
C      1  0.5659770000000  0.4865330000000  0.5575360000000 1.0
C      1  0.4340230000000  0.5134670000000  0.4424640000000 1.0
C      1  0.5649500000000  0.5148300000000  0.5593640000000 1.0
C      1  0.4466750000000  0.4532680000000  0.4434330000000 1.0
C      1  0.5528400000000  0.4560060000000  0.5503780000000 1.0
C      1  0.4471600000000  0.5439940000000  0.4496220000000 1.0
C      1  0.5533250000000  0.5467320000000  0.5565670000000 1.0
C      1  0.5610940000000  0.4759540000000  0.5274650000000 1.0
C      1  0.4430590000000  0.4723490000000  0.4687830000000 1.0
C      1  0.5569410000000  0.5276510000000  0.5312170000000 1.0
C      1  0.4389060000000  0.5240460000000  0.4725350000000 1.0
C      1  0.4508630000000  0.4854520000000  0.5162240000000 1.0
C      1  0.5508760000000  0.4832330000000  0.4772300000000 1.0
C      1  0.4491240000000  0.5167670000000  0.5227700000000 1.0
C      1  0.5491370000000  0.5145480000000  0.4837760000000 1.0
C      1  0.4542160000000  0.4882920000000  0.5502370000000 1.0
C      1  0.5470890000000  0.4813710000000  0.4432370000000 1.0
C      1  0.4529110000000  0.5186290000000  0.5567630000000 1.0
C      1  0.5457840000000  0.5117080000000  0.4497630000000 1.0
END
