TITL C-2782228-2999-418 6.41786158862234e-05 125000 -82.1893251142972 0 0 16 (C2h) n - 1
REM
REM in /home/nfs/bkarasulu/CARBON/AIRSS/Generating-Clusters/REBO/Higher-Symm/SD-CG/HFTN-CG
REM
REM
REM
REM
REM
REM ./C.cell (12c818d87b63d06a65506943cc24bca4)
REM
REM compiler GCC version 9.2.1 20190827 (Red Hat 9.2.1-1)
REM options -cpp -mtune=generic -march=x86-64 -g -O0 -fpre-include=/usr/include/finclude/math-vector-fortran.h
REM seed 1746684040 1753985828 -180372903 -558800316 -1652978041 -1433854957 1890038450 1777219592 1751890546 -199187744 45820893 1321225380 1639606411 946003054 -199946972 -1492516256 -1769946519 1292584968 1423870965 139212299 996186351 1547833970 396421172 791237162 1040354927 -50310886 815589505 900483219 771558719 1904790749 1373098673 -159931839 828138607
REM
CELL 1.54180   50.00000   50.00000   50.00000   90.00000   90.00000   90.00000
LATT -1
SFAC C  
C      1  0.4612830000000  0.4824940000000  0.4798490000000 1.0
C      1  0.4645270000000  0.5164860000000  0.5191870000000 1.0
C      1  0.5354730000000  0.4835140000000  0.4808130000000 1.0
C      1  0.5387170000000  0.5175060000000  0.5201510000000 1.0
C      1  0.4613370000000  0.4833170000000  0.5111860000000 1.0
C      1  0.4644760000000  0.5154270000000  0.4881010000000 1.0
C      1  0.5355240000000  0.4845730000000  0.5118990000000 1.0
C      1  0.5386630000000  0.5166830000000  0.4888140000000 1.0
C      1  0.5135290000000  0.4826330000000  0.4584450000000 1.0
C      1  0.5174390000000  0.5217330000000  0.5427060000000 1.0
C      1  0.4825610000000  0.4782670000000  0.4572940000000 1.0
C      1  0.4864710000000  0.5173670000000  0.5415550000000 1.0
C      1  0.5137590000000  0.4896040000000  0.5335160000000 1.0
C      1  0.5168940000000  0.5155660000000  0.4666260000000 1.0
C      1  0.4831060000000  0.4844340000000  0.5333740000000 1.0
C      1  0.4862410000000  0.5103960000000  0.4664840000000 1.0
END
