TITL C-2782234-8014-1340 0.00139587963171632 125000 -706.196543436023 0 0 125 (C1) n - 1
REM
REM in /home/nfs/bkarasulu/CARBON/AIRSS/Generating-Clusters/REBO/Higher-Symm/SD-CG/HFTN-CG
REM
REM
REM
REM
REM
REM ./C.cell (12c818d87b63d06a65506943cc24bca4)
REM
REM compiler GCC version 9.2.1 20190827 (Red Hat 9.2.1-1)
REM options -cpp -mtune=generic -march=x86-64 -g -O0 -fpre-include=/usr/include/finclude/math-vector-fortran.h
REM seed -660074147 -48616983 1744835049 851599496 -1457178604 -1739510864 -871374528 -854138785 -2116100887 -489081784 -619771828 847747216 263712179 -1454096902 -1904469467 -1501749577 -866311303 -1232111972 1940683615 -428157080 759004276 -1847548669 -401127175 -1615260165 241272554 1176446923 2061959589 -1848283165 771075883 -2126377593 -1902086803 -786016539 -1679513663
REM
CELL 1.54180   50.00000   50.00000   50.00000   90.00000   90.00000   90.00000
LATT -1
SFAC C  
C      1  0.4720650000000  0.5127910000000  0.3934920000000 1.0
C      1  0.4682300000000  0.4859090000000  0.6083780000000 1.0
C      1  0.4910060000000  0.4105270000000  0.5227820000000 1.0
C      1  0.4945430000000  0.5867990000000  0.4761420000000 1.0
C      1  0.5285930000000  0.4468790000000  0.5656860000000 1.0
C      1  0.5260220000000  0.5417080000000  0.4259200000000 1.0
C      1  0.5297400000000  0.5434180000000  0.4591000000000 1.0
C      1  0.5366270000000  0.4510300000000  0.5329650000000 1.0
C      1  0.4301570000000  0.4951650000000  0.5491410000000 1.0
C      1  0.4291710000000  0.5079730000000  0.4498080000000 1.0
C      1  0.4871470000000  0.4821250000000  0.4817040000000 1.0
C      1  0.5013740000000  0.5084400000000  0.5079340000000 1.0
C      1  0.4656800000000  0.4207340000000  0.5433450000000 1.0
C      1  0.4697480000000  0.5812280000000  0.4535010000000 1.0
C      1  0.5082610000000  0.5163580000000  0.4237030000000 1.0
C      1  0.5015760000000  0.4733470000000  0.5782270000000 1.0
C      1  0.5052970000000  0.4234820000000  0.4702200000000 1.0
C      1  0.5044890000000  0.5731820000000  0.5319620000000 1.0
C      1  0.5610170000000  0.5040490000000  0.4267620000000 1.0
C      1  0.5548400000000  0.4906750000000  0.5856540000000 1.0
C      1  0.4278290000000  0.4612080000000  0.5455150000000 1.0
C      1  0.4316240000000  0.5414380000000  0.4554130000000 1.0
C      1  0.5844740000000  0.4906460000000  0.5032530000000 1.0
C      1  0.5827760000000  0.5189060000000  0.4963080000000 1.0
C      1  0.4680980000000  0.5704280000000  0.5100920000000 1.0
C      1  0.4702230000000  0.4201120000000  0.4900360000000 1.0
C      1  0.4435670000000  0.4709610000000  0.4525420000000 1.0
C      1  0.4371070000000  0.5335880000000  0.5574630000000 1.0
C      1  0.4147680000000  0.4810700000000  0.4648240000000 1.0
C      1  0.4175840000000  0.5224320000000  0.5352150000000 1.0
C      1  0.5795830000000  0.5703180000000  0.4571920000000 1.0
C      1  0.5880350000000  0.4389000000000  0.5428330000000 1.0
C      1  0.5245850000000  0.4433870000000  0.4317510000000 1.0
C      1  0.5274670000000  0.5451140000000  0.5706510000000 1.0
C      1  0.5833940000000  0.4876570000000  0.5318560000000 1.0
C      1  0.5854520000000  0.5223500000000  0.4685120000000 1.0
C      1  0.4988060000000  0.4411990000000  0.5798810000000 1.0
C      1  0.5082230000000  0.5653700000000  0.4169670000000 1.0
C      1  0.4679010000000  0.4412130000000  0.5692520000000 1.0
C      1  0.4770680000000  0.5585480000000  0.4291460000000 1.0
C      1  0.5441410000000  0.6307790000000  0.5060160000000 1.0
C      1  0.5532260000000  0.3944770000000  0.4924910000000 1.0
C      1  0.5718530000000  0.5116560000000  0.5436690000000 1.0
C      1  0.5863750000000  0.4955430000000  0.4573710000000 1.0
C      1  0.4979210000000  0.5739720000000  0.5650470000000 1.0
C      1  0.4912630000000  0.4162540000000  0.4403410000000 1.0
C      1  0.5516290000000  0.4333090000000  0.4394440000000 1.0
C      1  0.5506070000000  0.5611170000000  0.5628780000000 1.0
C      1  0.5613210000000  0.4201680000000  0.4909060000000 1.0
C      1  0.5603750000000  0.5681090000000  0.4995100000000 1.0
C      1  0.5639190000000  0.4450260000000  0.4689140000000 1.0
C      1  0.5580910000000  0.5619110000000  0.5318740000000 1.0
C      1  0.4405440000000  0.4316770000000  0.5006150000000 1.0
C      1  0.4375880000000  0.5766040000000  0.4981000000000 1.0
C      1  0.5565690000000  0.5336660000000  0.4313490000000 1.0
C      1  0.5521560000000  0.4687850000000  0.5649200000000 1.0
C      1  0.4555280000000  0.5157450000000  0.5735240000000 1.0
C      1  0.4571160000000  0.4805570000000  0.4249640000000 1.0
C      1  0.4831660000000  0.5510840000000  0.5470970000000 1.0
C      1  0.4805150000000  0.4426400000000  0.4563620000000 1.0
C      1  0.4107230000000  0.4873920000000  0.4951760000000 1.0
C      1  0.4136580000000  0.5169570000000  0.5054580000000 1.0
C      1  0.4928010000000  0.5047400000000  0.4492850000000 1.0
C      1  0.4939480000000  0.4880910000000  0.5513830000000 1.0
C      1  0.4387300000000  0.5127450000000  0.4821830000000 1.0
C      1  0.4372740000000  0.4868940000000  0.5167800000000 1.0
C      1  0.4504950000000  0.4420040000000  0.4633440000000 1.0
C      1  0.4533430000000  0.5565550000000  0.5443240000000 1.0
C      1  0.4968390000000  0.4172070000000  0.5557730000000 1.0
C      1  0.5018260000000  0.5864690000000  0.4428780000000 1.0
C      1  0.5484910000000  0.5056270000000  0.5119970000000 1.0
C      1  0.5463340000000  0.4944400000000  0.4825620000000 1.0
C      1  0.5006720000000  0.5539950000000  0.4541160000000 1.0
C      1  0.5043160000000  0.4465480000000  0.5409540000000 1.0
C      1  0.5152150000000  0.5438180000000  0.4962940000000 1.0
C      1  0.5130350000000  0.4596970000000  0.5022920000000 1.0
C      1  0.5408790000000  0.5251890000000  0.5484110000000 1.0
C      1  0.5340770000000  0.4663500000000  0.4530320000000 1.0
C      1  0.5464980000000  0.5160740000000  0.4620400000000 1.0
C      1  0.5439120000000  0.4833630000000  0.5350770000000 1.0
C      1  0.4304410000000  0.5503730000000  0.5194630000000 1.0
C      1  0.4231800000000  0.4523240000000  0.4812170000000 1.0
C      1  0.4159640000000  0.4602130000000  0.5136090000000 1.0
C      1  0.4224190000000  0.5419290000000  0.4873940000000 1.0
C      1  0.4739340000000  0.4563320000000  0.4085370000000 1.0
C      1  0.4765400000000  0.5340930000000  0.5928110000000 1.0
C      1  0.4609140000000  0.4994390000000  0.4599510000000 1.0
C      1  0.4620880000000  0.4914250000000  0.5399020000000 1.0
C      1  0.4848710000000  0.4724170000000  0.4431270000000 1.0
C      1  0.4852880000000  0.5188440000000  0.5572600000000 1.0
C      1  0.4872290000000  0.5573040000000  0.4912370000000 1.0
C      1  0.4911270000000  0.4381260000000  0.5043380000000 1.0
C      1  0.4488610000000  0.4631370000000  0.5700700000000 1.0
C      1  0.4568620000000  0.5327100000000  0.4351420000000 1.0
C      1  0.4486890000000  0.4427190000000  0.5280110000000 1.0
C      1  0.4459760000000  0.5682940000000  0.4693070000000 1.0
C      1  0.5130090000000  0.4826590000000  0.5265470000000 1.0
C      1  0.4985410000000  0.5211360000000  0.4769960000000 1.0
C      1  0.5252730000000  0.5269650000000  0.5213510000000 1.0
C      1  0.5175650000000  0.4786330000000  0.4776080000000 1.0
C      1  0.5340490000000  0.5826850000000  0.5257300000000 1.0
C      1  0.5302190000000  0.4391750000000  0.4726270000000 1.0
C      1  0.4777680000000  0.4578350000000  0.5254340000000 1.0
C      1  0.4703180000000  0.5431260000000  0.4652670000000 1.0
C      1  0.5419060000000  0.4423330000000  0.5041390000000 1.0
C      1  0.5399710000000  0.5596660000000  0.4836900000000 1.0
C      1  0.5391460000000  0.6069740000000  0.5157740000000 1.0
C      1  0.5270510000000  0.3861600000000  0.4945380000000 1.0
C      1  0.4515900000000  0.4874410000000  0.5849940000000 1.0
C      1  0.4563370000000  0.5093310000000  0.4157990000000 1.0
C      1  0.5771360000000  0.4639820000000  0.5460120000000 1.0
C      1  0.5756960000000  0.5438820000000  0.4526180000000 1.0
C      1  0.4425760000000  0.4105130000000  0.4735980000000 1.0
C      1  0.4466730000000  0.5850850000000  0.5298800000000 1.0
C      1  0.5001280000000  0.4505810000000  0.4219170000000 1.0
C      1  0.5031750000000  0.5372540000000  0.5797700000000 1.0
C      1  0.4990930000000  0.5112700000000  0.3982980000000 1.0
C      1  0.4952390000000  0.4849380000000  0.6024490000000 1.0
C      1  0.5667800000000  0.5340940000000  0.5194900000000 1.0
C      1  0.5719590000000  0.4726170000000  0.4772130000000 1.0
C      1  0.5530880000000  0.4840390000000  0.4384710000000 1.0
C      1  0.5516370000000  0.5143270000000  0.5780790000000 1.0
C      1  0.5012710000000  0.5920290000000  0.5049590000000 1.0
C      1  0.5046690000000  0.4022040000000  0.4936550000000 1.0
C      1  0.4767110000000  0.4860120000000  0.5106060000000 1.0
END
