TITL C-2782240-8521-930 -0.00123165549400249 125000 -597.556634613258 0 0 109 (C1) n - 1
REM
REM in /home/nfs/bkarasulu/CARBON/AIRSS/Generating-Clusters/REBO/Higher-Symm/SD-CG/HFTN-CG
REM
REM
REM
REM
REM
REM ./C.cell (12c818d87b63d06a65506943cc24bca4)
REM
REM compiler GCC version 9.2.1 20190827 (Red Hat 9.2.1-1)
REM options -cpp -mtune=generic -march=x86-64 -g -O0 -fpre-include=/usr/include/finclude/math-vector-fortran.h
REM seed 1427305123 1201761011 -1830315770 -1927568296 -1301785626 -730016289 1132355266 -1948554368 351878152 428674816 900887352 1197726013 -614302106 1069672524 321503039 1428849524 1017811850 1180743417 1656893036 -645460796 669163917 1675297431 204435909 -32077680 -1149408650 940592092 -2136302203 -167671262 818112848 1747489427 -600101281 -1381353901 2002254410
REM
CELL 1.54180   50.00000   50.00000   50.00000   90.00000   90.00000   90.00000
LATT -1
SFAC C  
C      1  0.4616290000000  0.5320050000000  0.5139560000000 1.0
C      1  0.4973300000000  0.5442670000000  0.5269600000000 1.0
C      1  0.5427140000000  0.5281420000000  0.5187210000000 1.0
C      1  0.5271240000000  0.5431630000000  0.4851780000000 1.0
C      1  0.4817690000000  0.5412510000000  0.4669020000000 1.0
C      1  0.5196670000000  0.4221530000000  0.4943770000000 1.0
C      1  0.5146750000000  0.4312350000000  0.4619360000000 1.0
C      1  0.4786630000000  0.4186200000000  0.4738190000000 1.0
C      1  0.4673250000000  0.4179060000000  0.5185180000000 1.0
C      1  0.4941720000000  0.4131210000000  0.5551680000000 1.0
C      1  0.5177210000000  0.4914360000000  0.4030830000000 1.0
C      1  0.4065810000000  0.4872100000000  0.4552980000000 1.0
C      1  0.4263710000000  0.4953620000000  0.5779370000000 1.0
C      1  0.5427250000000  0.4760460000000  0.5864270000000 1.0
C      1  0.6122840000000  0.4854190000000  0.4732570000000 1.0
C      1  0.4767320000000  0.4929330000000  0.4297780000000 1.0
C      1  0.4230670000000  0.4933780000000  0.5001100000000 1.0
C      1  0.4749670000000  0.4865130000000  0.5786100000000 1.0
C      1  0.5537880000000  0.4813760000000  0.5396150000000 1.0
C      1  0.5694170000000  0.4929650000000  0.4515910000000 1.0
C      1  0.5531970000000  0.5270880000000  0.4912200000000 1.0
C      1  0.5075420000000  0.5222560000000  0.4722580000000 1.0
C      1  0.4716030000000  0.5175740000000  0.4886640000000 1.0
C      1  0.4748680000000  0.5244280000000  0.5395710000000 1.0
C      1  0.5129940000000  0.5155110000000  0.5229480000000 1.0
C      1  0.4692300000000  0.4265100000000  0.5674040000000 1.0
C      1  0.5395860000000  0.4209650000000  0.5219900000000 1.0
C      1  0.5449960000000  0.4373490000000  0.4547460000000 1.0
C      1  0.4814280000000  0.4235660000000  0.4424920000000 1.0
C      1  0.4372940000000  0.4174300000000  0.5057280000000 1.0
C      1  0.4245140000000  0.5047600000000  0.4726520000000 1.0
C      1  0.4542120000000  0.5083990000000  0.5788960000000 1.0
C      1  0.5375440000000  0.4932380000000  0.5617440000000 1.0
C      1  0.5909370000000  0.5065420000000  0.4670840000000 1.0
C      1  0.5028450000000  0.5071790000000  0.4239060000000 1.0
C      1  0.4690460000000  0.4684490000000  0.4688800000000 1.0
C      1  0.4604750000000  0.4654670000000  0.5019930000000 1.0
C      1  0.4976870000000  0.4561180000000  0.5445760000000 1.0
C      1  0.5149750000000  0.4521910000000  0.5200540000000 1.0
C      1  0.5247300000000  0.4693980000000  0.4673060000000 1.0
C      1  0.5813590000000  0.5293460000000  0.4809520000000 1.0
C      1  0.5146400000000  0.5249340000000  0.4419950000000 1.0
C      1  0.4459750000000  0.5228320000000  0.4691590000000 1.0
C      1  0.4618250000000  0.5315100000000  0.5640040000000 1.0
C      1  0.5197990000000  0.5135210000000  0.5542640000000 1.0
C      1  0.5409410000000  0.4495630000000  0.4170240000000 1.0
C      1  0.4346950000000  0.4419170000000  0.4398100000000 1.0
C      1  0.4213230000000  0.4468940000000  0.5275120000000 1.0
C      1  0.5130570000000  0.4286560000000  0.5867610000000 1.0
C      1  0.5789910000000  0.4455420000000  0.5208190000000 1.0
C      1  0.4482040000000  0.4651750000000  0.5341280000000 1.0
C      1  0.5164860000000  0.4508620000000  0.5701040000000 1.0
C      1  0.5689730000000  0.4596130000000  0.4935650000000 1.0
C      1  0.5248720000000  0.4664080000000  0.4333390000000 1.0
C      1  0.4392090000000  0.4643450000000  0.4561520000000 1.0
C      1  0.5244860000000  0.5610010000000  0.5508010000000 1.0
C      1  0.5553730000000  0.5653950000000  0.5025230000000 1.0
C      1  0.5186000000000  0.5702420000000  0.4572690000000 1.0
C      1  0.4629650000000  0.5680910000000  0.4823180000000 1.0
C      1  0.4695660000000  0.5708890000000  0.5385070000000 1.0
C      1  0.4334260000000  0.4933940000000  0.5248310000000 1.0
C      1  0.4995480000000  0.4768480000000  0.5785650000000 1.0
C      1  0.5646750000000  0.4824560000000  0.5155730000000 1.0
C      1  0.5430590000000  0.4913950000000  0.4450080000000 1.0
C      1  0.4519130000000  0.4898810000000  0.4400940000000 1.0
C      1  0.5798370000000  0.5568270000000  0.4924140000000 1.0
C      1  0.5261960000000  0.5508350000000  0.4390710000000 1.0
C      1  0.4429380000000  0.5499570000000  0.4646370000000 1.0
C      1  0.4593290000000  0.5599750000000  0.5619970000000 1.0
C      1  0.5179400000000  0.5391700000000  0.5663760000000 1.0
C      1  0.4165340000000  0.4416170000000  0.4991000000000 1.0
C      1  0.4518080000000  0.4422730000000  0.5818840000000 1.0
C      1  0.5584570000000  0.4357920000000  0.5363410000000 1.0
C      1  0.5697410000000  0.4462300000000  0.4462660000000 1.0
C      1  0.4831340000000  0.4406410000000  0.4190160000000 1.0
C      1  0.4474340000000  0.4706590000000  0.5677640000000 1.0
C      1  0.5470900000000  0.4545700000000  0.5595380000000 1.0
C      1  0.5841310000000  0.4671430000000  0.4674130000000 1.0
C      1  0.4962680000000  0.4680650000000  0.4202740000000 1.0
C      1  0.4179820000000  0.4661990000000  0.4806740000000 1.0
C      1  0.5492740000000  0.5560730000000  0.5333090000000 1.0
C      1  0.5356790000000  0.5787500000000  0.4819900000000 1.0
C      1  0.4873850000000  0.5739660000000  0.4594020000000 1.0
C      1  0.4543620000000  0.5630820000000  0.5117320000000 1.0
C      1  0.5006060000000  0.5770210000000  0.5373720000000 1.0
C      1  0.4709120000000  0.4410720000000  0.5388340000000 1.0
C      1  0.5108060000000  0.4204160000000  0.5332550000000 1.0
C      1  0.5414060000000  0.4473170000000  0.4861990000000 1.0
C      1  0.4901740000000  0.4525910000000  0.4565340000000 1.0
C      1  0.4537900000000  0.4360580000000  0.4859240000000 1.0
C      1  0.4781430000000  0.5918190000000  0.4398300000000 1.0
C      1  0.4266350000000  0.5688810000000  0.5146670000000 1.0
C      1  0.5068580000000  0.6031330000000  0.5307360000000 1.0
C      1  0.5729580000000  0.5570720000000  0.5487920000000 1.0
C      1  0.5334980000000  0.6061080000000  0.4866850000000 1.0
C      1  0.5001080000000  0.5010910000000  0.4972400000000 1.0
C      1  0.4665500000000  0.6836380000000  0.4737060000000 1.0
C      1  0.4907110000000  0.6093820000000  0.4905900000000 1.0
C      1  0.4861200000000  0.4443690000000  0.4952500000000 1.0
C      1  0.4826580000000  0.6341340000000  0.4849620000000 1.0
C      1  0.4924100000000  0.4054810000000  0.5010650000000 1.0
C      1  0.4586250000000  0.7079960000000  0.4681670000000 1.0
C      1  0.5071400000000  0.4710410000000  0.4932550000000 1.0
C      1  0.4746040000000  0.6588860000000  0.4793340000000 1.0
C      1  0.4964310000000  0.3756880000000  0.5044770000000 1.0
C      1  0.4999380000000  0.3497010000000  0.5074530000000 1.0
C      1  0.5068340000000  0.5598310000000  0.5018580000000 1.0
C      1  0.5034210000000  0.3238950000000  0.5104090000000 1.0
C      1  0.4987650000000  0.5846290000000  0.4962180000000 1.0
END
