TITL C-2782228-2999-772 -0.00100573566129595 125000 -312.619262747647 0 0 56 (C2) n - 1
REM
REM in /home/nfs/bkarasulu/CARBON/AIRSS/Generating-Clusters/REBO/Higher-Symm/SD-CG/HFTN-CG
REM
REM
REM
REM
REM
REM ./C.cell (12c818d87b63d06a65506943cc24bca4)
REM
REM compiler GCC version 9.2.1 20190827 (Red Hat 9.2.1-1)
REM options -cpp -mtune=generic -march=x86-64 -g -O0 -fpre-include=/usr/include/finclude/math-vector-fortran.h
REM seed -1635445938 449613235 391924820 1816890099 -2011978043 987810931 779921525 660724470 1316485728 905100867 -1537252639 -2141766856 -409104833 -1913152009 1315716295 -1512792484 -1926140267 -597781566 -1816148468 1143905425 -1440839901 1501365006 -638436706 -1079545060 2015802086 1242813448 -511535662 1455734614 -1034161428 927651768 -314527080 -1473971041 1508624683
REM
CELL 1.54180   50.00000   50.00000   50.00000   90.00000   90.00000   90.00000
LATT -1
SFAC C  
C      1  0.4935490000000  0.5582470000000  0.5424870000000 1.0
C      1  0.5064440000000  0.4417440000000  0.5424760000000 1.0
C      1  0.4676010000000  0.5417210000000  0.4833170000000 1.0
C      1  0.5324020000000  0.4582820000000  0.4833130000000 1.0
C      1  0.4700640000000  0.4529980000000  0.4393760000000 1.0
C      1  0.5299460000000  0.5470150000000  0.4393910000000 1.0
C      1  0.5262040000000  0.5161770000000  0.5412950000000 1.0
C      1  0.4737890000000  0.4838140000000  0.5412870000000 1.0
C      1  0.5029630000000  0.4778970000000  0.5258700000000 1.0
C      1  0.4970330000000  0.5220980000000  0.5258740000000 1.0
C      1  0.4767400000000  0.5146780000000  0.5634100000000 1.0
C      1  0.5232490000000  0.4853080000000  0.5634110000000 1.0
C      1  0.4749400000000  0.5161990000000  0.5045530000000 1.0
C      1  0.5250590000000  0.4838000000000  0.5045540000000 1.0
C      1  0.4753840000000  0.4763430000000  0.5075500000000 1.0
C      1  0.5246140000000  0.5236550000000  0.5075600000000 1.0
C      1  0.5345320000000  0.5453100000000  0.4713940000000 1.0
C      1  0.4654730000000  0.4546960000000  0.4713790000000 1.0
C      1  0.5568790000000  0.4976480000000  0.4681750000000 1.0
C      1  0.4431260000000  0.5023590000000  0.4681660000000 1.0
C      1  0.5184820000000  0.5724810000000  0.5247000000000 1.0
C      1  0.4815140000000  0.4275130000000  0.5246810000000 1.0
C      1  0.4807610000000  0.5345290000000  0.4539420000000 1.0
C      1  0.5192470000000  0.4654810000000  0.4539380000000 1.0
C      1  0.4996590000000  0.4607040000000  0.4293700000000 1.0
C      1  0.5003540000000  0.5393110000000  0.4293780000000 1.0
C      1  0.5164890000000  0.5171390000000  0.4498520000000 1.0
C      1  0.4835190000000  0.4828720000000  0.4498460000000 1.0
C      1  0.4222380000000  0.4657060000000  0.4957870000000 1.0
C      1  0.5777630000000  0.5342950000000  0.4958080000000 1.0
C      1  0.5348360000000  0.4923900000000  0.4507330000000 1.0
C      1  0.4651730000000  0.5076200000000  0.4507290000000 1.0
C      1  0.5148520000000  0.5071100000000  0.4819560000000 1.0
C      1  0.4851510000000  0.4928940000000  0.4819520000000 1.0
C      1  0.5498640000000  0.5645160000000  0.5313680000000 1.0
C      1  0.4501300000000  0.4354770000000  0.5313460000000 1.0
C      1  0.4833750000000  0.5400320000000  0.5588820000000 1.0
C      1  0.5166150000000  0.4599560000000  0.5588770000000 1.0
C      1  0.4962740000000  0.5517810000000  0.5091940000000 1.0
C      1  0.5037240000000  0.4482170000000  0.5091840000000 1.0
C      1  0.5552270000000  0.5339450000000  0.5447020000000 1.0
C      1  0.4447650000000  0.4660460000000  0.5446850000000 1.0
C      1  0.4644050000000  0.4473340000000  0.5028240000000 1.0
C      1  0.5355950000000  0.5526650000000  0.5028410000000 1.0
C      1  0.5595140000000  0.5251110000000  0.4764320000000 1.0
C      1  0.4404900000000  0.4748940000000  0.4764160000000 1.0
C      1  0.4435670000000  0.5150080000000  0.5167960000000 1.0
C      1  0.5564300000000  0.4849890000000  0.5168020000000 1.0
C      1  0.4399700000000  0.5238950000000  0.4875590000000 1.0
C      1  0.5600320000000  0.4761080000000  0.4875640000000 1.0
C      1  0.4987160000000  0.4533580000000  0.4785540000000 1.0
C      1  0.5012880000000  0.5466470000000  0.4785640000000 1.0
C      1  0.4440650000000  0.4990610000000  0.5398980000000 1.0
C      1  0.5559280000000  0.5009310000000  0.5399080000000 1.0
C      1  0.5750580000000  0.5453220000000  0.5200600000000 1.0
C      1  0.4249390000000  0.4546740000000  0.5200370000000 1.0
END
