TITL C-2782238-9940-1085 -0.00255183100442971 125000 -728.634544689151 0 0 129 (C1) n - 1
REM
REM in /home/nfs/bkarasulu/CARBON/AIRSS/Generating-Clusters/REBO/Higher-Symm/SD-CG/HFTN-CG
REM
REM
REM
REM
REM
REM ./C.cell (12c818d87b63d06a65506943cc24bca4)
REM
REM compiler GCC version 9.2.1 20190827 (Red Hat 9.2.1-1)
REM options -cpp -mtune=generic -march=x86-64 -g -O0 -fpre-include=/usr/include/finclude/math-vector-fortran.h
REM seed 1297635907 261844766 -345980389 1530886640 396569551 -959156087 -1522623169 1501726574 -1627341115 996297620 1732874327 -2002976611 1172610545 1353280210 -887374525 -561577452 1590910594 323468606 -1499010197 2141834648 266788255 1836928887 296656948 -1911363261 285147817 -1266471506 -178875950 -431882782 578250052 178085103 -2130796602 809101615 1298747072
REM
CELL 1.54180   50.00000   50.00000   50.00000   90.00000   90.00000   90.00000
LATT -1
SFAC C  
C      1  0.4744580000000  0.5451080000000  0.4285700000000 1.0
C      1  0.5285460000000  0.5368210000000  0.4252170000000 1.0
C      1  0.5461990000000  0.4759830000000  0.4270950000000 1.0
C      1  0.4929440000000  0.4515800000000  0.4229660000000 1.0
C      1  0.4492280000000  0.4865420000000  0.4290670000000 1.0
C      1  0.4712770000000  0.5430540000000  0.5686210000000 1.0
C      1  0.5353170000000  0.5349960000000  0.5675180000000 1.0
C      1  0.5478670000000  0.4776880000000  0.5713100000000 1.0
C      1  0.4952100000000  0.4522690000000  0.5758830000000 1.0
C      1  0.4459150000000  0.4892110000000  0.5698430000000 1.0
C      1  0.4277110000000  0.5569450000000  0.4864000000000 1.0
C      1  0.5363520000000  0.5958440000000  0.4794160000000 1.0
C      1  0.5910770000000  0.5008850000000  0.4841400000000 1.0
C      1  0.5226470000000  0.4126930000000  0.4848830000000 1.0
C      1  0.4205310000000  0.4380490000000  0.4830250000000 1.0
C      1  0.4274610000000  0.5571910000000  0.5159920000000 1.0
C      1  0.5348890000000  0.5913360000000  0.5121200000000 1.0
C      1  0.5947230000000  0.4944120000000  0.5135150000000 1.0
C      1  0.5226210000000  0.4133750000000  0.5140450000000 1.0
C      1  0.4221870000000  0.4358620000000  0.5163990000000 1.0
C      1  0.4763490000000  0.4121310000000  0.4477230000000 1.0
C      1  0.4122090000000  0.4843320000000  0.4439360000000 1.0
C      1  0.4620760000000  0.5851460000000  0.4472230000000 1.0
C      1  0.5689090000000  0.5585110000000  0.4442970000000 1.0
C      1  0.5775090000000  0.4541430000000  0.4517950000000 1.0
C      1  0.4776450000000  0.4120270000000  0.5527170000000 1.0
C      1  0.4041130000000  0.4836450000000  0.5500190000000 1.0
C      1  0.4618240000000  0.5809260000000  0.5568080000000 1.0
C      1  0.5702980000000  0.5626260000000  0.5517270000000 1.0
C      1  0.5821290000000  0.4521080000000  0.5544890000000 1.0
C      1  0.5453880000000  0.5205090000000  0.4958060000000 1.0
C      1  0.5384520000000  0.4625570000000  0.4858990000000 1.0
C      1  0.4622580000000  0.4673410000000  0.4803190000000 1.0
C      1  0.4441200000000  0.5139560000000  0.4850080000000 1.0
C      1  0.5076610000000  0.5504370000000  0.4858140000000 1.0
C      1  0.5485560000000  0.5154330000000  0.5266660000000 1.0
C      1  0.5428510000000  0.4688410000000  0.5158370000000 1.0
C      1  0.4666460000000  0.4633780000000  0.5132110000000 1.0
C      1  0.4412390000000  0.5130680000000  0.5156430000000 1.0
C      1  0.5038600000000  0.5465000000000  0.5190480000000 1.0
C      1  0.4543700000000  0.5398480000000  0.5281370000000 1.0
C      1  0.5331930000000  0.5567700000000  0.5158050000000 1.0
C      1  0.5628530000000  0.4885450000000  0.5236670000000 1.0
C      1  0.5118590000000  0.4431130000000  0.5269250000000 1.0
C      1  0.4356560000000  0.4663350000000  0.5152260000000 1.0
C      1  0.4563030000000  0.5422880000000  0.4746320000000 1.0
C      1  0.5373330000000  0.5624950000000  0.4846610000000 1.0
C      1  0.5578910000000  0.4961070000000  0.4774290000000 1.0
C      1  0.5143100000000  0.4434050000000  0.4738020000000 1.0
C      1  0.4325480000000  0.4696230000000  0.4756840000000 1.0
C      1  0.4877070000000  0.5719160000000  0.4397870000000 1.0
C      1  0.5598470000000  0.5316030000000  0.4333410000000 1.0
C      1  0.5512140000000  0.4474950000000  0.4399960000000 1.0
C      1  0.4664500000000  0.4368390000000  0.4334030000000 1.0
C      1  0.4284040000000  0.5096760000000  0.4401380000000 1.0
C      1  0.4895440000000  0.5694970000000  0.5572840000000 1.0
C      1  0.5660160000000  0.5340580000000  0.5582630000000 1.0
C      1  0.5534010000000  0.4477250000000  0.5619390000000 1.0
C      1  0.4685390000000  0.4379890000000  0.5655260000000 1.0
C      1  0.4217240000000  0.5062000000000  0.5576810000000 1.0
C      1  0.5472570000000  0.5735480000000  0.4556100000000 1.0
C      1  0.5811780000000  0.4813000000000  0.4585210000000 1.0
C      1  0.5021170000000  0.4162240000000  0.4577850000000 1.0
C      1  0.4130470000000  0.4542330000000  0.4537380000000 1.0
C      1  0.4426980000000  0.5668500000000  0.4572500000000 1.0
C      1  0.5474550000000  0.5751490000000  0.5395330000000 1.0
C      1  0.5876370000000  0.4778100000000  0.5427780000000 1.0
C      1  0.5045610000000  0.4142250000000  0.5431400000000 1.0
C      1  0.4178750000000  0.4591020000000  0.5414970000000 1.0
C      1  0.4418980000000  0.5639340000000  0.5463810000000 1.0
C      1  0.5170940000000  0.4748390000000  0.5837020000000 1.0
C      1  0.4749850000000  0.4783110000000  0.5838180000000 1.0
C      1  0.4668160000000  0.5120330000000  0.5802450000000 1.0
C      1  0.5028010000000  0.5346300000000  0.5775830000000 1.0
C      1  0.5312360000000  0.5061290000000  0.5791950000000 1.0
C      1  0.5167870000000  0.4726540000000  0.4132820000000 1.0
C      1  0.4777730000000  0.4798310000000  0.4132500000000 1.0
C      1  0.4704580000000  0.5120340000000  0.4215710000000 1.0
C      1  0.4991480000000  0.5288230000000  0.4138680000000 1.0
C      1  0.5302920000000  0.5043030000000  0.4167990000000 1.0
C      1  0.5870420000000  0.5172500000000  0.5370890000000 1.0
C      1  0.5427980000000  0.4246350000000  0.5395010000000 1.0
C      1  0.4497280000000  0.4356330000000  0.5365320000000 1.0
C      1  0.4163540000000  0.5342660000000  0.5386320000000 1.0
C      1  0.5090000000000  0.5835500000000  0.5328060000000 1.0
C      1  0.5813850000000  0.5216420000000  0.4582700000000 1.0
C      1  0.5415000000000  0.4195450000000  0.4568990000000 1.0
C      1  0.4471900000000  0.4352300000000  0.4619840000000 1.0
C      1  0.4194400000000  0.5347030000000  0.4615450000000 1.0
C      1  0.5100400000000  0.5863530000000  0.4612670000000 1.0
C      1  0.4427690000000  0.5397290000000  0.4371750000000 1.0
C      1  0.5210080000000  0.5647350000000  0.4374750000000 1.0
C      1  0.5667280000000  0.4999220000000  0.4360600000000 1.0
C      1  0.5198500000000  0.4348200000000  0.4353010000000 1.0
C      1  0.4421210000000  0.4585900000000  0.4374890000000 1.0
C      1  0.4383990000000  0.5352500000000  0.5644070000000 1.0
C      1  0.5218530000000  0.5624040000000  0.5562890000000 1.0
C      1  0.5700990000000  0.5003100000000  0.5611950000000 1.0
C      1  0.5214960000000  0.4354830000000  0.5638740000000 1.0
C      1  0.4437210000000  0.4587900000000  0.5610220000000 1.0
C      1  0.4102760000000  0.5162280000000  0.4864980000000 1.0
C      1  0.4864500000000  0.5750020000000  0.4796350000000 1.0
C      1  0.5719000000000  0.5359730000000  0.4845510000000 1.0
C      1  0.5553300000000  0.4352080000000  0.4800870000000 1.0
C      1  0.4705210000000  0.4359320000000  0.4841640000000 1.0
C      1  0.4077840000000  0.5095450000000  0.5197680000000 1.0
C      1  0.4847640000000  0.5723740000000  0.5134920000000 1.0
C      1  0.5713350000000  0.5396160000000  0.5190540000000 1.0
C      1  0.5537920000000  0.4389490000000  0.5140990000000 1.0
C      1  0.4764290000000  0.4324800000000  0.5183130000000 1.0
C      1  0.5258680000000  0.5027420000000  0.4760900000000 1.0
C      1  0.5107060000000  0.4759160000000  0.4725960000000 1.0
C      1  0.4812920000000  0.4844260000000  0.4664140000000 1.0
C      1  0.4740820000000  0.5152140000000  0.4723330000000 1.0
C      1  0.5042230000000  0.5256910000000  0.4701180000000 1.0
C      1  0.5240570000000  0.5052240000000  0.5391910000000 1.0
C      1  0.5144910000000  0.4739770000000  0.5299190000000 1.0
C      1  0.4822810000000  0.4818200000000  0.5300760000000 1.0
C      1  0.4700920000000  0.5111280000000  0.5306790000000 1.0
C      1  0.4984380000000  0.5247770000000  0.5359280000000 1.0
C      1  0.4183810000000  0.4860580000000  0.4975260000000 1.0
C      1  0.5803380000000  0.5634890000000  0.4994900000000 1.0
C      1  0.4593260000000  0.5815190000000  0.4958960000000 1.0
C      1  0.5806540000000  0.4285900000000  0.4989380000000 1.0
C      1  0.4846310000000  0.4097850000000  0.4967880000000 1.0
C      1  0.5011730000000  0.4992510000000  0.3997290000000 1.0
C      1  0.4985120000000  0.5032770000000  0.5909750000000 1.0
C      1  0.5004270000000  0.5031030000000  0.4453620000000 1.0
C      1  0.4968830000000  0.4975920000000  0.5567680000000 1.0
END
