TITL C-2782226-7400-475 0.0180160057934454 125000 -628.116923751034 0 0 112 (C1) n - 1
REM
REM in /home/nfs/bkarasulu/CARBON/AIRSS/Generating-Clusters/REBO/Higher-Symm/SD-CG/HFTN-CG
REM
REM
REM
REM
REM
REM ./C.cell (12c818d87b63d06a65506943cc24bca4)
REM
REM compiler GCC version 9.2.1 20190827 (Red Hat 9.2.1-1)
REM options -cpp -mtune=generic -march=x86-64 -g -O0 -fpre-include=/usr/include/finclude/math-vector-fortran.h
REM seed -907007332 -2132704751 1401032221 -1568317438 1308696678 -246291755 730486913 -1025498743 508224653 -1848040229 630386768 -429504365 -1942016452 -379078095 -1869132066 -1298926437 -1784149681 1599262600 -395507699 -88727672 -356171526 -1826094896 -2089174641 -1693386781 844626542 -1915443714 1481708311 -184104980 412029179 1186196266 235742500 1606226945 902049869
REM
CELL 1.54180   50.00000   50.00000   50.00000   90.00000   90.00000   90.00000
LATT -1
SFAC C  
C      1  0.5060080000000  0.5832950000000  0.5353770000000 1.0
C      1  0.5347730000000  0.5017450000000  0.5831930000000 1.0
C      1  0.5826140000000  0.5383140000000  0.5063910000000 1.0
C      1  0.4873440000000  0.4159000000000  0.5361050000000 1.0
C      1  0.5029260000000  0.5830700000000  0.4613670000000 1.0
C      1  0.5102110000000  0.4246260000000  0.4583760000000 1.0
C      1  0.4568550000000  0.4876780000000  0.5809030000000 1.0
C      1  0.4601940000000  0.5022130000000  0.4225520000000 1.0
C      1  0.5421700000000  0.4912370000000  0.4176550000000 1.0
C      1  0.4236060000000  0.4611690000000  0.5101300000000 1.0
C      1  0.4181680000000  0.5375400000000  0.4920060000000 1.0
C      1  0.5778620000000  0.4606850000000  0.4947110000000 1.0
C      1  0.4620510000000  0.5201360000000  0.5850570000000 1.0
C      1  0.5854610000000  0.4572030000000  0.5265580000000 1.0
C      1  0.5280470000000  0.5970040000000  0.4564000000000 1.0
C      1  0.5508980000000  0.4758030000000  0.5908030000000 1.0
C      1  0.5449320000000  0.5256330000000  0.4162160000000 1.0
C      1  0.4503610000000  0.4754120000000  0.4092970000000 1.0
C      1  0.4124000000000  0.5482950000000  0.5224250000000 1.0
C      1  0.4118470000000  0.4544390000000  0.4794840000000 1.0
C      1  0.5849870000000  0.5466330000000  0.4766460000000 1.0
C      1  0.4785090000000  0.4160300000000  0.4532160000000 1.0
C      1  0.4758560000000  0.5873930000000  0.5475670000000 1.0
C      1  0.5121880000000  0.4170310000000  0.5496970000000 1.0
C      1  0.4311930000000  0.4923780000000  0.5109860000000 1.0
C      1  0.5108170000000  0.4285310000000  0.4905140000000 1.0
C      1  0.4863140000000  0.5096210000000  0.4297930000000 1.0
C      1  0.5781570000000  0.5110010000000  0.5116280000000 1.0
C      1  0.5759270000000  0.4923590000000  0.4900920000000 1.0
C      1  0.4261330000000  0.5104480000000  0.4894740000000 1.0
C      1  0.4919480000000  0.5779990000000  0.4871880000000 1.0
C      1  0.4875060000000  0.4262020000000  0.5076870000000 1.0
C      1  0.5107190000000  0.5764280000000  0.5085470000000 1.0
C      1  0.5107430000000  0.4899610000000  0.4301070000000 1.0
C      1  0.5086700000000  0.5081210000000  0.5765590000000 1.0
C      1  0.4891420000000  0.4870550000000  0.5754640000000 1.0
C      1  0.5333020000000  0.5483050000000  0.5592340000000 1.0
C      1  0.5592640000000  0.5325530000000  0.5504010000000 1.0
C      1  0.5490010000000  0.5573210000000  0.5330750000000 1.0
C      1  0.4608870000000  0.4614470000000  0.5636590000000 1.0
C      1  0.4625250000000  0.5473090000000  0.4408900000000 1.0
C      1  0.5408470000000  0.4658040000000  0.4402040000000 1.0
C      1  0.4416790000000  0.4629960000000  0.5356320000000 1.0
C      1  0.4365460000000  0.5340370000000  0.4522210000000 1.0
C      1  0.5611140000000  0.4632370000000  0.4675540000000 1.0
C      1  0.4652940000000  0.4387740000000  0.5384340000000 1.0
C      1  0.4471990000000  0.5623530000000  0.4638930000000 1.0
C      1  0.5368870000000  0.4401870000000  0.4626440000000 1.0
C      1  0.4515440000000  0.4946010000000  0.5363870000000 1.0
C      1  0.5371070000000  0.4472100000000  0.4951800000000 1.0
C      1  0.4892040000000  0.5340610000000  0.4485100000000 1.0
C      1  0.5585180000000  0.5058110000000  0.5340920000000 1.0
C      1  0.5535980000000  0.4954900000000  0.4669100000000 1.0
C      1  0.4397140000000  0.5046960000000  0.4613390000000 1.0
C      1  0.4651440000000  0.5636750000000  0.4897730000000 1.0
C      1  0.4623420000000  0.4467570000000  0.5054990000000 1.0
C      1  0.5325200000000  0.5556610000000  0.5063910000000 1.0
C      1  0.5084000000000  0.4640180000000  0.4480620000000 1.0
C      1  0.5065720000000  0.5318580000000  0.5569730000000 1.0
C      1  0.4933550000000  0.4601330000000  0.5583770000000 1.0
C      1  0.4971380000000  0.5643760000000  0.5621070000000 1.0
C      1  0.5629650000000  0.4958100000000  0.5657620000000 1.0
C      1  0.5616900000000  0.5628550000000  0.4949300000000 1.0
C      1  0.5124750000000  0.4390630000000  0.5685410000000 1.0
C      1  0.5086930000000  0.5558470000000  0.4447290000000 1.0
C      1  0.4929190000000  0.4394110000000  0.4330540000000 1.0
C      1  0.4401620000000  0.5091810000000  0.5614100000000 1.0
C      1  0.4334950000000  0.4860830000000  0.4371060000000 1.0
C      1  0.5634670000000  0.5065960000000  0.4375590000000 1.0
C      1  0.4331940000000  0.4327330000000  0.4948550000000 1.0
C      1  0.4336060000000  0.5661630000000  0.5024830000000 1.0
C      1  0.5620820000000  0.4367810000000  0.5125810000000 1.0
C      1  0.5317780000000  0.5010330000000  0.5195990000000 1.0
C      1  0.5198130000000  0.5283100000000  0.5021990000000 1.0
C      1  0.5034130000000  0.5168030000000  0.5297960000000 1.0
C      1  0.4813610000000  0.4963720000000  0.5274680000000 1.0
C      1  0.4647380000000  0.5020140000000  0.4835250000000 1.0
C      1  0.5235990000000  0.5041080000000  0.4805900000000 1.0
C      1  0.4740990000000  0.4761890000000  0.4995440000000 1.0
C      1  0.4653410000000  0.5318490000000  0.5000330000000 1.0
C      1  0.5280750000000  0.4756450000000  0.4998030000000 1.0
C      1  0.4946690000000  0.4655340000000  0.5258570000000 1.0
C      1  0.4905310000000  0.5229190000000  0.4784020000000 1.0
C      1  0.5036430000000  0.4768680000000  0.4761620000000 1.0
C      1  0.5338990000000  0.5587860000000  0.4665980000000 1.0
C      1  0.4672490000000  0.5383470000000  0.5574900000000 1.0
C      1  0.5701230000000  0.4577930000000  0.5559740000000 1.0
C      1  0.4734480000000  0.4469150000000  0.4670870000000 1.0
C      1  0.4736400000000  0.5575130000000  0.5309430000000 1.0
C      1  0.5215180000000  0.4511790000000  0.5315240000000 1.0
C      1  0.5374770000000  0.4673760000000  0.5544270000000 1.0
C      1  0.5252320000000  0.5167720000000  0.4427740000000 1.0
C      1  0.4692930000000  0.4695230000000  0.4436370000000 1.0
C      1  0.4439070000000  0.5329660000000  0.5220630000000 1.0
C      1  0.4439160000000  0.4629270000000  0.4712990000000 1.0
C      1  0.5435380000000  0.5331930000000  0.4593780000000 1.0
C      1  0.4228440000000  0.5308390000000  0.5494890000000 1.0
C      1  0.5348880000000  0.4202110000000  0.5245660000000 1.0
C      1  0.5364350000000  0.5553770000000  0.4268690000000 1.0
C      1  0.5891110000000  0.4836860000000  0.5476980000000 1.0
C      1  0.5743480000000  0.5286510000000  0.4587620000000 1.0
C      1  0.4143560000000  0.4612210000000  0.4473290000000 1.0
C      1  0.4538440000000  0.5838840000000  0.5217590000000 1.0
C      1  0.4549780000000  0.4203120000000  0.4764950000000 1.0
C      1  0.5560030000000  0.5836120000000  0.4703890000000 1.0
C      1  0.4715210000000  0.4538950000000  0.4134110000000 1.0
C      1  0.4835250000000  0.5458230000000  0.5863740000000 1.0
C      1  0.5354040000000  0.4505430000000  0.5850010000000 1.0
C      1  0.4423840000000  0.5578280000000  0.5467460000000 1.0
C      1  0.5475130000000  0.4357100000000  0.5499140000000 1.0
C      1  0.5488730000000  0.5805630000000  0.4368420000000 1.0
C      1  0.4437300000000  0.4478630000000  0.4403350000000 1.0
END
