TITL C-2782238-9940-487 -0.00777858361818569 125000 -1109.24072496821 0 0 189 (C1) n - 1
REM
REM in /home/nfs/bkarasulu/CARBON/AIRSS/Generating-Clusters/REBO/Higher-Symm/SD-CG/HFTN-CG
REM
REM
REM
REM
REM
REM ./C.cell (12c818d87b63d06a65506943cc24bca4)
REM
REM compiler GCC version 9.2.1 20190827 (Red Hat 9.2.1-1)
REM options -cpp -mtune=generic -march=x86-64 -g -O0 -fpre-include=/usr/include/finclude/math-vector-fortran.h
REM seed -1714751832 294339489 440871190 -1354251814 -690998412 -86685021 -1702781346 690486476 -611568882 408182916 -1514358494 -2028559786 311543860 -571485312 1540757145 -1682227829 243865670 -626986306 1461732861 -1423403940 -51932360 823380425 1662111761 396141328 -901376339 1264812984 495542786 -1477195963 -217982404 1741427402 2104152289 28614901 -1272667998
REM
CELL 1.54180   50.00000   50.00000   50.00000   90.00000   90.00000   90.00000
LATT -1
SFAC C  
C      1  0.4833090000000  0.5245980000000  0.4734000000000 1.0
C      1  0.4264650000000  0.5370890000000  0.4324090000000 1.0
C      1  0.4913650000000  0.5392530000000  0.3842750000000 1.0
C      1  0.4741960000000  0.4135200000000  0.4430440000000 1.0
C      1  0.4930950000000  0.4012770000000  0.4614490000000 1.0
C      1  0.4388520000000  0.5584080000000  0.5385550000000 1.0
C      1  0.5114850000000  0.4898120000000  0.6050360000000 1.0
C      1  0.5542500000000  0.4696360000000  0.4371150000000 1.0
C      1  0.4592060000000  0.5518640000000  0.4499580000000 1.0
C      1  0.4867850000000  0.4170420000000  0.5522000000000 1.0
C      1  0.4394130000000  0.4995220000000  0.4708830000000 1.0
C      1  0.5455510000000  0.3961790000000  0.5370110000000 1.0
C      1  0.4328550000000  0.5693770000000  0.5146440000000 1.0
C      1  0.4744190000000  0.4485040000000  0.5473070000000 1.0
C      1  0.5668540000000  0.6197810000000  0.4543390000000 1.0
C      1  0.5904880000000  0.5319200000000  0.5410460000000 1.0
C      1  0.4854090000000  0.4442480000000  0.4798560000000 1.0
C      1  0.5189190000000  0.4338400000000  0.4245540000000 1.0
C      1  0.5167460000000  0.4040750000000  0.5444400000000 1.0
C      1  0.5093060000000  0.5532140000000  0.4351170000000 1.0
C      1  0.4294030000000  0.4790310000000  0.6111860000000 1.0
C      1  0.5149450000000  0.5001880000000  0.4735320000000 1.0
C      1  0.5014080000000  0.5834920000000  0.4232530000000 1.0
C      1  0.4202640000000  0.4942120000000  0.5890770000000 1.0
C      1  0.4559500000000  0.5393060000000  0.5561050000000 1.0
C      1  0.4134460000000  0.4708390000000  0.4806620000000 1.0
C      1  0.5297510000000  0.4491250000000  0.5524790000000 1.0
C      1  0.5581920000000  0.5074740000000  0.5188300000000 1.0
C      1  0.4409440000000  0.4325010000000  0.5114240000000 1.0
C      1  0.4716960000000  0.4237130000000  0.5028240000000 1.0
C      1  0.5860110000000  0.5052890000000  0.5537070000000 1.0
C      1  0.5076120000000  0.4909760000000  0.3874070000000 1.0
C      1  0.4591550000000  0.4890500000000  0.3892890000000 1.0
C      1  0.5156800000000  0.5617770000000  0.4956290000000 1.0
C      1  0.5066700000000  0.5304800000000  0.5621420000000 1.0
C      1  0.4486650000000  0.4103480000000  0.4562880000000 1.0
C      1  0.4000220000000  0.4931890000000  0.4711300000000 1.0
C      1  0.4397680000000  0.5130530000000  0.4145960000000 1.0
C      1  0.4232720000000  0.5408760000000  0.4867720000000 1.0
C      1  0.4495220000000  0.5989770000000  0.4713980000000 1.0
C      1  0.5281270000000  0.4622650000000  0.6051600000000 1.0
C      1  0.5359560000000  0.5707430000000  0.4723890000000 1.0
C      1  0.4619250000000  0.5234840000000  0.3908080000000 1.0
C      1  0.5033670000000  0.4688410000000  0.4759310000000 1.0
C      1  0.6298360000000  0.4487110000000  0.5261200000000 1.0
C      1  0.4320620000000  0.4605560000000  0.5567230000000 1.0
C      1  0.4779850000000  0.5053320000000  0.5839120000000 1.0
C      1  0.4857370000000  0.5142450000000  0.5450540000000 1.0
C      1  0.4445420000000  0.3991340000000  0.5340100000000 1.0
C      1  0.5356260000000  0.5236210000000  0.4449250000000 1.0
C      1  0.5943280000000  0.5342590000000  0.4855690000000 1.0
C      1  0.5439280000000  0.5821160000000  0.5518680000000 1.0
C      1  0.4268500000000  0.5816450000000  0.4839260000000 1.0
C      1  0.4350420000000  0.4657590000000  0.5066160000000 1.0
C      1  0.5285050000000  0.6016090000000  0.5049850000000 1.0
C      1  0.5808840000000  0.5532480000000  0.5571270000000 1.0
C      1  0.4675900000000  0.4860690000000  0.6036700000000 1.0
C      1  0.5932370000000  0.5658200000000  0.4974430000000 1.0
C      1  0.4819280000000  0.4817310000000  0.5117830000000 1.0
C      1  0.5745680000000  0.5096370000000  0.4102030000000 1.0
C      1  0.5016620000000  0.5511010000000  0.4664630000000 1.0
C      1  0.5214930000000  0.5289210000000  0.4156470000000 1.0
C      1  0.5054880000000  0.4774310000000  0.4443820000000 1.0
C      1  0.5826720000000  0.4474620000000  0.5707940000000 1.0
C      1  0.4571220000000  0.5081120000000  0.5598360000000 1.0
C      1  0.4371870000000  0.4415860000000  0.5799690000000 1.0
C      1  0.5214650000000  0.5434870000000  0.3772070000000 1.0
C      1  0.5529440000000  0.4611130000000  0.5936160000000 1.0
C      1  0.4086810000000  0.4369820000000  0.5011330000000 1.0
C      1  0.5652870000000  0.4444360000000  0.4434120000000 1.0
C      1  0.5532310000000  0.4507640000000  0.4935050000000 1.0
C      1  0.5325650000000  0.5418600000000  0.5521010000000 1.0
C      1  0.4932110000000  0.5925510000000  0.5371480000000 1.0
C      1  0.4557920000000  0.5853540000000  0.4438310000000 1.0
C      1  0.5256180000000  0.4458790000000  0.5130770000000 1.0
C      1  0.5925560000000  0.4751170000000  0.5581070000000 1.0
C      1  0.5575980000000  0.4113350000000  0.4948710000000 1.0
C      1  0.5713900000000  0.5502620000000  0.4350900000000 1.0
C      1  0.4357180000000  0.5725280000000  0.5652560000000 1.0
C      1  0.4891370000000  0.5235090000000  0.5157600000000 1.0
C      1  0.4508050000000  0.4573340000000  0.6022760000000 1.0
C      1  0.4326280000000  0.5049350000000  0.5012930000000 1.0
C      1  0.5306780000000  0.4971860000000  0.5101230000000 1.0
C      1  0.5902270000000  0.4406200000000  0.4554480000000 1.0
C      1  0.5563770000000  0.5695210000000  0.4472610000000 1.0
C      1  0.4329420000000  0.4809040000000  0.4056520000000 1.0
C      1  0.4972990000000  0.5847770000000  0.4685960000000 1.0
C      1  0.4850150000000  0.4954950000000  0.4067430000000 1.0
C      1  0.5070790000000  0.4196430000000  0.4848400000000 1.0
C      1  0.4922910000000  0.5292250000000  0.5992190000000 1.0
C      1  0.4564630000000  0.4942420000000  0.4350870000000 1.0
C      1  0.4399450000000  0.4552550000000  0.4269360000000 1.0
C      1  0.5661510000000  0.5377830000000  0.4095450000000 1.0
C      1  0.4968800000000  0.5607940000000  0.4033380000000 1.0
C      1  0.5696080000000  0.5441480000000  0.5825860000000 1.0
C      1  0.5566410000000  0.4355480000000  0.5787110000000 1.0
C      1  0.5096460000000  0.4997310000000  0.5735210000000 1.0
C      1  0.5356640000000  0.4263610000000  0.4769330000000 1.0
C      1  0.5219900000000  0.5881060000000  0.5304710000000 1.0
C      1  0.5250500000000  0.5210950000000  0.6034210000000 1.0
C      1  0.4856070000000  0.5941350000000  0.4440000000000 1.0
C      1  0.5591740000000  0.4463260000000  0.5386210000000 1.0
C      1  0.4832070000000  0.5509450000000  0.5619440000000 1.0
C      1  0.4090670000000  0.6055320000000  0.5382620000000 1.0
C      1  0.5467010000000  0.5448440000000  0.3891060000000 1.0
C      1  0.5497450000000  0.3896950000000  0.5097970000000 1.0
C      1  0.4712940000000  0.6080690000000  0.4881200000000 1.0
C      1  0.5764230000000  0.4814140000000  0.5221130000000 1.0
C      1  0.4023740000000  0.4657710000000  0.5181790000000 1.0
C      1  0.4341920000000  0.4880890000000  0.5640430000000 1.0
C      1  0.4340460000000  0.4297460000000  0.5423130000000 1.0
C      1  0.5363000000000  0.5646070000000  0.5744090000000 1.0
C      1  0.4841620000000  0.3877100000000  0.4914360000000 1.0
C      1  0.5053530000000  0.6055500000000  0.4887120000000 1.0
C      1  0.4836000000000  0.5651920000000  0.5005780000000 1.0
C      1  0.5546800000000  0.5959960000000  0.4969630000000 1.0
C      1  0.3985560000000  0.5213480000000  0.4886810000000 1.0
C      1  0.5255970000000  0.4232550000000  0.5715570000000 1.0
C      1  0.5675950000000  0.4814420000000  0.4900100000000 1.0
C      1  0.5132050000000  0.5204590000000  0.4995550000000 1.0
C      1  0.5643440000000  0.4145800000000  0.5457920000000 1.0
C      1  0.5795290000000  0.5317700000000  0.5127300000000 1.0
C      1  0.4896040000000  0.4636810000000  0.6090560000000 1.0
C      1  0.5221410000000  0.4807070000000  0.5522420000000 1.0
C      1  0.5310740000000  0.4691540000000  0.3955240000000 1.0
C      1  0.5884230000000  0.5331440000000  0.4534020000000 1.0
C      1  0.4649860000000  0.5432050000000  0.4188490000000 1.0
C      1  0.5025560000000  0.5153570000000  0.4478820000000 1.0
C      1  0.4396530000000  0.5663390000000  0.4204950000000 1.0
C      1  0.4443340000000  0.5315770000000  0.5094790000000 1.0
C      1  0.4773310000000  0.5906990000000  0.5129880000000 1.0
C      1  0.4764190000000  0.4489940000000  0.5808720000000 1.0
C      1  0.5551620000000  0.5195530000000  0.5548840000000 1.0
C      1  0.4701880000000  0.5417380000000  0.5076770000000 1.0
C      1  0.5268810000000  0.4652960000000  0.4273930000000 1.0
C      1  0.4622800000000  0.4642470000000  0.5226050000000 1.0
C      1  0.4057630000000  0.4753170000000  0.4224180000000 1.0
C      1  0.4213960000000  0.4811900000000  0.6374620000000 1.0
C      1  0.4888470000000  0.5221960000000  0.4203150000000 1.0
C      1  0.5423440000000  0.5495520000000  0.5995160000000 1.0
C      1  0.5482150000000  0.5382070000000  0.5068790000000 1.0
C      1  0.5741310000000  0.4337400000000  0.5118590000000 1.0
C      1  0.5301630000000  0.5088890000000  0.3948430000000 1.0
C      1  0.4309600000000  0.4352500000000  0.4522040000000 1.0
C      1  0.6072490000000  0.4401550000000  0.4763120000000 1.0
C      1  0.4988670000000  0.4069640000000  0.5155090000000 1.0
C      1  0.4802570000000  0.4733510000000  0.4286810000000 1.0
C      1  0.5628660000000  0.4840990000000  0.5779230000000 1.0
C      1  0.5545090000000  0.5137040000000  0.5878410000000 1.0
C      1  0.6030620000000  0.4410530000000  0.5065860000000 1.0
C      1  0.5027330000000  0.4503690000000  0.3994840000000 1.0
C      1  0.4093100000000  0.4425430000000  0.4708790000000 1.0
C      1  0.5547260000000  0.4792000000000  0.5468020000000 1.0
C      1  0.6029990000000  0.4666230000000  0.5288000000000 1.0
C      1  0.4531790000000  0.5603450000000  0.5864310000000 1.0
C      1  0.5580390000000  0.4979070000000  0.4446320000000 1.0
C      1  0.4535790000000  0.4015190000000  0.4835950000000 1.0
C      1  0.4047710000000  0.4957100000000  0.5106830000000 1.0
C      1  0.4425250000000  0.4136960000000  0.5710530000000 1.0
C      1  0.4073470000000  0.5220730000000  0.4554330000000 1.0
C      1  0.4789320000000  0.4608810000000  0.3883160000000 1.0
C      1  0.4670430000000  0.4017500000000  0.5694420000000 1.0
C      1  0.4277240000000  0.4815650000000  0.4451140000000 1.0
C      1  0.4993250000000  0.4892180000000  0.5331360000000 1.0
C      1  0.5578480000000  0.5966670000000  0.4658650000000 1.0
C      1  0.5889440000000  0.5040770000000  0.4387220000000 1.0
C      1  0.4755940000000  0.5510220000000  0.6012060000000 1.0
C      1  0.5369590000000  0.5330870000000  0.4776500000000 1.0
C      1  0.4269280000000  0.5583040000000  0.4595800000000 1.0
C      1  0.4625800000000  0.4778930000000  0.4642500000000 1.0
C      1  0.4852960000000  0.5779710000000  0.5597580000000 1.0
C      1  0.4578230000000  0.3877540000000  0.5134180000000 1.0
C      1  0.4764150000000  0.4957480000000  0.4875260000000 1.0
C      1  0.5304870000000  0.5555900000000  0.5251360000000 1.0
C      1  0.4145380000000  0.5946420000000  0.5129320000000 1.0
C      1  0.5409010000000  0.4276710000000  0.4463340000000 1.0
C      1  0.5209150000000  0.4725320000000  0.5015640000000 1.0
C      1  0.5875100000000  0.5033030000000  0.4728420000000 1.0
C      1  0.4512300000000  0.5287440000000  0.4703450000000 1.0
C      1  0.4620260000000  0.4479100000000  0.4593790000000 1.0
C      1  0.4191610000000  0.5957550000000  0.5623430000000 1.0
C      1  0.5738540000000  0.5809610000000  0.5125510000000 1.0
C      1  0.5551650000000  0.4933720000000  0.3984010000000 1.0
C      1  0.5044930000000  0.4408090000000  0.5355140000000 1.0
C      1  0.5479190000000  0.5003520000000  0.4743490000000 1.0
C      1  0.4713760000000  0.4422340000000  0.4272990000000 1.0
C      1  0.4017200000000  0.5139780000000  0.5908290000000 1.0
C      1  0.5693660000000  0.5751390000000  0.5412170000000 1.0
C      1  0.5067500000000  0.4388810000000  0.5927800000000 1.0
END
