TITL C-2782234-8014-620 -1.28874321425895e-07 125000 -25.1356698579083 0 0 5 (D(inf)h) n - 1
REM
REM in /home/nfs/bkarasulu/CARBON/AIRSS/Generating-Clusters/REBO/Higher-Symm/SD-CG/HFTN-CG
REM
REM
REM
REM
REM
REM ./C.cell (12c818d87b63d06a65506943cc24bca4)
REM
REM compiler GCC version 9.2.1 20190827 (Red Hat 9.2.1-1)
REM options -cpp -mtune=generic -march=x86-64 -g -O0 -fpre-include=/usr/include/finclude/math-vector-fortran.h
REM seed -1688773709 728549274 -495347624 265369068 -636432037 553202624 -413610142 -1586737028 1807048825 -1080593868 -856229551 -92511253 -1057037943 227305367 1880943127 -167330536 -272909329 514763519 1079245338 -910248073 -742818766 -1041324788 1271548271 -1753266047 1391545584 1864671097 -1559457854 1726574650 -1631539447 1835494260 -207777979 -1443407361 -2034155515
REM
CELL 1.54180   50.00000   50.00000   50.00000   90.00000   90.00000   90.00000
LATT -1
SFAC C  
C      1  0.4990530000000  0.5550470000000  0.5026000000000 1.0
C      1  0.4990530000000  0.4493710000000  0.5026000000000 1.0
C      1  0.4990530000000  0.5288400000000  0.5026000000000 1.0
C      1  0.4990530000000  0.4755790000000  0.5026000000000 1.0
C      1  0.4990530000000  0.5022090000000  0.5026000000000 1.0
END
