TITL C-2782232-2968-842 22.9272217870551 125000 -1008.57021124927 0 0 174 (C1) n - 1
REM
REM in /home/nfs/bkarasulu/CARBON/AIRSS/Generating-Clusters/REBO/Higher-Symm/SD-CG/HFTN-CG
REM
REM
REM
REM
REM
REM ./C.cell (12c818d87b63d06a65506943cc24bca4)
REM
REM compiler GCC version 9.2.1 20190827 (Red Hat 9.2.1-1)
REM options -cpp -mtune=generic -march=x86-64 -g -O0 -fpre-include=/usr/include/finclude/math-vector-fortran.h
REM seed 1221350381 417821651 251077134 -761302610 1490977591 1392304706 -1428883432 -598069579 -1666664711 696634996 1039491567 -1406758476 -2025611339 1659008854 -956131284 -1322132162 300438055 -737043820 1499628630 -527539480 -1705961334 2109473220 45038440 -1342297274 -357513189 569950026 -1093026888 -2047438613 224291053 2014229970 -1819370962 1862058374 165315010
REM
CELL 1.54180   50.00000   50.00000   50.00000   90.00000   90.00000   90.00000
LATT -1
SFAC C  
C      1  0.5656070000000  0.5371690000000  0.5312200000000 1.0
C      1  0.4378060000000  0.4597040000000  0.4670700000000 1.0
C      1  0.4668880000000  0.5921570000000  0.5198690000000 1.0
C      1  0.5197450000000  0.4104550000000  0.4859770000000 1.0
C      1  0.4685080000000  0.4626740000000  0.5974040000000 1.0
C      1  0.5343580000000  0.5359830000000  0.3996630000000 1.0
C      1  0.4413210000000  0.5246580000000  0.4108610000000 1.0
C      1  0.5511410000000  0.4826470000000  0.5870450000000 1.0
C      1  0.5179640000000  0.4220100000000  0.4224330000000 1.0
C      1  0.4982080000000  0.5978470000000  0.5640630000000 1.0
C      1  0.5468380000000  0.5370850000000  0.5721100000000 1.0
C      1  0.4555230000000  0.4677040000000  0.4306780000000 1.0
C      1  0.4640430000000  0.4396580000000  0.5053050000000 1.0
C      1  0.5341030000000  0.5608940000000  0.4943380000000 1.0
C      1  0.5163990000000  0.5849820000000  0.5308670000000 1.0
C      1  0.4876090000000  0.4215620000000  0.4649590000000 1.0
C      1  0.5997220000000  0.5054660000000  0.5512220000000 1.0
C      1  0.3997760000000  0.4884180000000  0.4530390000000 1.0
C      1  0.4019970000000  0.4502390000000  0.4846740000000 1.0
C      1  0.6034420000000  0.5401420000000  0.5121680000000 1.0
C      1  0.3936170000000  0.5352950000000  0.4636630000000 1.0
C      1  0.6014950000000  0.4569920000000  0.5385440000000 1.0
C      1  0.4025990000000  0.5154030000000  0.4446510000000 1.0
C      1  0.5962790000000  0.4771070000000  0.5587540000000 1.0
C      1  0.5896470000000  0.5047670000000  0.4441040000000 1.0
C      1  0.4093360000000  0.4842550000000  0.5561420000000 1.0
C      1  0.4420430000000  0.5531070000000  0.4275060000000 1.0
C      1  0.5511290000000  0.4529060000000  0.5723400000000 1.0
C      1  0.5537950000000  0.4140870000000  0.4874230000000 1.0
C      1  0.4372940000000  0.5776780000000  0.5183500000000 1.0
C      1  0.4846160000000  0.4202350000000  0.4307430000000 1.0
C      1  0.5325740000000  0.5872090000000  0.5610100000000 1.0
C      1  0.5467670000000  0.4278040000000  0.4342950000000 1.0
C      1  0.4469390000000  0.5632010000000  0.5647490000000 1.0
C      1  0.4780720000000  0.5727570000000  0.4501980000000 1.0
C      1  0.5228030000000  0.4275640000000  0.5548810000000 1.0
C      1  0.5514960000000  0.4753670000000  0.5315290000000 1.0
C      1  0.4446850000000  0.5280560000000  0.4690900000000 1.0
C      1  0.5531510000000  0.4866280000000  0.4818530000000 1.0
C      1  0.4433820000000  0.5125960000000  0.5204420000000 1.0
C      1  0.4255010000000  0.4551580000000  0.5646960000000 1.0
C      1  0.5759010000000  0.5349740000000  0.4354770000000 1.0
C      1  0.4195840000000  0.4887910000000  0.5029440000000 1.0
C      1  0.5898810000000  0.5039950000000  0.5021940000000 1.0
C      1  0.5074630000000  0.5283470000000  0.3978210000000 1.0
C      1  0.4917120000000  0.4834010000000  0.6012870000000 1.0
C      1  0.4822760000000  0.5890800000000  0.4755840000000 1.0
C      1  0.5143900000000  0.4131160000000  0.5297660000000 1.0
C      1  0.3930540000000  0.4927480000000  0.5321730000000 1.0
C      1  0.6062720000000  0.4957410000000  0.4672270000000 1.0
C      1  0.4615620000000  0.4092390000000  0.5387950000000 1.0
C      1  0.5470200000000  0.5876790000000  0.4606120000000 1.0
C      1  0.5507230000000  0.5985640000000  0.4874000000000 1.0
C      1  0.4589290000000  0.4002600000000  0.5094730000000 1.0
C      1  0.5767540000000  0.5310440000000  0.4915390000000 1.0
C      1  0.4281680000000  0.4571740000000  0.5055790000000 1.0
C      1  0.5413870000000  0.4554960000000  0.4799700000000 1.0
C      1  0.4502630000000  0.5459150000000  0.5206930000000 1.0
C      1  0.4490210000000  0.5858400000000  0.4829060000000 1.0
C      1  0.5438070000000  0.4087950000000  0.5195240000000 1.0
C      1  0.5258030000000  0.4668240000000  0.5609550000000 1.0
C      1  0.4695290000000  0.5366530000000  0.4354950000000 1.0
C      1  0.6144770000000  0.5182910000000  0.4880770000000 1.0
C      1  0.3914490000000  0.4716650000000  0.5092010000000 1.0
C      1  0.5128760000000  0.5205040000000  0.5408410000000 1.0
C      1  0.4859060000000  0.4858440000000  0.4619320000000 1.0
C      1  0.5673330000000  0.5625950000000  0.4505190000000 1.0
C      1  0.4360900000000  0.4286670000000  0.5502610000000 1.0
C      1  0.5086220000000  0.4808850000000  0.5376120000000 1.0
C      1  0.4854470000000  0.5256230000000  0.4621010000000 1.0
C      1  0.4737810000000  0.5564670000000  0.5650170000000 1.0
C      1  0.5348240000000  0.4529670000000  0.4513500000000 1.0
C      1  0.4097860000000  0.5492310000000  0.5157570000000 1.0
C      1  0.5804610000000  0.4437230000000  0.4874010000000 1.0
C      1  0.4983600000000  0.5652860000000  0.4332940000000 1.0
C      1  0.5015880000000  0.4366540000000  0.5706100000000 1.0
C      1  0.4990240000000  0.5043740000000  0.5152250000000 1.0
C      1  0.4994220000000  0.5045500000000  0.4854520000000 1.0
C      1  0.4344790000000  0.4305830000000  0.5196120000000 1.0
C      1  0.5655430000000  0.5593150000000  0.4813210000000 1.0
C      1  0.4564900000000  0.4505460000000  0.5755680000000 1.0
C      1  0.5461690000000  0.5468670000000  0.4243380000000 1.0
C      1  0.3948480000000  0.5189650000000  0.5211780000000 1.0
C      1  0.6001630000000  0.4708650000000  0.4801900000000 1.0
C      1  0.4309600000000  0.4465270000000  0.4305370000000 1.0
C      1  0.5749240000000  0.5526660000000  0.5669150000000 1.0
C      1  0.4331290000000  0.5166770000000  0.4409410000000 1.0
C      1  0.5646930000000  0.4877490000000  0.5585980000000 1.0
C      1  0.5258330000000  0.4963840000000  0.4665790000000 1.0
C      1  0.4738370000000  0.5130430000000  0.5369410000000 1.0
C      1  0.4708960000000  0.5111910000000  0.4122340000000 1.0
C      1  0.5270160000000  0.4967320000000  0.5895420000000 1.0
C      1  0.5723590000000  0.5800700000000  0.5627600000000 1.0
C      1  0.4383590000000  0.4196450000000  0.4345780000000 1.0
C      1  0.5055230000000  0.4512560000000  0.4175220000000 1.0
C      1  0.5010680000000  0.5668110000000  0.5748340000000 1.0
C      1  0.4650120000000  0.4815820000000  0.5333220000000 1.0
C      1  0.5328650000000  0.5276160000000  0.4605980000000 1.0
C      1  0.5715620000000  0.4795940000000  0.4296720000000 1.0
C      1  0.4243680000000  0.5105990000000  0.5719370000000 1.0
C      1  0.4746310000000  0.4848050000000  0.5647810000000 1.0
C      1  0.5239470000000  0.5141290000000  0.4313070000000 1.0
C      1  0.5270310000000  0.5990530000000  0.5033100000000 1.0
C      1  0.4865710000000  0.4030010000000  0.4906420000000 1.0
C      1  0.5199820000000  0.5439060000000  0.5925570000000 1.0
C      1  0.4785500000000  0.4690680000000  0.4052010000000 1.0
C      1  0.5278820000000  0.5641840000000  0.4451490000000 1.0
C      1  0.4750460000000  0.4364610000000  0.5541190000000 1.0
C      1  0.4370010000000  0.4042630000000  0.4896890000000 1.0
C      1  0.5734570000000  0.5904740000000  0.5059430000000 1.0
C      1  0.5071130000000  0.5813760000000  0.4885050000000 1.0
C      1  0.4913640000000  0.4219820000000  0.5159340000000 1.0
C      1  0.5681970000000  0.4332700000000  0.5627280000000 1.0
C      1  0.4221180000000  0.5669140000000  0.4405460000000 1.0
C      1  0.5448760000000  0.4955780000000  0.4157550000000 1.0
C      1  0.4520330000000  0.4970800000000  0.5860170000000 1.0
C      1  0.5397290000000  0.4437200000000  0.5303750000000 1.0
C      1  0.4611080000000  0.5552840000000  0.4733160000000 1.0
C      1  0.4127010000000  0.4214540000000  0.4970720000000 1.0
C      1  0.5929140000000  0.5666510000000  0.4983860000000 1.0
C      1  0.5803600000000  0.5077830000000  0.5279850000000 1.0
C      1  0.4220550000000  0.4839620000000  0.4735610000000 1.0
C      1  0.5064350000000  0.4628300000000  0.5850220000000 1.0
C      1  0.4916970000000  0.5452570000000  0.4130090000000 1.0
C      1  0.4568020000000  0.4994410000000  0.4851610000000 1.0
C      1  0.5396500000000  0.5035660000000  0.5150100000000 1.0
C      1  0.5687520000000  0.4706220000000  0.5046890000000 1.0
C      1  0.4260570000000  0.5269130000000  0.4955180000000 1.0
C      1  0.4940430000000  0.5053750000000  0.4357760000000 1.0
C      1  0.5042130000000  0.4997540000000  0.5657450000000 1.0
C      1  0.5119590000000  0.5512380000000  0.5259990000000 1.0
C      1  0.4886960000000  0.4547380000000  0.4731040000000 1.0
C      1  0.4721740000000  0.5643070000000  0.5047920000000 1.0
C      1  0.5253310000000  0.4384820000000  0.5009270000000 1.0
C      1  0.4689610000000  0.5254940000000  0.5000440000000 1.0
C      1  0.5255810000000  0.4780140000000  0.5015480000000 1.0
C      1  0.5032240000000  0.5158810000000  0.6021640000000 1.0
C      1  0.4957690000000  0.4973770000000  0.3966690000000 1.0
C      1  0.5742030000000  0.5097500000000  0.4141130000000 1.0
C      1  0.4243650000000  0.4798660000000  0.5865940000000 1.0
C      1  0.4755070000000  0.5168100000000  0.5876600000000 1.0
C      1  0.5170780000000  0.4802050000000  0.4113360000000 1.0
C      1  0.4702420000000  0.4364080000000  0.4065460000000 1.0
C      1  0.5377620000000  0.5719350000000  0.5892510000000 1.0
C      1  0.4771060000000  0.5288710000000  0.5616360000000 1.0
C      1  0.5234660000000  0.4760270000000  0.4432420000000 1.0
C      1  0.6013060000000  0.4671830000000  0.5118690000000 1.0
C      1  0.3931950000000  0.5237520000000  0.4902280000000 1.0
C      1  0.4875700000000  0.6002510000000  0.5361850000000 1.0
C      1  0.5161320000000  0.4103140000000  0.4527520000000 1.0
C      1  0.4541080000000  0.4933460000000  0.4517060000000 1.0
C      1  0.5459480000000  0.5139490000000  0.5471470000000 1.0
C      1  0.4565510000000  0.4736450000000  0.5039890000000 1.0
C      1  0.5440770000000  0.5278680000000  0.4928420000000 1.0
C      1  0.4970310000000  0.5441300000000  0.4979000000000 1.0
C      1  0.4997320000000  0.4581620000000  0.5023060000000 1.0
C      1  0.5969430000000  0.5389270000000  0.5456410000000 1.0
C      1  0.4065390000000  0.4551190000000  0.4512490000000 1.0
C      1  0.4249960000000  0.5388860000000  0.5665260000000 1.0
C      1  0.5714600000000  0.4512520000000  0.4356610000000 1.0
C      1  0.5733260000000  0.4240130000000  0.5140900000000 1.0
C      1  0.4197730000000  0.5697270000000  0.4901250000000 1.0
C      1  0.5261080000000  0.5550960000000  0.5550700000000 1.0
C      1  0.4813800000000  0.4524600000000  0.4411340000000 1.0
C      1  0.5651810000000  0.5879190000000  0.5376160000000 1.0
C      1  0.4467520000000  0.4125950000000  0.4612050000000 1.0
C      1  0.5553690000000  0.5622070000000  0.5198150000000 1.0
C      1  0.4526040000000  0.4383190000000  0.4758550000000 1.0
C      1  0.4212290000000  0.5617770000000  0.5429150000000 1.0
C      1  0.5664880000000  0.4302080000000  0.4619750000000 1.0
C      1  0.4073130000000  0.5607100000000  0.4636490000000 1.0
C      1  0.5851460000000  0.4335980000000  0.5402290000000 1.0
C      1  0.4863430000000  0.4577220000000  0.5325670000000 1.0
C      1  0.5083970000000  0.5473920000000  0.4676120000000 1.0
END
