TITL C-2782226-7400-914 -0.00287561141492022 125000 -514.937100889755 0 0 90 (C1) n - 1
REM
REM in /home/nfs/bkarasulu/CARBON/AIRSS/Generating-Clusters/REBO/Higher-Symm/SD-CG/HFTN-CG
REM
REM
REM
REM
REM
REM ./C.cell (12c818d87b63d06a65506943cc24bca4)
REM
REM compiler GCC version 9.2.1 20190827 (Red Hat 9.2.1-1)
REM options -cpp -mtune=generic -march=x86-64 -g -O0 -fpre-include=/usr/include/finclude/math-vector-fortran.h
REM seed 1517983864 1198109824 1123671526 -53024283 1717857186 2000586629 -1650576357 869365230 2131901499 2109161237 1076337597 971837695 1983421592 -662556272 -1573256808 -1063233107 -1665161046 1810820772 1727252998 1297182394 -1898903978 -106303929 -1267162109 -976125658 871534964 1285425866 2103564987 1920570167 1597301497 -313210141 954326559 1131006386 433252795
REM
CELL 1.54180   50.00000   50.00000   50.00000   90.00000   90.00000   90.00000
LATT -1
SFAC C  
C      1  0.4949370000000  0.4821320000000  0.4822580000000 1.0
C      1  0.4966610000000  0.5180090000000  0.5147240000000 1.0
C      1  0.5009520000000  0.5203610000000  0.4879980000000 1.0
C      1  0.5050670000000  0.4799270000000  0.5084170000000 1.0
C      1  0.4641820000000  0.5540890000000  0.4920070000000 1.0
C      1  0.4683310000000  0.4454550000000  0.5084210000000 1.0
C      1  0.5313640000000  0.4467150000000  0.4938740000000 1.0
C      1  0.5312140000000  0.5549450000000  0.5106960000000 1.0
C      1  0.4776410000000  0.5742460000000  0.4581270000000 1.0
C      1  0.4837650000000  0.4278520000000  0.5432220000000 1.0
C      1  0.5231700000000  0.4258220000000  0.4607920000000 1.0
C      1  0.5161020000000  0.5766180000000  0.5437880000000 1.0
C      1  0.5344700000000  0.4799370000000  0.4391500000000 1.0
C      1  0.5324570000000  0.5245400000000  0.5611410000000 1.0
C      1  0.4628230000000  0.5216440000000  0.4387170000000 1.0
C      1  0.4695340000000  0.4784550000000  0.5561000000000 1.0
C      1  0.4968590000000  0.4577510000000  0.5207850000000 1.0
C      1  0.4924020000000  0.5433150000000  0.4781610000000 1.0
C      1  0.5054230000000  0.5428290000000  0.5264720000000 1.0
C      1  0.5017750000000  0.4536530000000  0.4785400000000 1.0
C      1  0.4567130000000  0.5401190000000  0.5221130000000 1.0
C      1  0.4587260000000  0.4596710000000  0.4789600000000 1.0
C      1  0.5413920000000  0.4614790000000  0.5228530000000 1.0
C      1  0.5408830000000  0.5413460000000  0.4809930000000 1.0
C      1  0.5792520000000  0.4647040000000  0.4900420000000 1.0
C      1  0.5810370000000  0.5381100000000  0.5078080000000 1.0
C      1  0.4163650000000  0.5354290000000  0.4896910000000 1.0
C      1  0.4175670000000  0.4629010000000  0.5078200000000 1.0
C      1  0.5758020000000  0.4963210000000  0.5392690000000 1.0
C      1  0.5722280000000  0.5061620000000  0.4590410000000 1.0
C      1  0.4230310000000  0.5049560000000  0.5394210000000 1.0
C      1  0.4248310000000  0.4939510000000  0.4586220000000 1.0
C      1  0.4908240000000  0.5250810000000  0.5701000000000 1.0
C      1  0.4934280000000  0.4733340000000  0.4329180000000 1.0
C      1  0.5086980000000  0.4751460000000  0.5681090000000 1.0
C      1  0.5037290000000  0.5263140000000  0.4338820000000 1.0
C      1  0.4764530000000  0.4983890000000  0.5292440000000 1.0
C      1  0.4681710000000  0.5082420000000  0.4667700000000 1.0
C      1  0.5287890000000  0.5082880000000  0.5335990000000 1.0
C      1  0.5297770000000  0.4944370000000  0.4673870000000 1.0
C      1  0.4651920000000  0.5090520000000  0.5658350000000 1.0
C      1  0.4667510000000  0.4884050000000  0.4325230000000 1.0
C      1  0.5355850000000  0.4912700000000  0.5685710000000 1.0
C      1  0.5309760000000  0.5131670000000  0.4327170000000 1.0
C      1  0.4216320000000  0.4774200000000  0.4849150000000 1.0
C      1  0.4201620000000  0.5211100000000  0.5129210000000 1.0
C      1  0.5762740000000  0.5232260000000  0.4852030000000 1.0
C      1  0.5769630000000  0.4795440000000  0.5130460000000 1.0
C      1  0.4974510000000  0.5526960000000  0.4398360000000 1.0
C      1  0.5034560000000  0.4492870000000  0.5591620000000 1.0
C      1  0.4993620000000  0.4457100000000  0.4459750000000 1.0
C      1  0.4969530000000  0.5519970000000  0.5581220000000 1.0
C      1  0.5452010000000  0.4939360000000  0.5137990000000 1.0
C      1  0.5449160000000  0.5087520000000  0.4879560000000 1.0
C      1  0.4520180000000  0.5076640000000  0.5122640000000 1.0
C      1  0.4529750000000  0.4923100000000  0.4867970000000 1.0
C      1  0.5776810000000  0.5241300000000  0.5360600000000 1.0
C      1  0.5715850000000  0.4781870000000  0.4625190000000 1.0
C      1  0.4215640000000  0.4769600000000  0.5360340000000 1.0
C      1  0.4235260000000  0.5218710000000  0.4619830000000 1.0
C      1  0.4763230000000  0.4345750000000  0.4682440000000 1.0
C      1  0.4783020000000  0.5615810000000  0.5317020000000 1.0
C      1  0.5127120000000  0.5654560000000  0.4660810000000 1.0
C      1  0.5204690000000  0.4392970000000  0.5327090000000 1.0
C      1  0.5538970000000  0.4507660000000  0.4736460000000 1.0
C      1  0.5581680000000  0.5509510000000  0.5285500000000 1.0
C      1  0.4409330000000  0.5496440000000  0.4721260000000 1.0
C      1  0.4418260000000  0.4511080000000  0.5270450000000 1.0
C      1  0.4906630000000  0.4196780000000  0.5116060000000 1.0
C      1  0.4859900000000  0.5802080000000  0.4909070000000 1.0
C      1  0.5076630000000  0.5796920000000  0.5114720000000 1.0
C      1  0.5130540000000  0.4183920000000  0.4924910000000 1.0
C      1  0.5361940000000  0.5529490000000  0.5511440000000 1.0
C      1  0.5386680000000  0.4517400000000  0.4450200000000 1.0
C      1  0.4649360000000  0.4517210000000  0.5477600000000 1.0
C      1  0.4581280000000  0.5498360000000  0.4446860000000 1.0
C      1  0.5396270000000  0.5736330000000  0.4763710000000 1.0
C      1  0.5271400000000  0.4103650000000  0.5292450000000 1.0
C      1  0.4658380000000  0.4068300000000  0.4689260000000 1.0
C      1  0.4724870000000  0.5905550000000  0.5271080000000 1.0
C      1  0.5498620000000  0.5254290000000  0.4521320000000 1.0
C      1  0.5540810000000  0.4787170000000  0.5494900000000 1.0
C      1  0.4475320000000  0.4758180000000  0.4510100000000 1.0
C      1  0.4455940000000  0.5220540000000  0.5488010000000 1.0
C      1  0.5328350000000  0.3856650000000  0.5262880000000 1.0
C      1  0.5546820000000  0.5944880000000  0.4798540000000 1.0
C      1  0.4675260000000  0.6152790000000  0.5231870000000 1.0
C      1  0.4568190000000  0.3829650000000  0.4695140000000 1.0
C      1  0.5014690000000  0.5015340000000  0.5507790000000 1.0
C      1  0.4986360000000  0.4997050000000  0.4538360000000 1.0
END
