TITL C-2782239-8622-973 0.0040510863999015 125000 -106.275708612327 0 0 20 (C1) n - 1
REM
REM in /home/nfs/bkarasulu/CARBON/AIRSS/Generating-Clusters/REBO/Higher-Symm/SD-CG/HFTN-CG
REM
REM
REM
REM
REM
REM ./C.cell (12c818d87b63d06a65506943cc24bca4)
REM
REM compiler GCC version 9.2.1 20190827 (Red Hat 9.2.1-1)
REM options -cpp -mtune=generic -march=x86-64 -g -O0 -fpre-include=/usr/include/finclude/math-vector-fortran.h
REM seed -722391802 338430680 374173001 911378914 -720551826 -57503416 313550363 -1596073475 -1105708171 -321190076 -2066201355 -872705967 -462499387 1913655718 -910497594 -551126130 438462134 -1995167934 -1120585640 4448126 1309747988 -1308791810 -22531773 1846474795 1131768635 1325727316 -1123628702 1562373448 912935063 -700703069 1551059162 -1082125491 1502120040
REM
CELL 1.54180   50.00000   50.00000   50.00000   90.00000   90.00000   90.00000
LATT -1
SFAC C  
C      1  0.4836000000000  0.5096270000000  0.4548720000000 1.0
C      1  0.4905640000000  0.5372910000000  0.4560420000000 1.0
C      1  0.4567050000000  0.4727380000000  0.5396320000000 1.0
C      1  0.4622940000000  0.5021060000000  0.4718050000000 1.0
C      1  0.4994900000000  0.5475480000000  0.4799660000000 1.0
C      1  0.5092000000000  0.5099840000000  0.5152590000000 1.0
C      1  0.5408660000000  0.4828890000000  0.4804080000000 1.0
C      1  0.4821930000000  0.4641500000000  0.5452160000000 1.0
C      1  0.5045700000000  0.4913620000000  0.4504870000000 1.0
C      1  0.5046910000000  0.5331980000000  0.5024430000000 1.0
C      1  0.5371500000000  0.5025010000000  0.5428250000000 1.0
C      1  0.5146760000000  0.5042900000000  0.5543890000000 1.0
C      1  0.4563840000000  0.5026560000000  0.5275020000000 1.0
C      1  0.4423020000000  0.5224570000000  0.5411180000000 1.0
C      1  0.5293070000000  0.4790780000000  0.4559350000000 1.0
C      1  0.5415070000000  0.4641970000000  0.4366210000000 1.0
C      1  0.4885660000000  0.4965880000000  0.5367710000000 1.0
C      1  0.5650350000000  0.4792980000000  0.5002570000000 1.0
C      1  0.5375600000000  0.4958110000000  0.5114950000000 1.0
C      1  0.4533410000000  0.5022320000000  0.4969560000000 1.0
END
