TITL C-2782231-7322-555 -0.00165379206363495 125000 -504.982493699758 0 0 84 (C1) n - 1
REM
REM in /home/nfs/bkarasulu/CARBON/AIRSS/Generating-Clusters/REBO/Higher-Symm/SD-CG/HFTN-CG
REM
REM
REM
REM
REM
REM ./C.cell (12c818d87b63d06a65506943cc24bca4)
REM
REM compiler GCC version 9.2.1 20190827 (Red Hat 9.2.1-1)
REM options -cpp -mtune=generic -march=x86-64 -g -O0 -fpre-include=/usr/include/finclude/math-vector-fortran.h
REM seed -1422496375 1050731094 -1836980645 -1410295790 -499817655 -901366369 -1876926688 -1684492396 1602086387 146319280 -1357962630 297204567 -2060300478 328431962 1484959446 -551092882 -1022098063 -2037825442 146378285 71000747 -333010053 -1124936560 -1063829813 1701058322 -1618218377 348820838 174204653 -530047442 1667170214 728106405 1221011561 291846458 1640662569
REM
CELL 1.54180   50.00000   50.00000   50.00000   90.00000   90.00000   90.00000
LATT -1
SFAC C  
C      1  0.4436960000000  0.4452970000000  0.4728590000000 1.0
C      1  0.4711540000000  0.4408980000000  0.4535320000000 1.0
C      1  0.4555250000000  0.4708320000000  0.4549590000000 1.0
C      1  0.4563630000000  0.5543330000000  0.5307470000000 1.0
C      1  0.5597730000000  0.5494570000000  0.4722010000000 1.0
C      1  0.5450160000000  0.4411710000000  0.5246900000000 1.0
C      1  0.4765370000000  0.5481860000000  0.5558880000000 1.0
C      1  0.5292080000000  0.5458150000000  0.4574480000000 1.0
C      1  0.5278010000000  0.4395780000000  0.5477800000000 1.0
C      1  0.4235490000000  0.5231780000000  0.5614600000000 1.0
C      1  0.5556540000000  0.5314690000000  0.4437580000000 1.0
C      1  0.5622810000000  0.4775130000000  0.5459250000000 1.0
C      1  0.4138320000000  0.5460880000000  0.5098340000000 1.0
C      1  0.4905320000000  0.4107610000000  0.5500900000000 1.0
C      1  0.5374470000000  0.5085550000000  0.4060720000000 1.0
C      1  0.4092600000000  0.4550230000000  0.4905210000000 1.0
C      1  0.5869040000000  0.4567950000000  0.5080190000000 1.0
C      1  0.5942820000000  0.5488680000000  0.4919490000000 1.0
C      1  0.5094070000000  0.5894660000000  0.4571610000000 1.0
C      1  0.4924110000000  0.5933950000000  0.5459870000000 1.0
C      1  0.4936350000000  0.4082280000000  0.4539850000000 1.0
C      1  0.5455740000000  0.4908570000000  0.5868100000000 1.0
C      1  0.4569630000000  0.4885910000000  0.4101230000000 1.0
C      1  0.4511750000000  0.4996920000000  0.5915030000000 1.0
C      1  0.4683050000000  0.4891680000000  0.5717960000000 1.0
C      1  0.5775470000000  0.4689210000000  0.4855440000000 1.0
C      1  0.4864860000000  0.5749400000000  0.4650850000000 1.0
C      1  0.4651910000000  0.5122240000000  0.4233850000000 1.0
C      1  0.5372550000000  0.5162060000000  0.5778530000000 1.0
C      1  0.5320060000000  0.4851670000000  0.4211010000000 1.0
C      1  0.5796210000000  0.5406770000000  0.5139300000000 1.0
C      1  0.4233300000000  0.5347440000000  0.4868030000000 1.0
C      1  0.4233440000000  0.4658650000000  0.5123520000000 1.0
C      1  0.4803840000000  0.4286680000000  0.5318760000000 1.0
C      1  0.5141740000000  0.4256240000000  0.4608830000000 1.0
C      1  0.5139040000000  0.5792960000000  0.5340750000000 1.0
C      1  0.5500950000000  0.5294130000000  0.5515910000000 1.0
C      1  0.5527690000000  0.5522810000000  0.5259090000000 1.0
C      1  0.5266060000000  0.5540980000000  0.5476510000000 1.0
C      1  0.5499230000000  0.4783620000000  0.4463910000000 1.0
C      1  0.4553480000000  0.4825710000000  0.5440990000000 1.0
C      1  0.4512940000000  0.5225620000000  0.4498070000000 1.0
C      1  0.5507250000000  0.4576320000000  0.4734630000000 1.0
C      1  0.4513340000000  0.4552370000000  0.5237830000000 1.0
C      1  0.4510630000000  0.5442770000000  0.4761950000000 1.0
C      1  0.5273140000000  0.4526140000000  0.4488430000000 1.0
C      1  0.4805710000000  0.4596700000000  0.5413020000000 1.0
C      1  0.4751090000000  0.5473510000000  0.4518620000000 1.0
C      1  0.5166590000000  0.4154030000000  0.5575990000000 1.0
C      1  0.5335110000000  0.5314040000000  0.4209340000000 1.0
C      1  0.4312080000000  0.5393200000000  0.5339800000000 1.0
C      1  0.5318560000000  0.5767660000000  0.4664140000000 1.0
C      1  0.4691190000000  0.5782450000000  0.5504130000000 1.0
C      1  0.4691300000000  0.4149500000000  0.4755160000000 1.0
C      1  0.5426060000000  0.4718980000000  0.5659710000000 1.0
C      1  0.4655720000000  0.4667750000000  0.4243210000000 1.0
C      1  0.4295620000000  0.5158750000000  0.5864850000000 1.0
C      1  0.4178610000000  0.4662030000000  0.4648730000000 1.0
C      1  0.5691130000000  0.4554590000000  0.5296990000000 1.0
C      1  0.5859770000000  0.5277740000000  0.4688250000000 1.0
C      1  0.4564230000000  0.4355100000000  0.5005870000000 1.0
C      1  0.4953110000000  0.4560830000000  0.4375690000000 1.0
C      1  0.4356090000000  0.4952380000000  0.4603720000000 1.0
C      1  0.4651490000000  0.5566210000000  0.5018160000000 1.0
C      1  0.5424490000000  0.5645430000000  0.4965520000000 1.0
C      1  0.5372420000000  0.4414720000000  0.4976650000000 1.0
C      1  0.5018340000000  0.5398860000000  0.5609090000000 1.0
C      1  0.5048130000000  0.5371760000000  0.4388050000000 1.0
C      1  0.5105920000000  0.4663590000000  0.5558780000000 1.0
C      1  0.4359280000000  0.5056340000000  0.5356900000000 1.0
C      1  0.5669270000000  0.5029690000000  0.4539900000000 1.0
C      1  0.5649870000000  0.5042660000000  0.5378710000000 1.0
C      1  0.4223360000000  0.5067260000000  0.4864760000000 1.0
C      1  0.4877730000000  0.4230080000000  0.5018120000000 1.0
C      1  0.5047560000000  0.4848280000000  0.4275650000000 1.0
C      1  0.4229510000000  0.4937810000000  0.5114100000000 1.0
C      1  0.5799020000000  0.4992580000000  0.4852330000000 1.0
C      1  0.5772760000000  0.5122050000000  0.5142360000000 1.0
C      1  0.4877550000000  0.5711380000000  0.4935420000000 1.0
C      1  0.5133440000000  0.5754520000000  0.5060890000000 1.0
C      1  0.5147590000000  0.4282720000000  0.4892990000000 1.0
C      1  0.5091280000000  0.5163910000000  0.5740010000000 1.0
C      1  0.4928160000000  0.5104060000000  0.4279910000000 1.0
C      1  0.4960880000000  0.4910940000000  0.5707310000000 1.0
END
