TITL C-2782234-8014-986 -0.00247133656450863 125000 -494.002218495522 0 0 87 (D5) n - 1
REM
REM in /home/nfs/bkarasulu/CARBON/AIRSS/Generating-Clusters/REBO/Higher-Symm/SD-CG/HFTN-CG
REM
REM
REM
REM
REM
REM ./C.cell (12c818d87b63d06a65506943cc24bca4)
REM
REM compiler GCC version 9.2.1 20190827 (Red Hat 9.2.1-1)
REM options -cpp -mtune=generic -march=x86-64 -g -O0 -fpre-include=/usr/include/finclude/math-vector-fortran.h
REM seed 1042440819 1512267618 61799926 1245067435 -1561596022 -29859892 1199359623 60374032 -1149603476 -2089759023 -1107311109 1328661180 894079631 -80942249 -294745096 1170403734 1230339804 -1961303307 -803878071 38969263 2022434173 -935799750 -274249243 -1292475870 -1363721753 414045087 186719490 -1980099561 771637693 -490911685 392940543 242150692 -16320293
REM
CELL 1.54180   50.00000   50.00000   50.00000   90.00000   90.00000   90.00000
LATT -1
SFAC C  
C      1  0.5525430000000  0.5143310000000  0.5178930000000 1.0
C      1  0.5298900000000  0.4544850000000  0.5178930000000 1.0
C      1  0.4659720000000  0.4575360000000  0.5178930000000 1.0
C      1  0.4491220000000  0.5192680000000  0.5178930000000 1.0
C      1  0.5026260000000  0.5543700000000  0.5178940000000 1.0
C      1  0.5525430000000  0.4856640000000  0.4824800000000 1.0
C      1  0.5298900000000  0.5455110000000  0.4824810000000 1.0
C      1  0.4659720000000  0.5424600000000  0.4824800000000 1.0
C      1  0.4491220000000  0.4807280000000  0.4824800000000 1.0
C      1  0.5026260000000  0.4456260000000  0.4824800000000 1.0
C      1  0.5079750000000  0.5348440000000  0.4375570000000 1.0
C      1  0.5356260000000  0.5032110000000  0.4375570000000 1.0
C      1  0.5140860000000  0.4671380000000  0.4375560000000 1.0
C      1  0.4731220000000  0.4764770000000  0.4375560000000 1.0
C      1  0.4693450000000  0.5183220000000  0.4375570000000 1.0
C      1  0.5079750000000  0.4651520000000  0.5628160000000 1.0
C      1  0.5356260000000  0.4967850000000  0.5628170000000 1.0
C      1  0.5140850000000  0.5328580000000  0.5628170000000 1.0
C      1  0.4731210000000  0.5235190000000  0.5628170000000 1.0
C      1  0.4693450000000  0.4816740000000  0.5628160000000 1.0
C      1  0.5117070000000  0.5662770000000  0.4619810000000 1.0
C      1  0.5666730000000  0.5093750000000  0.4619810000000 1.0
C      1  0.5295420000000  0.4395150000000  0.4619800000000 1.0
C      1  0.4516270000000  0.4532410000000  0.4619800000000 1.0
C      1  0.4406050000000  0.5315840000000  0.4619800000000 1.0
C      1  0.5117070000000  0.4337190000000  0.5383920000000 1.0
C      1  0.5666730000000  0.4906210000000  0.5383930000000 1.0
C      1  0.5295410000000  0.5604810000000  0.5383940000000 1.0
C      1  0.4516270000000  0.5467550000000  0.5383930000000 1.0
C      1  0.4406040000000  0.4684120000000  0.5383920000000 1.0
C      1  0.5586970000000  0.4599020000000  0.5330430000000 1.0
C      1  0.4800260000000  0.4318130000000  0.5330420000000 1.0
C      1  0.4290010000000  0.4979530000000  0.5330430000000 1.0
C      1  0.4761360000000  0.5669190000000  0.5330440000000 1.0
C      1  0.5562930000000  0.5434020000000  0.5330440000000 1.0
C      1  0.5586970000000  0.5400940000000  0.4673310000000 1.0
C      1  0.4800260000000  0.5681830000000  0.4673310000000 1.0
C      1  0.4290010000000  0.5020430000000  0.4673300000000 1.0
C      1  0.4761360000000  0.4330770000000  0.4673300000000 1.0
C      1  0.5562930000000  0.4565940000000  0.4673300000000 1.0
C      1  0.5609440000000  0.5189590000000  0.5563850000000 1.0
C      1  0.5368870000000  0.4479250000000  0.5563840000000 1.0
C      1  0.4618960000000  0.4488540000000  0.5563840000000 1.0
C      1  0.4396050000000  0.5204610000000  0.5563850000000 1.0
C      1  0.5008200000000  0.5637890000000  0.5563850000000 1.0
C      1  0.5609440000000  0.4810370000000  0.4439890000000 1.0
C      1  0.5368870000000  0.5520710000000  0.4439890000000 1.0
C      1  0.4618960000000  0.5511420000000  0.4439890000000 1.0
C      1  0.4396060000000  0.4795350000000  0.4439880000000 1.0
C      1  0.5008210000000  0.4362070000000  0.4439880000000 1.0
C      1  0.5085090000000  0.5769590000000  0.4935960000000 1.0
C      1  0.5758450000000  0.5157170000000  0.4935960000000 1.0
C      1  0.5384080000000  0.4327520000000  0.4935950000000 1.0
C      1  0.4479350000000  0.4427180000000  0.4935950000000 1.0
C      1  0.4294560000000  0.5318430000000  0.4935950000000 1.0
C      1  0.5085080000000  0.4230370000000  0.5067770000000 1.0
C      1  0.5758450000000  0.4842790000000  0.5067780000000 1.0
C      1  0.5384080000000  0.5672440000000  0.5067790000000 1.0
C      1  0.4479350000000  0.5572780000000  0.5067780000000 1.0
C      1  0.4294560000000  0.4681530000000  0.5067780000000 1.0
C      1  0.4466790000000  0.5044980000000  0.4275930000000 1.0
C      1  0.4878230000000  0.5521290000000  0.4275940000000 1.0
C      1  0.5458370000000  0.5277180000000  0.4275940000000 1.0
C      1  0.5405480000000  0.4650000000000  0.4275930000000 1.0
C      1  0.4792650000000  0.4506490000000  0.4275930000000 1.0
C      1  0.4466790000000  0.4954980000000  0.5727800000000 1.0
C      1  0.4878230000000  0.4478670000000  0.5727800000000 1.0
C      1  0.5458370000000  0.4722780000000  0.5727800000000 1.0
C      1  0.5405480000000  0.5349960000000  0.5727800000000 1.0
C      1  0.4792650000000  0.5493470000000  0.5727800000000 1.0
C      1  0.5126210000000  0.4766200000000  0.5317500000000 1.0
C      1  0.4816880000000  0.4807990000000  0.5317490000000 1.0
C      1  0.4761030000000  0.5115100000000  0.5317500000000 1.0
C      1  0.5035850000000  0.5263110000000  0.5317500000000 1.0
C      1  0.5261550000000  0.5047480000000  0.5317500000000 1.0
C      1  0.5126210000000  0.5233760000000  0.4686240000000 1.0
C      1  0.4816880000000  0.5191970000000  0.4686240000000 1.0
C      1  0.4761040000000  0.4884860000000  0.4686230000000 1.0
C      1  0.5035860000000  0.4736850000000  0.4686230000000 1.0
C      1  0.5261550000000  0.4952480000000  0.4686240000000 1.0
C      1  0.5654280000000  0.4524840000000  0.5001860000000 1.0
C      1  0.5654280000000  0.5475120000000  0.5001870000000 1.0
C      1  0.4750510000000  0.4231180000000  0.5001860000000 1.0
C      1  0.4191950000000  0.4999980000000  0.5001860000000 1.0
C      1  0.4750510000000  0.5768780000000  0.5001870000000 1.0
C      1  0.5000300000000  0.4999970000000  0.5629220000000 1.0
C      1  0.5000310000000  0.4999990000000  0.4374510000000 1.0
END
