TITL C-2782231-7322-630 0.00526831867850873 125000 -817.590713656394 0 0 138 (C1) n - 1
REM
REM in /home/nfs/bkarasulu/CARBON/AIRSS/Generating-Clusters/REBO/Higher-Symm/SD-CG/HFTN-CG
REM
REM
REM
REM
REM
REM ./C.cell (12c818d87b63d06a65506943cc24bca4)
REM
REM compiler GCC version 9.2.1 20190827 (Red Hat 9.2.1-1)
REM options -cpp -mtune=generic -march=x86-64 -g -O0 -fpre-include=/usr/include/finclude/math-vector-fortran.h
REM seed -785901562 653995134 1953920917 -1573535006 134885184 -212288565 1502187883 1262639445 -1441917341 -1537311691 -1417247406 1489072202 664349876 1808880377 530938966 1686519323 714791312 1787103454 -1443868859 1170059726 -1801676129 1910264606 -696132576 -401458765 -1128682829 1774431064 -1290572412 -1690914602 -1370429655 -1250151150 -916089358 342565975 -1973208768
REM
CELL 1.54180   50.00000   50.00000   50.00000   90.00000   90.00000   90.00000
LATT -1
SFAC C  
C      1  0.5197240000000  0.4220320000000  0.5776520000000 1.0
C      1  0.4314940000000  0.4234340000000  0.4757770000000 1.0
C      1  0.5462220000000  0.4289400000000  0.4457720000000 1.0
C      1  0.4768440000000  0.5790890000000  0.5728560000000 1.0
C      1  0.5728570000000  0.5731400000000  0.4768890000000 1.0
C      1  0.4530280000000  0.5781960000000  0.4409950000000 1.0
C      1  0.4361000000000  0.5052400000000  0.5755490000000 1.0
C      1  0.4631630000000  0.5096480000000  0.4139420000000 1.0
C      1  0.6140240000000  0.4916400000000  0.5153400000000 1.0
C      1  0.5661610000000  0.5074760000000  0.5793890000000 1.0
C      1  0.5352490000000  0.4915660000000  0.4053880000000 1.0
C      1  0.4054420000000  0.4853500000000  0.5092140000000 1.0
C      1  0.5811850000000  0.4904070000000  0.4805020000000 1.0
C      1  0.4789290000000  0.4884740000000  0.5713880000000 1.0
C      1  0.4490970000000  0.4902150000000  0.4564910000000 1.0
C      1  0.4348720000000  0.5079030000000  0.4770970000000 1.0
C      1  0.5322710000000  0.5120070000000  0.5751850000000 1.0
C      1  0.5491970000000  0.5141810000000  0.4454560000000 1.0
C      1  0.4746560000000  0.4124950000000  0.4551910000000 1.0
C      1  0.5424150000000  0.4156940000000  0.5009430000000 1.0
C      1  0.4778460000000  0.4072710000000  0.5459050000000 1.0
C      1  0.5270180000000  0.5871610000000  0.4531430000000 1.0
C      1  0.4599670000000  0.5924420000000  0.4978660000000 1.0
C      1  0.5231450000000  0.5827370000000  0.5475060000000 1.0
C      1  0.4802020000000  0.4110880000000  0.4853960000000 1.0
C      1  0.5086030000000  0.4115760000000  0.5031480000000 1.0
C      1  0.5042710000000  0.4019280000000  0.5324740000000 1.0
C      1  0.5216680000000  0.5850660000000  0.4850910000000 1.0
C      1  0.4934870000000  0.5905630000000  0.5005550000000 1.0
C      1  0.4981480000000  0.5944150000000  0.5311590000000 1.0
C      1  0.4744790000000  0.4702950000000  0.5476990000000 1.0
C      1  0.4723990000000  0.4688640000000  0.4623600000000 1.0
C      1  0.5573540000000  0.4740030000000  0.4953530000000 1.0
C      1  0.5145900000000  0.5266430000000  0.5494230000000 1.0
C      1  0.5277390000000  0.5358820000000  0.4605150000000 1.0
C      1  0.4455240000000  0.5283530000000  0.4972170000000 1.0
C      1  0.4077200000000  0.4966760000000  0.4834730000000 1.0
C      1  0.5563120000000  0.5064780000000  0.4185460000000 1.0
C      1  0.5511930000000  0.5270910000000  0.5991500000000 1.0
C      1  0.6074140000000  0.4861510000000  0.4889060000000 1.0
C      1  0.4438270000000  0.4965730000000  0.4301880000000 1.0
C      1  0.4574020000000  0.4915020000000  0.5887920000000 1.0
C      1  0.4833440000000  0.4692330000000  0.4323590000000 1.0
C      1  0.5744450000000  0.4678000000000  0.5211290000000 1.0
C      1  0.4440370000000  0.4648030000000  0.5494140000000 1.0
C      1  0.5171420000000  0.5319050000000  0.4294010000000 1.0
C      1  0.4242280000000  0.5278600000000  0.5196390000000 1.0
C      1  0.5599160000000  0.5238940000000  0.5437860000000 1.0
C      1  0.4810720000000  0.5786810000000  0.4512320000000 1.0
C      1  0.5521480000000  0.5806470000000  0.4995490000000 1.0
C      1  0.4733530000000  0.5907400000000  0.5463510000000 1.0
C      1  0.5188700000000  0.4258110000000  0.4549730000000 1.0
C      1  0.4493040000000  0.4077730000000  0.4992840000000 1.0
C      1  0.5277900000000  0.4098970000000  0.5492920000000 1.0
C      1  0.4612350000000  0.4886390000000  0.5001460000000 1.0
C      1  0.5105980000000  0.5006090000000  0.4807310000000 1.0
C      1  0.5364350000000  0.5055240000000  0.5359640000000 1.0
C      1  0.5328640000000  0.5038860000000  0.5055140000000 1.0
C      1  0.4813370000000  0.5041800000000  0.4800340000000 1.0
C      1  0.4563020000000  0.5057000000000  0.5281510000000 1.0
C      1  0.4070670000000  0.4556320000000  0.5065770000000 1.0
C      1  0.5349220000000  0.4621940000000  0.4063010000000 1.0
C      1  0.5537820000000  0.4563280000000  0.5696330000000 1.0
C      1  0.5855900000000  0.5344430000000  0.5065290000000 1.0
C      1  0.4618660000000  0.5384950000000  0.4090710000000 1.0
C      1  0.4409940000000  0.5365410000000  0.5704770000000 1.0
C      1  0.5064500000000  0.5561080000000  0.4182960000000 1.0
C      1  0.5648310000000  0.5528110000000  0.5449320000000 1.0
C      1  0.4124100000000  0.5496530000000  0.5326580000000 1.0
C      1  0.4920200000000  0.4448140000000  0.4209490000000 1.0
C      1  0.4358610000000  0.4393730000000  0.5412650000000 1.0
C      1  0.5770460000000  0.4416480000000  0.5311260000000 1.0
C      1  0.4565060000000  0.4208150000000  0.5290160000000 1.0
C      1  0.4952910000000  0.4234810000000  0.4400640000000 1.0
C      1  0.5393030000000  0.4286140000000  0.5289140000000 1.0
C      1  0.5471350000000  0.5727570000000  0.5320270000000 1.0
C      1  0.5044410000000  0.5785380000000  0.4362680000000 1.0
C      1  0.4549810000000  0.5800090000000  0.5246420000000 1.0
C      1  0.4058730000000  0.4946780000000  0.4436540000000 1.0
C      1  0.5825470000000  0.4851770000000  0.4398920000000 1.0
C      1  0.5079820000000  0.4976670000000  0.6034960000000 1.0
C      1  0.5924110000000  0.5073890000000  0.4461130000000 1.0
C      1  0.4137280000000  0.5183540000000  0.4448510000000 1.0
C      1  0.4936300000000  0.5168470000000  0.5952430000000 1.0
C      1  0.4739430000000  0.5532340000000  0.5326740000000 1.0
C      1  0.4833040000000  0.5657830000000  0.4795690000000 1.0
C      1  0.5266300000000  0.5602560000000  0.5081300000000 1.0
C      1  0.5247140000000  0.4565670000000  0.5317870000000 1.0
C      1  0.5147690000000  0.4386640000000  0.4835340000000 1.0
C      1  0.4739740000000  0.4373560000000  0.5066740000000 1.0
C      1  0.4161440000000  0.5513810000000  0.5595960000000 1.0
C      1  0.4852050000000  0.5518940000000  0.3996920000000 1.0
C      1  0.5899700000000  0.5471070000000  0.5312410000000 1.0
C      1  0.5713080000000  0.4379950000000  0.5576360000000 1.0
C      1  0.5111800000000  0.4477600000000  0.3999950000000 1.0
C      1  0.4109050000000  0.4386190000000  0.5298690000000 1.0
C      1  0.4115060000000  0.4706220000000  0.4636820000000 1.0
C      1  0.5532110000000  0.4777230000000  0.4461090000000 1.0
C      1  0.5244580000000  0.4795570000000  0.5825770000000 1.0
C      1  0.5777480000000  0.5221160000000  0.4696150000000 1.0
C      1  0.4410360000000  0.5323940000000  0.4504790000000 1.0
C      1  0.4872360000000  0.5173910000000  0.5632840000000 1.0
C      1  0.4083190000000  0.4424350000000  0.4787410000000 1.0
C      1  0.5485440000000  0.4528280000000  0.4300260000000 1.0
C      1  0.5314580000000  0.4465160000000  0.5873770000000 1.0
C      1  0.5910940000000  0.5500230000000  0.4808280000000 1.0
C      1  0.4468820000000  0.5524230000000  0.4295010000000 1.0
C      1  0.4593580000000  0.5591900000000  0.5833540000000 1.0
C      1  0.5102960000000  0.5350710000000  0.5162900000000 1.0
C      1  0.4779270000000  0.5343940000000  0.5058420000000 1.0
C      1  0.5032820000000  0.5397350000000  0.4830310000000 1.0
C      1  0.4792460000000  0.4674180000000  0.5161310000000 1.0
C      1  0.5240560000000  0.4715110000000  0.5042740000000 1.0
C      1  0.4957330000000  0.4640960000000  0.4867110000000 1.0
C      1  0.4869360000000  0.4940720000000  0.4173210000000 1.0
C      1  0.5922820000000  0.4875250000000  0.5333350000000 1.0
C      1  0.4281100000000  0.4894670000000  0.5528020000000 1.0
C      1  0.5121570000000  0.5068430000000  0.4147710000000 1.0
C      1  0.4165680000000  0.5014270000000  0.5293350000000 1.0
C      1  0.5820650000000  0.5051080000000  0.5537230000000 1.0
C      1  0.5253880000000  0.4887020000000  0.4600760000000 1.0
C      1  0.5373880000000  0.4787920000000  0.5508810000000 1.0
C      1  0.4361080000000  0.4693120000000  0.4876420000000 1.0
C      1  0.4692610000000  0.5236950000000  0.4645660000000 1.0
C      1  0.4625770000000  0.5270150000000  0.5472530000000 1.0
C      1  0.5594120000000  0.5178750000000  0.4981300000000 1.0
C      1  0.5607010000000  0.5878270000000  0.4489070000000 1.0
C      1  0.5070820000000  0.5762660000000  0.5768350000000 1.0
C      1  0.4467970000000  0.5833330000000  0.4711730000000 1.0
C      1  0.4477170000000  0.4137560000000  0.4500710000000 1.0
C      1  0.4939840000000  0.4268000000000  0.5620280000000 1.0
C      1  0.5597000000000  0.4215160000000  0.4745140000000 1.0
C      1  0.5444810000000  0.5609680000000  0.4628640000000 1.0
C      1  0.5006520000000  0.5577160000000  0.5489130000000 1.0
C      1  0.4520190000000  0.5557820000000  0.4850990000000 1.0
C      1  0.4573570000000  0.4446350000000  0.4807020000000 1.0
C      1  0.4979540000000  0.4506100000000  0.5468240000000 1.0
C      1  0.5455410000000  0.4490650000000  0.4801590000000 1.0
END
