TITL C-2782229-3092-1274 -0.000337845842598476 125000 -558.289348480661 0 0 95 (C1) n - 1
REM
REM in /home/nfs/bkarasulu/CARBON/AIRSS/Generating-Clusters/REBO/Higher-Symm/SD-CG/HFTN-CG
REM
REM
REM
REM
REM
REM ./C.cell (12c818d87b63d06a65506943cc24bca4)
REM
REM compiler GCC version 9.2.1 20190827 (Red Hat 9.2.1-1)
REM options -cpp -mtune=generic -march=x86-64 -g -O0 -fpre-include=/usr/include/finclude/math-vector-fortran.h
REM seed 153014474 -1302371503 -253807103 888926174 -782667947 -918173233 703640993 1809937254 -1528880542 -1556123533 -54073284 -813923929 2115016693 -909030984 -637175606 1412634369 2132939807 -1623005999 -1682086693 1004614315 -2076764055 690118773 684970603 -958003058 1499622873 -890328785 2054673375 1246375601 -804422429 910531183 -1786767468 867400772 -2080873832
REM
CELL 1.54180   50.00000   50.00000   50.00000   90.00000   90.00000   90.00000
LATT -1
SFAC C  
C      1  0.4533010000000  0.5410540000000  0.5495720000000 1.0
C      1  0.5107580000000  0.5632830000000  0.4541990000000 1.0
C      1  0.5640660000000  0.5483710000000  0.5424070000000 1.0
C      1  0.4816760000000  0.5662580000000  0.4700130000000 1.0
C      1  0.5718980000000  0.5102370000000  0.4673540000000 1.0
C      1  0.4964720000000  0.4691510000000  0.5916240000000 1.0
C      1  0.5333170000000  0.5879330000000  0.5275200000000 1.0
C      1  0.4551890000000  0.5493860000000  0.4352350000000 1.0
C      1  0.4805110000000  0.5424610000000  0.5597210000000 1.0
C      1  0.5381640000000  0.5179050000000  0.5786110000000 1.0
C      1  0.4626970000000  0.4563060000000  0.4514860000000 1.0
C      1  0.4888260000000  0.5436680000000  0.4368690000000 1.0
C      1  0.5129620000000  0.5174830000000  0.4773870000000 1.0
C      1  0.4740520000000  0.4271650000000  0.5021260000000 1.0
C      1  0.5305700000000  0.5017420000000  0.4362740000000 1.0
C      1  0.5534600000000  0.4262550000000  0.5191950000000 1.0
C      1  0.4704110000000  0.4613080000000  0.5765010000000 1.0
C      1  0.5383090000000  0.5140820000000  0.5287480000000 1.0
C      1  0.5098680000000  0.5319190000000  0.5816240000000 1.0
C      1  0.4910990000000  0.5670500000000  0.5185580000000 1.0
C      1  0.4644320000000  0.4595000000000  0.5428030000000 1.0
C      1  0.5418010000000  0.5511650000000  0.4471970000000 1.0
C      1  0.5628020000000  0.5425350000000  0.4663550000000 1.0
C      1  0.4771680000000  0.5064480000000  0.4445710000000 1.0
C      1  0.5094810000000  0.5601170000000  0.5621810000000 1.0
C      1  0.4407260000000  0.5166970000000  0.5582390000000 1.0
C      1  0.4843800000000  0.4864620000000  0.5488760000000 1.0
C      1  0.5496550000000  0.5307840000000  0.5096040000000 1.0
C      1  0.4127390000000  0.4371250000000  0.5038590000000 1.0
C      1  0.5123410000000  0.5260760000000  0.5416230000000 1.0
C      1  0.4732660000000  0.5420620000000  0.4908360000000 1.0
C      1  0.4046810000000  0.5042460000000  0.4717130000000 1.0
C      1  0.5425210000000  0.4907890000000  0.5739740000000 1.0
C      1  0.5263150000000  0.4687940000000  0.4686020000000 1.0
C      1  0.4612240000000  0.5723820000000  0.4526220000000 1.0
C      1  0.4938720000000  0.4227110000000  0.5302130000000 1.0
C      1  0.5524510000000  0.4401630000000  0.4939580000000 1.0
C      1  0.4438040000000  0.4931960000000  0.5381650000000 1.0
C      1  0.4905100000000  0.5015330000000  0.5188980000000 1.0
C      1  0.5237320000000  0.4957120000000  0.4641990000000 1.0
C      1  0.4202640000000  0.4773930000000  0.4707720000000 1.0
C      1  0.5792090000000  0.5262860000000  0.5361650000000 1.0
C      1  0.4929760000000  0.5345020000000  0.5163510000000 1.0
C      1  0.5570640000000  0.4800610000000  0.5469330000000 1.0
C      1  0.4491340000000  0.4831290000000  0.4866960000000 1.0
C      1  0.4939110000000  0.4887120000000  0.4287150000000 1.0
C      1  0.4625240000000  0.4885140000000  0.5156110000000 1.0
C      1  0.4049200000000  0.5036380000000  0.5116980000000 1.0
C      1  0.5104100000000  0.4758420000000  0.5206150000000 1.0
C      1  0.5827620000000  0.4514350000000  0.4547280000000 1.0
C      1  0.5332330000000  0.4466650000000  0.4272950000000 1.0
C      1  0.5269810000000  0.4308000000000  0.5356230000000 1.0
C      1  0.5092230000000  0.5781210000000  0.5375760000000 1.0
C      1  0.5024070000000  0.4551430000000  0.4731650000000 1.0
C      1  0.4643080000000  0.4559640000000  0.5117410000000 1.0
C      1  0.5708880000000  0.4949650000000  0.4977250000000 1.0
C      1  0.5357150000000  0.4553680000000  0.5569540000000 1.0
C      1  0.4869140000000  0.5268580000000  0.4663510000000 1.0
C      1  0.3828170000000  0.5048690000000  0.4925170000000 1.0
C      1  0.4498420000000  0.4857820000000  0.5689870000000 1.0
C      1  0.5067800000000  0.4412340000000  0.4332610000000 1.0
C      1  0.5608920000000  0.5698300000000  0.5209300000000 1.0
C      1  0.4812060000000  0.4348180000000  0.5574150000000 1.0
C      1  0.5067200000000  0.5199530000000  0.4214910000000 1.0
C      1  0.4288870000000  0.4486930000000  0.4847390000000 1.0
C      1  0.4374020000000  0.5285060000000  0.4445600000000 1.0
C      1  0.4467000000000  0.5531130000000  0.5236550000000 1.0
C      1  0.5390270000000  0.5310850000000  0.4240440000000 1.0
C      1  0.5219910000000  0.4709380000000  0.5835880000000 1.0
C      1  0.5035200000000  0.4595850000000  0.5500120000000 1.0
C      1  0.5284720000000  0.5371190000000  0.4896280000000 1.0
C      1  0.4922320000000  0.5111770000000  0.5631500000000 1.0
C      1  0.5623760000000  0.5085520000000  0.4344570000000 1.0
C      1  0.5392620000000  0.5825990000000  0.4971760000000 1.0
C      1  0.4552420000000  0.4397900000000  0.4764340000000 1.0
C      1  0.5383970000000  0.5428360000000  0.5565080000000 1.0
C      1  0.4419150000000  0.4769300000000  0.4478810000000 1.0
C      1  0.5495310000000  0.4580150000000  0.4513820000000 1.0
C      1  0.5650970000000  0.5526190000000  0.4928180000000 1.0
C      1  0.5262660000000  0.5639630000000  0.4815280000000 1.0
C      1  0.4223070000000  0.5279100000000  0.4692690000000 1.0
C      1  0.4803090000000  0.4694510000000  0.4848870000000 1.0
C      1  0.5392670000000  0.4840460000000  0.5196000000000 1.0
C      1  0.5738230000000  0.4816910000000  0.4489080000000 1.0
C      1  0.5754000000000  0.4998590000000  0.5260890000000 1.0
C      1  0.5028440000000  0.4196740000000  0.4913660000000 1.0
C      1  0.5323590000000  0.4290910000000  0.4780140000000 1.0
C      1  0.5083440000000  0.4461380000000  0.5120030000000 1.0
C      1  0.4868880000000  0.4613750000000  0.4338980000000 1.0
C      1  0.4639920000000  0.5749780000000  0.5176450000000 1.0
C      1  0.4410400000000  0.5360840000000  0.4965740000000 1.0
C      1  0.5047270000000  0.4242920000000  0.4587000000000 1.0
C      1  0.4498320000000  0.5029440000000  0.4408160000000 1.0
C      1  0.5556080000000  0.4686470000000  0.4956390000000 1.0
C      1  0.4303340000000  0.5069060000000  0.5022070000000 1.0
END
