TITL C-2782232-2968-922 0.00423429814935235 125000 -939.930479591734 0 0 166 (C1) n - 1
REM
REM in /home/nfs/bkarasulu/CARBON/AIRSS/Generating-Clusters/REBO/Higher-Symm/SD-CG/HFTN-CG
REM
REM
REM
REM
REM
REM ./C.cell (12c818d87b63d06a65506943cc24bca4)
REM
REM compiler GCC version 9.2.1 20190827 (Red Hat 9.2.1-1)
REM options -cpp -mtune=generic -march=x86-64 -g -O0 -fpre-include=/usr/include/finclude/math-vector-fortran.h
REM seed -1262512541 1403255631 116101896 -1892519464 599143240 -1659724721 1172005569 -1378833003 1412873635 745453458 -817162230 1468469804 1843287395 -1827516676 305418696 -1265810916 -543940966 723664404 -1715023366 -447831537 -104592143 -1110402247 566524348 -648821020 -1280779447 -457031926 1827857478 -214031030 622710868 -1815787722 -1680762530 -892260054 1296020311
REM
CELL 1.54180   50.00000   50.00000   50.00000   90.00000   90.00000   90.00000
LATT -1
SFAC C  
C      1  0.5174140000000  0.5058640000000  0.5984550000000 1.0
C      1  0.4008470000000  0.5031960000000  0.4613250000000 1.0
C      1  0.5786690000000  0.5071800000000  0.4362880000000 1.0
C      1  0.5373590000000  0.6037330000000  0.4889550000000 1.0
C      1  0.4990260000000  0.6060980000000  0.5354570000000 1.0
C      1  0.4714790000000  0.6057570000000  0.4790690000000 1.0
C      1  0.4269690000000  0.4347500000000  0.4575460000000 1.0
C      1  0.5767330000000  0.4411700000000  0.4633450000000 1.0
C      1  0.4943720000000  0.4399570000000  0.5812540000000 1.0
C      1  0.5732610000000  0.4440210000000  0.4293010000000 1.0
C      1  0.5233490000000  0.4505250000000  0.5955670000000 1.0
C      1  0.4018700000000  0.4422010000000  0.4793720000000 1.0
C      1  0.4398170000000  0.4655250000000  0.5350000000000 1.0
C      1  0.4975590000000  0.4661980000000  0.4288730000000 1.0
C      1  0.5638980000000  0.4650950000000  0.5355770000000 1.0
C      1  0.5714960000000  0.4828740000000  0.5010490000000 1.0
C      1  0.4668290000000  0.4816940000000  0.5589040000000 1.0
C      1  0.4616340000000  0.4790470000000  0.4395290000000 1.0
C      1  0.5270950000000  0.5103310000000  0.3995740000000 1.0
C      1  0.5719890000000  0.5096590000000  0.5798640000000 1.0
C      1  0.3981840000000  0.5115960000000  0.5292530000000 1.0
C      1  0.5442780000000  0.5163720000000  0.4544030000000 1.0
C      1  0.5203910000000  0.5212990000000  0.5551810000000 1.0
C      1  0.4368900000000  0.5207580000000  0.4876380000000 1.0
C      1  0.5418860000000  0.5428280000000  0.4749820000000 1.0
C      1  0.4952000000000  0.5412320000000  0.5439630000000 1.0
C      1  0.4576420000000  0.5431630000000  0.4783100000000 1.0
C      1  0.4268750000000  0.4819220000000  0.4580590000000 1.0
C      1  0.5706330000000  0.4855570000000  0.4616260000000 1.0
C      1  0.5024890000000  0.4874930000000  0.5750040000000 1.0
C      1  0.5485710000000  0.4745150000000  0.4307250000000 1.0
C      1  0.5373820000000  0.4711980000000  0.5646460000000 1.0
C      1  0.4174480000000  0.4744580000000  0.4957280000000 1.0
C      1  0.4516590000000  0.4325190000000  0.4945190000000 1.0
C      1  0.5295260000000  0.4348500000000  0.4568730000000 1.0
C      1  0.5195420000000  0.4329840000000  0.5403650000000 1.0
C      1  0.4388260000000  0.4572240000000  0.4786260000000 1.0
C      1  0.5497350000000  0.4584350000000  0.4579880000000 1.0
C      1  0.5100400000000  0.4582910000000  0.5586820000000 1.0
C      1  0.4889880000000  0.4536680000000  0.4592340000000 1.0
C      1  0.5446350000000  0.4531790000000  0.5101740000000 1.0
C      1  0.4710910000000  0.4519870000000  0.5325670000000 1.0
C      1  0.5100040000000  0.5299130000000  0.4302270000000 1.0
C      1  0.5595300000000  0.5300880000000  0.5456190000000 1.0
C      1  0.4334400000000  0.5317110000000  0.5281730000000 1.0
C      1  0.4341420000000  0.4978630000000  0.5370430000000 1.0
C      1  0.5037950000000  0.4956380000000  0.4278550000000 1.0
C      1  0.5645920000000  0.4953250000000  0.5440530000000 1.0
C      1  0.5079650000000  0.3860630000000  0.5276970000000 1.0
C      1  0.4735660000000  0.3888120000000  0.4819000000000 1.0
C      1  0.5298780000000  0.3837720000000  0.4710030000000 1.0
C      1  0.4270630000000  0.5482910000000  0.5572460000000 1.0
C      1  0.4856210000000  0.5433970000000  0.4110690000000 1.0
C      1  0.5890830000000  0.5413610000000  0.5358640000000 1.0
C      1  0.4631190000000  0.5224610000000  0.5250060000000 1.0
C      1  0.4884080000000  0.5226550000000  0.4528470000000 1.0
C      1  0.5414930000000  0.5216650000000  0.5212350000000 1.0
C      1  0.5359030000000  0.5774400000000  0.5390280000000 1.0
C      1  0.4536260000000  0.5870420000000  0.5100880000000 1.0
C      1  0.5149840000000  0.5878340000000  0.4487460000000 1.0
C      1  0.5992240000000  0.4993740000000  0.5246350000000 1.0
C      1  0.4370680000000  0.5014520000000  0.5764630000000 1.0
C      1  0.4665680000000  0.4930040000000  0.4019540000000 1.0
C      1  0.4567660000000  0.5500630000000  0.4268220000000 1.0
C      1  0.5917460000000  0.5490720000000  0.5028460000000 1.0
C      1  0.4514800000000  0.5620710000000  0.5745490000000 1.0
C      1  0.4824860000000  0.4582100000000  0.4859420000000 1.0
C      1  0.5254730000000  0.4585060000000  0.4913520000000 1.0
C      1  0.4936280000000  0.4579470000000  0.5155130000000 1.0
C      1  0.5524280000000  0.4451060000000  0.5785210000000 1.0
C      1  0.4079180000000  0.4501000000000  0.5142370000000 1.0
C      1  0.5419470000000  0.4499030000000  0.4117390000000 1.0
C      1  0.5417350000000  0.4928510000000  0.4763300000000 1.0
C      1  0.5004060000000  0.4977870000000  0.5444670000000 1.0
C      1  0.4498930000000  0.4953180000000  0.4758300000000 1.0
C      1  0.4757770000000  0.5399210000000  0.5710540000000 1.0
C      1  0.4424090000000  0.5348450000000  0.4507900000000 1.0
C      1  0.5745500000000  0.5352520000000  0.4780830000000 1.0
C      1  0.5102970000000  0.4162910000000  0.5121740000000 1.0
C      1  0.4829760000000  0.4191580000000  0.4941990000000 1.0
C      1  0.5119970000000  0.4315390000000  0.4830890000000 1.0
C      1  0.5094250000000  0.4872940000000  0.4826610000000 1.0
C      1  0.5126130000000  0.4793270000000  0.5225620000000 1.0
C      1  0.4656580000000  0.4801040000000  0.4979880000000 1.0
C      1  0.5245590000000  0.5897130000000  0.5094160000000 1.0
C      1  0.4839780000000  0.5952860000000  0.5155330000000 1.0
C      1  0.4929210000000  0.5903530000000  0.4707660000000 1.0
C      1  0.5113440000000  0.5882830000000  0.5599820000000 1.0
C      1  0.4432730000000  0.5897760000000  0.4788430000000 1.0
C      1  0.5421240000000  0.5924430000000  0.4640570000000 1.0
C      1  0.4235200000000  0.5629130000000  0.4719930000000 1.0
C      1  0.5645390000000  0.5686600000000  0.4546470000000 1.0
C      1  0.5084590000000  0.5626110000000  0.5828600000000 1.0
C      1  0.5682870000000  0.5675310000000  0.5354200000000 1.0
C      1  0.4419310000000  0.5695670000000  0.5364820000000 1.0
C      1  0.5056760000000  0.5687690000000  0.4220930000000 1.0
C      1  0.5353050000000  0.4993080000000  0.4309730000000 1.0
C      1  0.5408150000000  0.5020040000000  0.5663370000000 1.0
C      1  0.4220230000000  0.5001980000000  0.5069800000000 1.0
C      1  0.4084440000000  0.5325990000000  0.4753840000000 1.0
C      1  0.5647650000000  0.5382150000000  0.4394670000000 1.0
C      1  0.5234410000000  0.5336970000000  0.5930840000000 1.0
C      1  0.5385290000000  0.5368680000000  0.4179830000000 1.0
C      1  0.5533240000000  0.5377730000000  0.5781580000000 1.0
C      1  0.4075510000000  0.5373720000000  0.5088060000000 1.0
C      1  0.5157820000000  0.4385010000000  0.4298010000000 1.0
C      1  0.5503770000000  0.4359430000000  0.5457220000000 1.0
C      1  0.4369270000000  0.4345800000000  0.5221580000000 1.0
C      1  0.4555700000000  0.4269740000000  0.5497430000000 1.0
C      1  0.4835140000000  0.4295080000000  0.4359050000000 1.0
C      1  0.5650940000000  0.4266090000000  0.5163540000000 1.0
C      1  0.4399450000000  0.4534100000000  0.4333730000000 1.0
C      1  0.5899260000000  0.4586310000000  0.4853350000000 1.0
C      1  0.4696100000000  0.4577870000000  0.5832250000000 1.0
C      1  0.4238720000000  0.4803770000000  0.4264190000000 1.0
C      1  0.6011670000000  0.4863400000000  0.4745010000000 1.0
C      1  0.4780960000000  0.4847260000000  0.5970630000000 1.0
C      1  0.5778770000000  0.5738090000000  0.4839710000000 1.0
C      1  0.4809300000000  0.5791560000000  0.5722570000000 1.0
C      1  0.4461610000000  0.5743010000000  0.4490530000000 1.0
C      1  0.4929730000000  0.5122150000000  0.3994710000000 1.0
C      1  0.5935830000000  0.5122780000000  0.5536180000000 1.0
C      1  0.4144190000000  0.5166370000000  0.5589490000000 1.0
C      1  0.5946360000000  0.4390130000000  0.5112840000000 1.0
C      1  0.4423820000000  0.4404140000000  0.5764170000000 1.0
C      1  0.4581320000000  0.4332190000000  0.4138420000000 1.0
C      1  0.4353300000000  0.4707400000000  0.5675130000000 1.0
C      1  0.4715180000000  0.4625670000000  0.4108290000000 1.0
C      1  0.5936990000000  0.4686870000000  0.5237220000000 1.0
C      1  0.5299820000000  0.5531730000000  0.5592560000000 1.0
C      1  0.4281940000000  0.5643970000000  0.5057520000000 1.0
C      1  0.5375820000000  0.5668020000000  0.4339170000000 1.0
C      1  0.5419030000000  0.4083900000000  0.4704370000000 1.0
C      1  0.5039760000000  0.4055160000000  0.5497510000000 1.0
C      1  0.4514410000000  0.4074160000000  0.4732820000000 1.0
C      1  0.4377840000000  0.5052740000000  0.4138030000000 1.0
C      1  0.6020540000000  0.5116530000000  0.4948050000000 1.0
C      1  0.4587460000000  0.5051290000000  0.5993120000000 1.0
C      1  0.5591680000000  0.5711960000000  0.5071440000000 1.0
C      1  0.4735850000000  0.5674710000000  0.5421580000000 1.0
C      1  0.4787690000000  0.5700950000000  0.4397760000000 1.0
C      1  0.5800140000000  0.4766840000000  0.4224380000000 1.0
C      1  0.5227280000000  0.4761120000000  0.6073680000000 1.0
C      1  0.3918720000000  0.4744380000000  0.4751820000000 1.0
C      1  0.4848390000000  0.5588670000000  0.4701580000000 1.0
C      1  0.5297540000000  0.5573160000000  0.5025610000000 1.0
C      1  0.4864990000000  0.5637990000000  0.5123070000000 1.0
C      1  0.5347140000000  0.4779580000000  0.3937100000000 1.0
C      1  0.5661340000000  0.4762580000000  0.5826350000000 1.0
C      1  0.3946120000000  0.4783170000000  0.5279750000000 1.0
C      1  0.4773010000000  0.5368020000000  0.5026210000000 1.0
C      1  0.5091470000000  0.5393700000000  0.4734280000000 1.0
C      1  0.5139810000000  0.5354580000000  0.5183570000000 1.0
C      1  0.4693760000000  0.5304220000000  0.6004610000000 1.0
C      1  0.4222850000000  0.5176000000000  0.4408740000000 1.0
C      1  0.5947050000000  0.5173010000000  0.4619950000000 1.0
C      1  0.4525990000000  0.4171230000000  0.4434630000000 1.0
C      1  0.5660030000000  0.4182470000000  0.4833800000000 1.0
C      1  0.4823980000000  0.4160070000000  0.5654010000000 1.0
C      1  0.5720480000000  0.5153870000000  0.5106670000000 1.0
C      1  0.4633840000000  0.5145980000000  0.5578800000000 1.0
C      1  0.4672500000000  0.5110940000000  0.4311280000000 1.0
C      1  0.4815850000000  0.4929060000000  0.4636790000000 1.0
C      1  0.5394620000000  0.4924920000000  0.5090200000000 1.0
C      1  0.4721150000000  0.4915020000000  0.5266210000000 1.0
C      1  0.5008820000000  0.5156690000000  0.4945340000000 1.0
END
