TITL C-2782240-8521-1110 0.0665454360144872 125000 -454.044368735123 0 0 80 (C1) n - 1
REM
REM in /home/nfs/bkarasulu/CARBON/AIRSS/Generating-Clusters/REBO/Higher-Symm/SD-CG/HFTN-CG
REM
REM
REM
REM
REM
REM ./C.cell (12c818d87b63d06a65506943cc24bca4)
REM
REM compiler GCC version 9.2.1 20190827 (Red Hat 9.2.1-1)
REM options -cpp -mtune=generic -march=x86-64 -g -O0 -fpre-include=/usr/include/finclude/math-vector-fortran.h
REM seed -612445070 -1252325655 -1824731632 686568748 -512162113 1421325244 -1016721975 -21635227 1789344997 -334409175 1908073989 -338937863 -417553175 1684804837 487547038 -1090029943 -1716485548 731625098 1786285534 -101653751 1225546269 -194155584 1347925984 1913455483 -2083502051 -506619579 -2098383307 1334477136 1523399326 -892185683 1705763320 577576780 2061109741
REM
CELL 1.54180   50.00000   50.00000   50.00000   90.00000   90.00000   90.00000
LATT -1
SFAC C  
C      1  0.4238750000000  0.4392060000000  0.5086260000000 1.0
C      1  0.4233550000000  0.4773730000000  0.4391330000000 1.0
C      1  0.5043750000000  0.4662510000000  0.4125460000000 1.0
C      1  0.5870470000000  0.4667590000000  0.4449080000000 1.0
C      1  0.5846320000000  0.4693600000000  0.5309320000000 1.0
C      1  0.5243790000000  0.4736350000000  0.5987120000000 1.0
C      1  0.4411200000000  0.4715870000000  0.5788360000000 1.0
C      1  0.5777310000000  0.5271010000000  0.4471640000000 1.0
C      1  0.5891310000000  0.5232340000000  0.5155410000000 1.0
C      1  0.5503680000000  0.5084620000000  0.5613120000000 1.0
C      1  0.4509460000000  0.5271420000000  0.5711050000000 1.0
C      1  0.4353450000000  0.5243710000000  0.5304650000000 1.0
C      1  0.4325600000000  0.5484660000000  0.4469210000000 1.0
C      1  0.4764470000000  0.5227290000000  0.4214500000000 1.0
C      1  0.4609790000000  0.5343310000000  0.4047950000000 1.0
C      1  0.5853430000000  0.5478100000000  0.4341520000000 1.0
C      1  0.6047350000000  0.5407370000000  0.5052780000000 1.0
C      1  0.5632300000000  0.5301750000000  0.5687100000000 1.0
C      1  0.4504490000000  0.5483770000000  0.5854030000000 1.0
C      1  0.4266290000000  0.5450890000000  0.5425500000000 1.0
C      1  0.4185510000000  0.5705330000000  0.4450090000000 1.0
C      1  0.4642190000000  0.5650390000000  0.5000960000000 1.0
C      1  0.4768660000000  0.5554550000000  0.4775810000000 1.0
C      1  0.5083950000000  0.5598590000000  0.4758120000000 1.0
C      1  0.5396600000000  0.5575930000000  0.4892990000000 1.0
C      1  0.5359190000000  0.5542110000000  0.5231690000000 1.0
C      1  0.5025410000000  0.5557300000000  0.5311700000000 1.0
C      1  0.4715270000000  0.5548370000000  0.5244370000000 1.0
C      1  0.5498740000000  0.4801070000000  0.4684900000000 1.0
C      1  0.5593690000000  0.4777450000000  0.5010880000000 1.0
C      1  0.5115860000000  0.4738070000000  0.5495740000000 1.0
C      1  0.4802030000000  0.4781570000000  0.5533350000000 1.0
C      1  0.4593950000000  0.4717690000000  0.5300210000000 1.0
C      1  0.4560010000000  0.4724520000000  0.4695900000000 1.0
C      1  0.4829380000000  0.4804100000000  0.4518300000000 1.0
C      1  0.5122500000000  0.5234660000000  0.5319690000000 1.0
C      1  0.4795550000000  0.5230980000000  0.5256990000000 1.0
C      1  0.4683270000000  0.5098000000000  0.4962570000000 1.0
C      1  0.4695340000000  0.5254760000000  0.4702040000000 1.0
C      1  0.5029470000000  0.5284940000000  0.4641290000000 1.0
C      1  0.5323670000000  0.5273370000000  0.4774240000000 1.0
C      1  0.5363910000000  0.5233820000000  0.5094820000000 1.0
C      1  0.5363930000000  0.4669910000000  0.4235360000000 1.0
C      1  0.5986610000000  0.4708090000000  0.4751730000000 1.0
C      1  0.5650470000000  0.4788070000000  0.5572980000000 1.0
C      1  0.4911990000000  0.4758820000000  0.5987440000000 1.0
C      1  0.4243950000000  0.4712180000000  0.5491030000000 1.0
C      1  0.4153980000000  0.4622140000000  0.4909610000000 1.0
C      1  0.4495920000000  0.4752800000000  0.4181050000000 1.0
C      1  0.5825920000000  0.5015350000000  0.5390290000000 1.0
C      1  0.5092720000000  0.4989690000000  0.5841060000000 1.0
C      1  0.4366750000000  0.4992720000000  0.5615340000000 1.0
C      1  0.4209690000000  0.4784640000000  0.5159880000000 1.0
C      1  0.4405040000000  0.5038770000000  0.4316860000000 1.0
C      1  0.5169320000000  0.4926940000000  0.4259110000000 1.0
C      1  0.5847010000000  0.4974010000000  0.4591940000000 1.0
C      1  0.5535010000000  0.5113110000000  0.4639190000000 1.0
C      1  0.5599920000000  0.5058320000000  0.5142940000000 1.0
C      1  0.5206120000000  0.5060090000000  0.5552130000000 1.0
C      1  0.4669670000000  0.5079480000000  0.5485880000000 1.0
C      1  0.4459320000000  0.4992080000000  0.5157700000000 1.0
C      1  0.4475130000000  0.5249150000000  0.4489620000000 1.0
C      1  0.4951050000000  0.5087370000000  0.4415380000000 1.0
C      1  0.5884620000000  0.4658060000000  0.5008240000000 1.0
C      1  0.5361520000000  0.4725850000000  0.5706840000000 1.0
C      1  0.4699890000000  0.4688050000000  0.5809930000000 1.0
C      1  0.4374080000000  0.4458690000000  0.5316360000000 1.0
C      1  0.4285450000000  0.4698450000000  0.4665380000000 1.0
C      1  0.4769050000000  0.4680780000000  0.4234580000000 1.0
C      1  0.5574410000000  0.4665680000000  0.4419720000000 1.0
C      1  0.5276860000000  0.4628380000000  0.4823400000000 1.0
C      1  0.5369460000000  0.4547580000000  0.5098440000000 1.0
C      1  0.5174410000000  0.4516470000000  0.5294820000000 1.0
C      1  0.4944720000000  0.4365460000000  0.5229850000000 1.0
C      1  0.4730700000000  0.4506840000000  0.5112960000000 1.0
C      1  0.4765780000000  0.4593530000000  0.4851790000000 1.0
C      1  0.5027720000000  0.4643420000000  0.4729240000000 1.0
C      1  0.5169500000000  0.4887130000000  0.5129140000000 1.0
C      1  0.5149910000000  0.5744440000000  0.5057060000000 1.0
C      1  0.4950600000000  0.4948880000000  0.5019650000000 1.0
END
