TITL C-2782240-8521-1416 0.000313915403345185 125000 -1146.36530136045 0 0 198 (C1) n - 1
REM
REM in /home/nfs/bkarasulu/CARBON/AIRSS/Generating-Clusters/REBO/Higher-Symm/SD-CG/HFTN-CG
REM
REM
REM
REM
REM
REM ./C.cell (12c818d87b63d06a65506943cc24bca4)
REM
REM compiler GCC version 9.2.1 20190827 (Red Hat 9.2.1-1)
REM options -cpp -mtune=generic -march=x86-64 -g -O0 -fpre-include=/usr/include/finclude/math-vector-fortran.h
REM seed -110763716 1891168709 -1910260501 -1972166973 -622701163 1720618149 228732533 1709209008 -1998401719 -1043062841 14108011 1589559607 1550973692 -712022634 1841361751 116087067 -736339956 609635041 -263662567 938651295 1888402842 674150586 -38624351 -1869790582 1038543043 -1419506222 -755187592 561320620 -151937190 -172580492 -1107835354 -81359387 1272974133
REM
CELL 1.54180   50.00000   50.00000   50.00000   90.00000   90.00000   90.00000
LATT -1
SFAC C  
C      1  0.5351860000000  0.5739620000000  0.4964280000000 1.0
C      1  0.5517990000000  0.4221800000000  0.5119070000000 1.0
C      1  0.4098100000000  0.4892810000000  0.4946050000000 1.0
C      1  0.4000730000000  0.4918360000000  0.4512470000000 1.0
C      1  0.5427440000000  0.5841190000000  0.4471000000000 1.0
C      1  0.5491820000000  0.4205750000000  0.4435030000000 1.0
C      1  0.4207560000000  0.5851830000000  0.5110290000000 1.0
C      1  0.6068690000000  0.4874540000000  0.5081880000000 1.0
C      1  0.4465110000000  0.4029730000000  0.5006110000000 1.0
C      1  0.3890210000000  0.4828820000000  0.5513830000000 1.0
C      1  0.5398110000000  0.6017330000000  0.5506930000000 1.0
C      1  0.5811750000000  0.4089650000000  0.5604170000000 1.0
C      1  0.4616100000000  0.4908990000000  0.5760900000000 1.0
C      1  0.5114930000000  0.5171970000000  0.5690520000000 1.0
C      1  0.5167240000000  0.4831390000000  0.5687440000000 1.0
C      1  0.3922950000000  0.5093300000000  0.5382360000000 1.0
C      1  0.5757920000000  0.5771070000000  0.5395930000000 1.0
C      1  0.5230290000000  0.3992970000000  0.5349800000000 1.0
C      1  0.5360680000000  0.3856040000000  0.5116620000000 1.0
C      1  0.3797890000000  0.5098690000000  0.5108380000000 1.0
C      1  0.5683610000000  0.5880800000000  0.5136590000000 1.0
C      1  0.4632200000000  0.4513130000000  0.4954150000000 1.0
C      1  0.4668730000000  0.5635180000000  0.4921610000000 1.0
C      1  0.5705170000000  0.4841120000000  0.4923000000000 1.0
C      1  0.4148830000000  0.5377230000000  0.4512140000000 1.0
C      1  0.5866110000000  0.5481600000000  0.4495680000000 1.0
C      1  0.4968280000000  0.4016440000000  0.4465440000000 1.0
C      1  0.5126170000000  0.4313670000000  0.5412060000000 1.0
C      1  0.4288530000000  0.5098990000000  0.5342650000000 1.0
C      1  0.5505600000000  0.5499260000000  0.5254460000000 1.0
C      1  0.4209320000000  0.4301010000000  0.5912380000000 1.0
C      1  0.4878360000000  0.5714700000000  0.5796420000000 1.0
C      1  0.5732570000000  0.4766050000000  0.5809300000000 1.0
C      1  0.5827970000000  0.5092220000000  0.4210100000000 1.0
C      1  0.4703540000000  0.4266190000000  0.4204630000000 1.0
C      1  0.4466070000000  0.5765960000000  0.4237400000000 1.0
C      1  0.5636690000000  0.5134960000000  0.5335540000000 1.0
C      1  0.4754350000000  0.4426940000000  0.5492500000000 1.0
C      1  0.4524780000000  0.5423800000000  0.5330160000000 1.0
C      1  0.5191620000000  0.4027410000000  0.4928560000000 1.0
C      1  0.3956460000000  0.5264920000000  0.4935680000000 1.0
C      1  0.5744880000000  0.5687000000000  0.4929900000000 1.0
C      1  0.5071670000000  0.4388510000000  0.4119080000000 1.0
C      1  0.4469970000000  0.5443550000000  0.4135800000000 1.0
C      1  0.5377820000000  0.5336910000000  0.4174860000000 1.0
C      1  0.4302810000000  0.5430980000000  0.5696260000000 1.0
C      1  0.5608650000000  0.5510780000000  0.5569300000000 1.0
C      1  0.5050710000000  0.4339030000000  0.5745720000000 1.0
C      1  0.4424170000000  0.5809950000000  0.4566790000000 1.0
C      1  0.6036580000000  0.5036840000000  0.4473190000000 1.0
C      1  0.4636250000000  0.4202010000000  0.4502100000000 1.0
C      1  0.4855820000000  0.6118760000000  0.4519250000000 1.0
C      1  0.6017950000000  0.4552980000000  0.4605110000000 1.0
C      1  0.4273100000000  0.4321690000000  0.4615160000000 1.0
C      1  0.5917890000000  0.5234330000000  0.4668100000000 1.0
C      1  0.4869270000000  0.4202460000000  0.4733550000000 1.0
C      1  0.4348050000000  0.5549060000000  0.4698760000000 1.0
C      1  0.5648880000000  0.4201930000000  0.5355680000000 1.0
C      1  0.4207980000000  0.4815230000000  0.5232480000000 1.0
C      1  0.5323880000000  0.5785720000000  0.5282360000000 1.0
C      1  0.6066090000000  0.4475340000000  0.5121230000000 1.0
C      1  0.4081130000000  0.4319980000000  0.5126020000000 1.0
C      1  0.4862890000000  0.6130900000000  0.5107480000000 1.0
C      1  0.6520670000000  0.4865900000000  0.4522420000000 1.0
C      1  0.4358710000000  0.3736020000000  0.4553580000000 1.0
C      1  0.4231020000000  0.6069340000000  0.4949910000000 1.0
C      1  0.4002750000000  0.4537130000000  0.5867060000000 1.0
C      1  0.5109190000000  0.5946390000000  0.5853750000000 1.0
C      1  0.5796170000000  0.4451060000000  0.5893380000000 1.0
C      1  0.5266570000000  0.4908880000000  0.6007280000000 1.0
C      1  0.4768500000000  0.4995320000000  0.5996070000000 1.0
C      1  0.5097110000000  0.5344810000000  0.5994950000000 1.0
C      1  0.4560800000000  0.4460640000000  0.5274760000000 1.0
C      1  0.4710600000000  0.5666950000000  0.5237920000000 1.0
C      1  0.5704440000000  0.4836260000000  0.5245100000000 1.0
C      1  0.4413790000000  0.6062950000000  0.4749560000000 1.0
C      1  0.6270710000000  0.4861460000000  0.4606870000000 1.0
C      1  0.4389680000000  0.4012550000000  0.4603660000000 1.0
C      1  0.5954820000000  0.4323540000000  0.5400580000000 1.0
C      1  0.4028440000000  0.4582310000000  0.5346800000000 1.0
C      1  0.5106390000000  0.6042780000000  0.5333670000000 1.0
C      1  0.4554160000000  0.5159400000000  0.5546530000000 1.0
C      1  0.5351780000000  0.5208050000000  0.5447660000000 1.0
C      1  0.5027080000000  0.4635710000000  0.5482480000000 1.0
C      1  0.4728830000000  0.5826010000000  0.4443240000000 1.0
C      1  0.5881620000000  0.4773410000000  0.4443700000000 1.0
C      1  0.4516700000000  0.4506670000000  0.4461440000000 1.0
C      1  0.5584550000000  0.5241550000000  0.4747570000000 1.0
C      1  0.5104080000000  0.4406840000000  0.4844850000000 1.0
C      1  0.4503010000000  0.5259620000000  0.4647490000000 1.0
C      1  0.4219350000000  0.4152820000000  0.4896860000000 1.0
C      1  0.4703920000000  0.6149940000000  0.4807040000000 1.0
C      1  0.6173790000000  0.4672360000000  0.4861920000000 1.0
C      1  0.4723450000000  0.5947480000000  0.5329600000000 1.0
C      1  0.5967150000000  0.4715330000000  0.5342610000000 1.0
C      1  0.4311970000000  0.4307340000000  0.5346090000000 1.0
C      1  0.5045240000000  0.4853340000000  0.4005110000000 1.0
C      1  0.4739700000000  0.4824460000000  0.3882340000000 1.0
C      1  0.4910990000000  0.5118540000000  0.3878930000000 1.0
C      1  0.5706510000000  0.4137630000000  0.4699000000000 1.0
C      1  0.3856440000000  0.4681380000000  0.4710100000000 1.0
C      1  0.5369860000000  0.6082070000000  0.4698590000000 1.0
C      1  0.4609400000000  0.5022740000000  0.4973790000000 1.0
C      1  0.5170600000000  0.5481090000000  0.5073420000000 1.0
C      1  0.5212550000000  0.4690350000000  0.5100690000000 1.0
C      1  0.5352250000000  0.5183590000000  0.6009400000000 1.0
C      1  0.4986860000000  0.4798640000000  0.6042060000000 1.0
C      1  0.4810160000000  0.5277200000000  0.6001280000000 1.0
C      1  0.5856750000000  0.5275820000000  0.5539920000000 1.0
C      1  0.4826120000000  0.4131280000000  0.5621810000000 1.0
C      1  0.4279240000000  0.5632790000000  0.5410480000000 1.0
C      1  0.5912750000000  0.4363270000000  0.4856430000000 1.0
C      1  0.4074650000000  0.4565080000000  0.4950400000000 1.0
C      1  0.5125330000000  0.6065600000000  0.4935660000000 1.0
C      1  0.4507740000000  0.5004440000000  0.4419420000000 1.0
C      1  0.5228510000000  0.5499330000000  0.4520550000000 1.0
C      1  0.5342920000000  0.4569270000000  0.4504140000000 1.0
C      1  0.4620530000000  0.4030680000000  0.5824270000000 1.0
C      1  0.4377870000000  0.5820890000000  0.5649130000000 1.0
C      1  0.5979230000000  0.5177710000000  0.5795290000000 1.0
C      1  0.5675870000000  0.5700970000000  0.4637510000000 1.0
C      1  0.5247660000000  0.4080830000000  0.4637580000000 1.0
C      1  0.3994210000000  0.5195680000000  0.4657930000000 1.0
C      1  0.4147270000000  0.4615570000000  0.4564200000000 1.0
C      1  0.5110100000000  0.5910110000000  0.4571760000000 1.0
C      1  0.5716470000000  0.4420290000000  0.4516060000000 1.0
C      1  0.5750220000000  0.4624710000000  0.4194500000000 1.0
C      1  0.4282120000000  0.4539200000000  0.4216810000000 1.0
C      1  0.4963190000000  0.6069230000000  0.4229090000000 1.0
C      1  0.4744630000000  0.5642480000000  0.4085510000000 1.0
C      1  0.5558610000000  0.5051680000000  0.4134090000000 1.0
C      1  0.4765630000000  0.4527780000000  0.4053220000000 1.0
C      1  0.4844480000000  0.4925740000000  0.4807020000000 1.0
C      1  0.5005170000000  0.5220630000000  0.5016950000000 1.0
C      1  0.5212700000000  0.4991310000000  0.4945350000000 1.0
C      1  0.4999840000000  0.5794650000000  0.4152850000000 1.0
C      1  0.5500900000000  0.4755380000000  0.4107210000000 1.0
C      1  0.4501900000000  0.4745450000000  0.4085860000000 1.0
C      1  0.5453640000000  0.6061090000000  0.5024080000000 1.0
C      1  0.5586490000000  0.3991100000000  0.4931160000000 1.0
C      1  0.3757200000000  0.4836250000000  0.4977110000000 1.0
C      1  0.5896540000000  0.5124150000000  0.4966290000000 1.0
C      1  0.4695670000000  0.4192000000000  0.5010980000000 1.0
C      1  0.4338950000000  0.5580850000000  0.5013740000000 1.0
C      1  0.4846800000000  0.5161630000000  0.5376900000000 1.0
C      1  0.5122710000000  0.5002550000000  0.5331030000000 1.0
C      1  0.4828390000000  0.4839070000000  0.5304920000000 1.0
C      1  0.5200960000000  0.4797230000000  0.4688900000000 1.0
C      1  0.4960820000000  0.5108090000000  0.4618820000000 1.0
C      1  0.5184710000000  0.5110000000000  0.4441520000000 1.0
C      1  0.5084750000000  0.5220670000000  0.4152770000000 1.0
C      1  0.5092110000000  0.4690200000000  0.4217240000000 1.0
C      1  0.4780880000000  0.5327710000000  0.4171630000000 1.0
C      1  0.4353120000000  0.4987710000000  0.4787150000000 1.0
C      1  0.5370940000000  0.5469780000000  0.4792240000000 1.0
C      1  0.5406340000000  0.4457860000000  0.4960560000000 1.0
C      1  0.5913560000000  0.4980720000000  0.5934910000000 1.0
C      1  0.4395660000000  0.4103520000000  0.5952170000000 1.0
C      1  0.4578060000000  0.5821190000000  0.5793340000000 1.0
C      1  0.5928220000000  0.4582060000000  0.5616900000000 1.0
C      1  0.4155130000000  0.4400120000000  0.5604600000000 1.0
C      1  0.4895300000000  0.5982380000000  0.5594440000000 1.0
C      1  0.4687430000000  0.4759030000000  0.4481130000000 1.0
C      1  0.4933220000000  0.5584820000000  0.4432930000000 1.0
C      1  0.5562680000000  0.4804120000000  0.4498610000000 1.0
C      1  0.5270660000000  0.5662330000000  0.4225440000000 1.0
C      1  0.5400410000000  0.4437650000000  0.4197000000000 1.0
C      1  0.4241420000000  0.4873050000000  0.4274840000000 1.0
C      1  0.5499760000000  0.4903840000000  0.5671750000000 1.0
C      1  0.4698100000000  0.4648430000000  0.5709370000000 1.0
C      1  0.4921060000000  0.5439130000000  0.5651700000000 1.0
C      1  0.5004580000000  0.4216810000000  0.5109120000000 1.0
C      1  0.4179360000000  0.5353310000000  0.5142740000000 1.0
C      1  0.5775090000000  0.5397480000000  0.5068770000000 1.0
C      1  0.4932450000000  0.4565070000000  0.5873200000000 1.0
C      1  0.4609220000000  0.5400660000000  0.5786130000000 1.0
C      1  0.5516720000000  0.5235920000000  0.5746350000000 1.0
C      1  0.4308110000000  0.5254150000000  0.4299380000000 1.0
C      1  0.5552780000000  0.5466660000000  0.4419840000000 1.0
C      1  0.5112830000000  0.4325560000000  0.4443550000000 1.0
C      1  0.5363970000000  0.6005850000000  0.5777970000000 1.0
C      1  0.5772790000000  0.4181810000000  0.5869860000000 1.0
C      1  0.3858550000000  0.4762670000000  0.5780330000000 1.0
C      1  0.4980340000000  0.4735730000000  0.4478210000000 1.0
C      1  0.4771400000000  0.5309120000000  0.4506760000000 1.0
C      1  0.5451340000000  0.5063540000000  0.4526720000000 1.0
C      1  0.4878730000000  0.5855860000000  0.4817650000000 1.0
C      1  0.5647510000000  0.4574270000000  0.4813670000000 1.0
C      1  0.4382710000000  0.4646650000000  0.4818530000000 1.0
C      1  0.4916110000000  0.4660300000000  0.4930100000000 1.0
C      1  0.4683030000000  0.5317510000000  0.5047840000000 1.0
C      1  0.5503320000000  0.5095850000000  0.5021380000000 1.0
C      1  0.4527710000000  0.4794820000000  0.5213670000000 1.0
C      1  0.4940270000000  0.5470790000000  0.5321100000000 1.0
C      1  0.5394690000000  0.4817990000000  0.5359390000000 1.0
C      1  0.5926960000000  0.5512030000000  0.5335540000000 1.0
C      1  0.4978840000000  0.3915170000000  0.5467200000000 1.0
C      1  0.4055200000000  0.5386990000000  0.5465050000000 1.0
END
