TITL C-2782236-320-133 -0.00132694466471982 125000 -957.521683599571 0 0 162 (C1) n - 1
REM
REM in /home/nfs/bkarasulu/CARBON/AIRSS/Generating-Clusters/REBO/Higher-Symm/SD-CG/HFTN-CG
REM
REM
REM
REM
REM
REM ./C.cell (12c818d87b63d06a65506943cc24bca4)
REM
REM compiler GCC version 9.2.1 20190827 (Red Hat 9.2.1-1)
REM options -cpp -mtune=generic -march=x86-64 -g -O0 -fpre-include=/usr/include/finclude/math-vector-fortran.h
REM seed 578560561 267336871 -1641256506 1229978632 -391406743 -1986695918 1916052558 -354553844 -1104363317 116122561 -1536961581 -1709835037 -2041060376 -674917300 -1357796460 -144203053 -1652860355 -1532746731 1782918882 546570217 -937861842 -463536126 529938766 -2056228456 -277524984 1601217532 1074577459 1008636677 1786378128 2070925414 -726629680 -83222511 -1017889326
REM
CELL 1.54180   50.00000   50.00000   50.00000   90.00000   90.00000   90.00000
LATT -1
SFAC C  
C      1  0.5759670000000  0.5574990000000  0.4836860000000 1.0
C      1  0.4828920000000  0.5771910000000  0.5586420000000 1.0
C      1  0.5606750000000  0.4833590000000  0.5787710000000 1.0
C      1  0.4229030000000  0.5585450000000  0.5179240000000 1.0
C      1  0.5760700000000  0.4421210000000  0.5179910000000 1.0
C      1  0.4242980000000  0.4407640000000  0.4854970000000 1.0
C      1  0.5157800000000  0.5768540000000  0.4407320000000 1.0
C      1  0.4840770000000  0.4208770000000  0.4388640000000 1.0
C      1  0.5166520000000  0.4219930000000  0.5602190000000 1.0
C      1  0.4431460000000  0.4832670000000  0.4247260000000 1.0
C      1  0.5599460000000  0.5162020000000  0.4225150000000 1.0
C      1  0.4418550000000  0.5178830000000  0.5785710000000 1.0
C      1  0.5749010000000  0.4427970000000  0.4860530000000 1.0
C      1  0.4828500000000  0.4231380000000  0.5588310000000 1.0
C      1  0.5604820000000  0.5156760000000  0.5787610000000 1.0
C      1  0.4235510000000  0.4403480000000  0.5176730000000 1.0
C      1  0.5761450000000  0.5572820000000  0.5176460000000 1.0
C      1  0.4219760000000  0.5595420000000  0.4839370000000 1.0
C      1  0.5161960000000  0.4236160000000  0.4408680000000 1.0
C      1  0.4836220000000  0.5790390000000  0.4392350000000 1.0
C      1  0.5168330000000  0.5771650000000  0.5589010000000 1.0
C      1  0.4434030000000  0.5172950000000  0.4247210000000 1.0
C      1  0.5578480000000  0.4843450000000  0.4252680000000 1.0
C      1  0.4416790000000  0.4839090000000  0.5784980000000 1.0
C      1  0.5609820000000  0.5204950000000  0.4847840000000 1.0
C      1  0.4845160000000  0.5554700000000  0.5132370000000 1.0
C      1  0.5174470000000  0.4827800000000  0.5521750000000 1.0
C      1  0.4451130000000  0.5141470000000  0.5159930000000 1.0
C      1  0.5532970000000  0.4879940000000  0.5188640000000 1.0
C      1  0.4490780000000  0.4863100000000  0.4879400000000 1.0
C      1  0.5127430000000  0.5518260000000  0.4855690000000 1.0
C      1  0.4826270000000  0.4477520000000  0.4825930000000 1.0
C      1  0.5165160000000  0.4447060000000  0.5162860000000 1.0
C      1  0.4807230000000  0.4841090000000  0.4381300000000 1.0
C      1  0.5138840000000  0.5173530000000  0.4467150000000 1.0
C      1  0.4850670000000  0.5174950000000  0.5560920000000 1.0
C      1  0.5540540000000  0.4905140000000  0.4880920000000 1.0
C      1  0.4847770000000  0.4441760000000  0.5134120000000 1.0
C      1  0.5153290000000  0.5135920000000  0.5527740000000 1.0
C      1  0.4496990000000  0.4837710000000  0.5186890000000 1.0
C      1  0.5607980000000  0.5180180000000  0.5159090000000 1.0
C      1  0.4453790000000  0.5165690000000  0.4843860000000 1.0
C      1  0.5132610000000  0.4473740000000  0.4859820000000 1.0
C      1  0.4820540000000  0.5513750000000  0.4825090000000 1.0
C      1  0.5162000000000  0.5548730000000  0.5157860000000 1.0
C      1  0.4837760000000  0.5151710000000  0.4386220000000 1.0
C      1  0.5105340000000  0.4866740000000  0.4454880000000 1.0
C      1  0.4870480000000  0.4859130000000  0.5564090000000 1.0
C      1  0.5297500000000  0.4717460000000  0.4280900000000 1.0
C      1  0.4219110000000  0.5303660000000  0.4695070000000 1.0
C      1  0.4695370000000  0.4223770000000  0.5295940000000 1.0
C      1  0.4710650000000  0.4699670000000  0.5781560000000 1.0
C      1  0.5326860000000  0.5286150000000  0.5721970000000 1.0
C      1  0.4699230000000  0.5361140000000  0.4177130000000 1.0
C      1  0.5827400000000  0.5306670000000  0.5362810000000 1.0
C      1  0.4284310000000  0.4674220000000  0.5315390000000 1.0
C      1  0.5712930000000  0.4709670000000  0.4733130000000 1.0
C      1  0.5284270000000  0.4280550000000  0.4689970000000 1.0
C      1  0.4691590000000  0.5729270000000  0.4662350000000 1.0
C      1  0.5311860000000  0.5781090000000  0.5298820000000 1.0
C      1  0.5325990000000  0.5303420000000  0.4272030000000 1.0
C      1  0.4298540000000  0.4688470000000  0.4730160000000 1.0
C      1  0.4691490000000  0.5773490000000  0.5293940000000 1.0
C      1  0.4707730000000  0.5321290000000  0.5793420000000 1.0
C      1  0.5333970000000  0.4695620000000  0.5735560000000 1.0
C      1  0.4690420000000  0.4632640000000  0.4160980000000 1.0
C      1  0.5730070000000  0.4695450000000  0.5315470000000 1.0
C      1  0.4228810000000  0.5293960000000  0.5318630000000 1.0
C      1  0.5836730000000  0.5311940000000  0.4642720000000 1.0
C      1  0.5279260000000  0.5712730000000  0.4687590000000 1.0
C      1  0.4697150000000  0.4263330000000  0.4660620000000 1.0
C      1  0.5309950000000  0.4217150000000  0.5311460000000 1.0
C      1  0.5152350000000  0.5609930000000  0.3913740000000 1.0
C      1  0.3949860000000  0.5148260000000  0.5694650000000 1.0
C      1  0.5684970000000  0.3948500000000  0.5152200000000 1.0
C      1  0.4871100000000  0.5694870000000  0.6058220000000 1.0
C      1  0.5122320000000  0.4400040000000  0.6083140000000 1.0
C      1  0.4902560000000  0.4279340000000  0.3914010000000 1.0
C      1  0.6074630000000  0.5097230000000  0.4285130000000 1.0
C      1  0.3947660000000  0.4862860000000  0.4413640000000 1.0
C      1  0.6095990000000  0.4856620000000  0.5618110000000 1.0
C      1  0.4404090000000  0.3914860000000  0.4882180000000 1.0
C      1  0.5595940000000  0.6060380000000  0.4867980000000 1.0
C      1  0.4316880000000  0.6055050000000  0.5153490000000 1.0
C      1  0.5163170000000  0.4397350000000  0.3917250000000 1.0
C      1  0.3932240000000  0.4875220000000  0.5612620000000 1.0
C      1  0.5688090000000  0.6045010000000  0.5138190000000 1.0
C      1  0.4849110000000  0.4320440000000  0.6058730000000 1.0
C      1  0.5140620000000  0.5600570000000  0.6071510000000 1.0
C      1  0.4887970000000  0.5718350000000  0.3917530000000 1.0
C      1  0.6071420000000  0.4837430000000  0.4405100000000 1.0
C      1  0.3961240000000  0.5132290000000  0.4318860000000 1.0
C      1  0.6083170000000  0.5121570000000  0.5725400000000 1.0
C      1  0.4397830000000  0.6076690000000  0.4880620000000 1.0
C      1  0.5599200000000  0.3934080000000  0.4880550000000 1.0
C      1  0.4326200000000  0.3933190000000  0.5155390000000 1.0
C      1  0.4727860000000  0.3965340000000  0.4819010000000 1.0
C      1  0.4882920000000  0.4800370000000  0.3935900000000 1.0
C      1  0.3991150000000  0.4828900000000  0.4740760000000 1.0
C      1  0.5199950000000  0.3952000000000  0.5142800000000 1.0
C      1  0.4799570000000  0.6048790000000  0.5127550000000 1.0
C      1  0.5268750000000  0.6018200000000  0.4830220000000 1.0
C      1  0.5175970000000  0.4723900000000  0.6030760000000 1.0
C      1  0.4880030000000  0.5203190000000  0.6059870000000 1.0
C      1  0.5180860000000  0.5280030000000  0.3968360000000 1.0
C      1  0.6037440000000  0.4829730000000  0.5288760000000 1.0
C      1  0.3955140000000  0.5125250000000  0.5210040000000 1.0
C      1  0.6066110000000  0.5121530000000  0.4806310000000 1.0
C      1  0.4721120000000  0.6022860000000  0.4828310000000 1.0
C      1  0.4887590000000  0.5199770000000  0.3944520000000 1.0
C      1  0.3954360000000  0.5127050000000  0.4812160000000 1.0
C      1  0.5197330000000  0.6050150000000  0.5129180000000 1.0
C      1  0.4802170000000  0.3953290000000  0.5136600000000 1.0
C      1  0.5271800000000  0.3972800000000  0.4825510000000 1.0
C      1  0.5179250000000  0.5273890000000  0.6026270000000 1.0
C      1  0.4878670000000  0.4805260000000  0.6057730000000 1.0
C      1  0.5177610000000  0.4728360000000  0.3967460000000 1.0
C      1  0.6064340000000  0.5121920000000  0.5205900000000 1.0
C      1  0.3985360000000  0.4827940000000  0.5288400000000 1.0
C      1  0.6028390000000  0.4826960000000  0.4736950000000 1.0
C      1  0.4729040000000  0.4391480000000  0.5817470000000 1.0
C      1  0.5788020000000  0.4733960000000  0.4431490000000 1.0
C      1  0.4396450000000  0.5810390000000  0.4732870000000 1.0
C      1  0.5270290000000  0.4416940000000  0.4199790000000 1.0
C      1  0.4741150000000  0.5656270000000  0.4145560000000 1.0
C      1  0.5273790000000  0.5587790000000  0.5798070000000 1.0
C      1  0.4201710000000  0.4733330000000  0.5610610000000 1.0
C      1  0.5851290000000  0.5260580000000  0.5658520000000 1.0
C      1  0.4193120000000  0.5269290000000  0.4390740000000 1.0
C      1  0.5615900000000  0.5811600000000  0.5272110000000 1.0
C      1  0.4390320000000  0.4173830000000  0.5277480000000 1.0
C      1  0.5584050000000  0.4208940000000  0.4748910000000 1.0
C      1  0.4734520000000  0.5625460000000  0.5825440000000 1.0
C      1  0.5853700000000  0.5254920000000  0.4348460000000 1.0
C      1  0.4403750000000  0.4184690000000  0.4740060000000 1.0
C      1  0.5272670000000  0.5599230000000  0.4191040000000 1.0
C      1  0.4746790000000  0.4338500000000  0.4137390000000 1.0
C      1  0.5269670000000  0.4399630000000  0.5816660000000 1.0
C      1  0.4188430000000  0.5274590000000  0.5626000000000 1.0
C      1  0.5821950000000  0.4729690000000  0.5610410000000 1.0
C      1  0.4221440000000  0.4731130000000  0.4429560000000 1.0
C      1  0.5615890000000  0.4184410000000  0.5282500000000 1.0
C      1  0.4385840000000  0.5815380000000  0.5276790000000 1.0
C      1  0.5579940000000  0.5787040000000  0.4734750000000 1.0
C      1  0.4604580000000  0.5005650000000  0.6011520000000 1.0
C      1  0.5374430000000  0.5003120000000  0.4014810000000 1.0
C      1  0.5375450000000  0.4997320000000  0.5992140000000 1.0
C      1  0.5981000000000  0.5384110000000  0.5005230000000 1.0
C      1  0.4998100000000  0.6000850000000  0.5403360000000 1.0
C      1  0.4624530000000  0.5000900000000  0.4029090000000 1.0
C      1  0.4000330000000  0.5401240000000  0.5011910000000 1.0
C      1  0.5983850000000  0.4633880000000  0.5014790000000 1.0
C      1  0.4026650000000  0.4629450000000  0.5014780000000 1.0
C      1  0.4995160000000  0.5985340000000  0.4629720000000 1.0
C      1  0.5001460000000  0.4009120000000  0.4621680000000 1.0
C      1  0.4997320000000  0.3992780000000  0.5412780000000 1.0
C      1  0.6314770000000  0.5169120000000  0.5006750000000 1.0
C      1  0.4997770000000  0.6309310000000  0.5157970000000 1.0
C      1  0.5001390000000  0.3735730000000  0.4998370000000 1.0
C      1  0.4833590000000  0.5005560000000  0.3691550000000 1.0
C      1  0.4851520000000  0.5003330000000  0.6318750000000 1.0
C      1  0.3694620000000  0.5152380000000  0.5011400000000 1.0
END
