TITL C-2782225-7408-480 -0.00219482389990294 125000 -565.41230559548 0 0 97 (C1) n - 1
REM
REM in /home/nfs/bkarasulu/CARBON/AIRSS/Generating-Clusters/REBO/Higher-Symm/SD-CG/HFTN-CG
REM
REM
REM
REM
REM
REM ./C.cell (12c818d87b63d06a65506943cc24bca4)
REM
REM compiler GCC version 9.2.1 20190827 (Red Hat 9.2.1-1)
REM options -cpp -mtune=generic -march=x86-64 -g -O0 -fpre-include=/usr/include/finclude/math-vector-fortran.h
REM seed 1808895851 786643325 -1066399713 -244364827 -199864478 1156247459 1314031501 1221329032 125495715 -615319792 1359420224 634427598 -645428784 -635832196 1900698807 1063061881 -446985022 -764210613 805946036 -658279535 -2048639367 1104055203 2033738815 227161773 548903085 842869649 2034070495 -1945755496 781707288 1730010380 -463280939 -1625354928 248910002
REM
CELL 1.54180   50.00000   50.00000   50.00000   90.00000   90.00000   90.00000
LATT -1
SFAC C  
C      1  0.4483230000000  0.4576090000000  0.4507290000000 1.0
C      1  0.5305190000000  0.4622770000000  0.4345560000000 1.0
C      1  0.5705910000000  0.4543570000000  0.5081600000000 1.0
C      1  0.5162060000000  0.4530100000000  0.5737350000000 1.0
C      1  0.4455640000000  0.4634270000000  0.5300310000000 1.0
C      1  0.5523610000000  0.5410040000000  0.4494640000000 1.0
C      1  0.4688330000000  0.5422670000000  0.4338640000000 1.0
C      1  0.4295330000000  0.5408900000000  0.5099420000000 1.0
C      1  0.4848460000000  0.5447610000000  0.5720100000000 1.0
C      1  0.5632670000000  0.5446580000000  0.5345800000000 1.0
C      1  0.4353770000000  0.5459360000000  0.4788540000000 1.0
C      1  0.4994420000000  0.5425850000000  0.4417260000000 1.0
C      1  0.5614660000000  0.5432640000000  0.4795570000000 1.0
C      1  0.5379410000000  0.5482970000000  0.5513240000000 1.0
C      1  0.4596950000000  0.5533630000000  0.5558770000000 1.0
C      1  0.5559290000000  0.4565620000000  0.4815020000000 1.0
C      1  0.5001560000000  0.4579740000000  0.4342090000000 1.0
C      1  0.4476750000000  0.4611310000000  0.4822430000000 1.0
C      1  0.4676080000000  0.4564940000000  0.5494520000000 1.0
C      1  0.5397030000000  0.4565990000000  0.5545470000000 1.0
C      1  0.4769250000000  0.5117790000000  0.4298700000000 1.0
C      1  0.5576000000000  0.5105610000000  0.4571220000000 1.0
C      1  0.5482810000000  0.5139580000000  0.5337680000000 1.0
C      1  0.4854540000000  0.5118850000000  0.5733010000000 1.0
C      1  0.4319670000000  0.5114720000000  0.4986900000000 1.0
C      1  0.5223990000000  0.4927090000000  0.4330890000000 1.0
C      1  0.4524860000000  0.4902910000000  0.4554070000000 1.0
C      1  0.4543510000000  0.4926870000000  0.5390130000000 1.0
C      1  0.5145480000000  0.4854160000000  0.5662240000000 1.0
C      1  0.5602500000000  0.4863780000000  0.5077300000000 1.0
C      1  0.3942600000000  0.4934700000000  0.4748710000000 1.0
C      1  0.4873750000000  0.4945420000000  0.3868840000000 1.0
C      1  0.6012790000000  0.4909490000000  0.4595320000000 1.0
C      1  0.5722850000000  0.5003970000000  0.5748210000000 1.0
C      1  0.4484530000000  0.4927570000000  0.5968310000000 1.0
C      1  0.6045070000000  0.4971220000000  0.4862460000000 1.0
C      1  0.5128880000000  0.5056500000000  0.3879370000000 1.0
C      1  0.4047690000000  0.5001000000000  0.4501910000000 1.0
C      1  0.4288560000000  0.5015970000000  0.5793500000000 1.0
C      1  0.5516890000000  0.5051090000000  0.5924910000000 1.0
C      1  0.5272210000000  0.5114770000000  0.4118110000000 1.0
C      1  0.5859530000000  0.5052730000000  0.5047100000000 1.0
C      1  0.5257530000000  0.5082230000000  0.5841740000000 1.0
C      1  0.4336340000000  0.5085380000000  0.5522410000000 1.0
C      1  0.4304110000000  0.5075930000000  0.4442680000000 1.0
C      1  0.4713130000000  0.4914360000000  0.4103370000000 1.0
C      1  0.4109400000000  0.4918380000000  0.4978500000000 1.0
C      1  0.4755920000000  0.4898780000000  0.5885900000000 1.0
C      1  0.5683470000000  0.4946660000000  0.5482100000000 1.0
C      1  0.5752870000000  0.4898840000000  0.4479450000000 1.0
C      1  0.5342380000000  0.4727140000000  0.5248850000000 1.0
C      1  0.4983130000000  0.4694170000000  0.5419790000000 1.0
C      1  0.4744880000000  0.4763400000000  0.4973600000000 1.0
C      1  0.4830940000000  0.4754330000000  0.4585860000000 1.0
C      1  0.5283920000000  0.4762410000000  0.4858300000000 1.0
C      1  0.4746850000000  0.5367610000000  0.5299690000000 1.0
C      1  0.5142570000000  0.5345890000000  0.5314840000000 1.0
C      1  0.5414470000000  0.5277400000000  0.5034330000000 1.0
C      1  0.5018990000000  0.5259840000000  0.4713600000000 1.0
C      1  0.4656290000000  0.5321690000000  0.4870250000000 1.0
C      1  0.4428590000000  0.4380810000000  0.5072500000000 1.0
C      1  0.4748080000000  0.4385670000000  0.4457480000000 1.0
C      1  0.5387000000000  0.4395370000000  0.4576630000000 1.0
C      1  0.5520620000000  0.4373380000000  0.5293480000000 1.0
C      1  0.4917240000000  0.4347550000000  0.5602940000000 1.0
C      1  0.5599860000000  0.5627740000000  0.5072800000000 1.0
C      1  0.5264150000000  0.5623270000000  0.4489280000000 1.0
C      1  0.4585630000000  0.5604800000000  0.4597070000000 1.0
C      1  0.4463590000000  0.5643590000000  0.5264770000000 1.0
C      1  0.5084790000000  0.5637680000000  0.5580140000000 1.0
C      1  0.4227810000000  0.4655100000000  0.5046760000000 1.0
C      1  0.4682690000000  0.4640040000000  0.4234200000000 1.0
C      1  0.5614000000000  0.4634560000000  0.4488370000000 1.0
C      1  0.5698450000000  0.4648990000000  0.5405950000000 1.0
C      1  0.4838750000000  0.4629910000000  0.5786290000000 1.0
C      1  0.5803890000000  0.5348130000000  0.5067890000000 1.0
C      1  0.5287350000000  0.5383410000000  0.4249150000000 1.0
C      1  0.4379550000000  0.5363890000000  0.4465180000000 1.0
C      1  0.4333470000000  0.5368820000000  0.5429520000000 1.0
C      1  0.5175620000000  0.5354520000000  0.5753800000000 1.0
C      1  0.4750020000000  0.4427550000000  0.5044920000000 1.0
C      1  0.4885260000000  0.4461980000000  0.4752960000000 1.0
C      1  0.5180720000000  0.4441460000000  0.4819580000000 1.0
C      1  0.5231760000000  0.4423340000000  0.5133070000000 1.0
C      1  0.4951830000000  0.4386320000000  0.5267790000000 1.0
C      1  0.5270000000000  0.5586400000000  0.5023200000000 1.0
C      1  0.5108960000000  0.5586260000000  0.4764220000000 1.0
C      1  0.4804080000000  0.5631770000000  0.4818370000000 1.0
C      1  0.4758920000000  0.5667460000000  0.5126670000000 1.0
C      1  0.5047840000000  0.5662400000000  0.5253990000000 1.0
C      1  0.5162610000000  0.5048090000000  0.5407760000000 1.0
C      1  0.4821900000000  0.5078920000000  0.5409620000000 1.0
C      1  0.4985600000000  0.5021670000000  0.4507000000000 1.0
C      1  0.4590440000000  0.5007820000000  0.4846810000000 1.0
C      1  0.5441570000000  0.5034800000000  0.4830710000000 1.0
C      1  0.4955830000000  0.5332770000000  0.5032950000000 1.0
C      1  0.5039410000000  0.4771710000000  0.5095520000000 1.0
END
