TITL C-2782233-7966-351 1.39020923024273e-06 125000 -201.327359262938 0 0 36 (C1) n - 1
REM
REM in /home/nfs/bkarasulu/CARBON/AIRSS/Generating-Clusters/REBO/Higher-Symm/SD-CG/HFTN-CG
REM
REM
REM
REM
REM
REM ./C.cell (12c818d87b63d06a65506943cc24bca4)
REM
REM compiler GCC version 9.2.1 20190827 (Red Hat 9.2.1-1)
REM options -cpp -mtune=generic -march=x86-64 -g -O0 -fpre-include=/usr/include/finclude/math-vector-fortran.h
REM seed 2093046603 826278491 -1455583482 -1439060280 -1081022262 1034095655 242118317 1562675637 -588799645 1894870470 -1464877031 -1380925813 -1250063625 2016318860 1825317273 707136929 328654474 -1139695969 -1482726842 -1908044704 1512314525 -786466552 -1585344944 -1247691135 955010925 852504019 -125147668 -1229655184 966757432 -1852458189 -376529554 1036114499 -936360966
REM
CELL 1.54180   50.00000   50.00000   50.00000   90.00000   90.00000   90.00000
LATT -1
SFAC C  
C      1  0.5429080000000  0.4757410000000  0.5390920000000 1.0
C      1  0.5219410000000  0.4869840000000  0.5514850000000 1.0
C      1  0.5060130000000  0.5145660000000  0.5413260000000 1.0
C      1  0.4928600000000  0.5174700000000  0.5115090000000 1.0
C      1  0.4934340000000  0.5012210000000  0.4831950000000 1.0
C      1  0.5057140000000  0.4754190000000  0.4676910000000 1.0
C      1  0.5186910000000  0.4462450000000  0.4753120000000 1.0
C      1  0.5402770000000  0.4398720000000  0.5000460000000 1.0
C      1  0.5545600000000  0.4483280000000  0.5240380000000 1.0
C      1  0.5419940000000  0.5453810000000  0.5067650000000 1.0
C      1  0.5423060000000  0.5446930000000  0.4782710000000 1.0
C      1  0.5417600000000  0.5217050000000  0.4614300000000 1.0
C      1  0.5664050000000  0.5121240000000  0.4513980000000 1.0
C      1  0.5887560000000  0.5004730000000  0.4616080000000 1.0
C      1  0.5976580000000  0.4935850000000  0.4864130000000 1.0
C      1  0.5868160000000  0.4968200000000  0.5123880000000 1.0
C      1  0.5848600000000  0.5232500000000  0.5223660000000 1.0
C      1  0.5670100000000  0.5436800000000  0.5199450000000 1.0
C      1  0.4649170000000  0.5131670000000  0.4946460000000 1.0
C      1  0.5209630000000  0.5044920000000  0.4652200000000 1.0
C      1  0.4930650000000  0.4477470000000  0.4529980000000 1.0
C      1  0.5363710000000  0.4173920000000  0.4777880000000 1.0
C      1  0.5660650000000  0.4283190000000  0.5395650000000 1.0
C      1  0.5695170000000  0.4779950000000  0.5222170000000 1.0
C      1  0.5041500000000  0.4789150000000  0.5763060000000 1.0
C      1  0.4905810000000  0.5046000000000  0.5683020000000 1.0
C      1  0.5201310000000  0.5343680000000  0.5190270000000 1.0
C      1  0.3547980000000  0.5212970000000  0.4721980000000 1.0
C      1  0.3543480000000  0.5348320000000  0.4957920000000 1.0
C      1  0.3726600000000  0.5420250000000  0.5145140000000 1.0
C      1  0.3991370000000  0.5399170000000  0.5196430000000 1.0
C      1  0.4230580000000  0.5306290000000  0.5113240000000 1.0
C      1  0.4383410000000  0.5167550000000  0.4920810000000 1.0
C      1  0.4238480000000  0.5069020000000  0.4699640000000 1.0
C      1  0.4003310000000  0.5040180000000  0.4570650000000 1.0
C      1  0.3737560000000  0.5090730000000  0.4570730000000 1.0
END
