TITL C-2782232-2968-249 -6.31143862935312e-06 125000 -843.256652669279 0 0 148 (C1) n - 1
REM
REM in /home/nfs/bkarasulu/CARBON/AIRSS/Generating-Clusters/REBO/Higher-Symm/SD-CG/HFTN-CG
REM
REM
REM
REM
REM
REM ./C.cell (12c818d87b63d06a65506943cc24bca4)
REM
REM compiler GCC version 9.2.1 20190827 (Red Hat 9.2.1-1)
REM options -cpp -mtune=generic -march=x86-64 -g -O0 -fpre-include=/usr/include/finclude/math-vector-fortran.h
REM seed 1135636677 -1324348361 906046880 -1157105386 1251472401 1789676634 1373954617 1207994972 525261977 847733410 -87821183 1514755984 323739313 -311121905 572818274 1735538693 65048979 1791042135 535964038 2017720813 -939010784 -525642426 1208583590 -1636879509 1747620436 345327197 1656253473 -1753143949 -702954633 -1191073815 1589506840 709883014 1940881628
REM
CELL 1.54180   50.00000   50.00000   50.00000   90.00000   90.00000   90.00000
LATT -1
SFAC C  
C      1  0.5481540000000  0.5732620000000  0.4527520000000 1.0
C      1  0.4545350000000  0.5705870000000  0.5458120000000 1.0
C      1  0.5481270000000  0.4314410000000  0.5529620000000 1.0
C      1  0.4554980000000  0.4329000000000  0.4508460000000 1.0
C      1  0.5567940000000  0.4663410000000  0.4169460000000 1.0
C      1  0.4430990000000  0.4634720000000  0.5817290000000 1.0
C      1  0.5648830000000  0.5380600000000  0.5853620000000 1.0
C      1  0.4363400000000  0.5314450000000  0.4143470000000 1.0
C      1  0.5399480000000  0.5232610000000  0.5353580000000 1.0
C      1  0.4571110000000  0.5144950000000  0.4671070000000 1.0
C      1  0.5332100000000  0.4727720000000  0.4672450000000 1.0
C      1  0.4662530000000  0.4756810000000  0.5351600000000 1.0
C      1  0.4222960000000  0.4200680000000  0.4851450000000 1.0
C      1  0.5769510000000  0.4171720000000  0.5118610000000 1.0
C      1  0.4252810000000  0.5765260000000  0.5038410000000 1.0
C      1  0.5803130000000  0.5813620000000  0.4934820000000 1.0
C      1  0.4382660000000  0.5173230000000  0.4385950000000 1.0
C      1  0.5615000000000  0.5218840000000  0.5624160000000 1.0
C      1  0.4428120000000  0.4774230000000  0.5571610000000 1.0
C      1  0.5557810000000  0.4793200000000  0.4420050000000 1.0
C      1  0.4567970000000  0.5772210000000  0.5147060000000 1.0
C      1  0.5484570000000  0.5852190000000  0.4845910000000 1.0
C      1  0.4503400000000  0.4056160000000  0.4832770000000 1.0
C      1  0.5463780000000  0.4177440000000  0.5154350000000 1.0
C      1  0.4851960000000  0.6103970000000  0.5427560000000 1.0
C      1  0.5104390000000  0.6054230000000  0.4472590000000 1.0
C      1  0.4897640000000  0.3975110000000  0.4479530000000 1.0
C      1  0.5167690000000  0.3961330000000  0.5395910000000 1.0
C      1  0.5647180000000  0.4215310000000  0.4803940000000 1.0
C      1  0.4346080000000  0.4216470000000  0.5159810000000 1.0
C      1  0.5645360000000  0.5794840000000  0.5209900000000 1.0
C      1  0.4439470000000  0.5772670000000  0.4763000000000 1.0
C      1  0.4571600000000  0.4393800000000  0.4847820000000 1.0
C      1  0.5382390000000  0.4449510000000  0.5139600000000 1.0
C      1  0.4697230000000  0.5513940000000  0.5002790000000 1.0
C      1  0.5426240000000  0.5527620000000  0.4865740000000 1.0
C      1  0.4416180000000  0.4603770000000  0.4982360000000 1.0
C      1  0.5596120000000  0.4656030000000  0.5127640000000 1.0
C      1  0.4485620000000  0.5287290000000  0.5034830000000 1.0
C      1  0.5557060000000  0.5307610000000  0.4928700000000 1.0
C      1  0.4888100000000  0.5145570000000  0.4649080000000 1.0
C      1  0.5079120000000  0.5140930000000  0.5432420000000 1.0
C      1  0.4990810000000  0.4833430000000  0.5382390000000 1.0
C      1  0.5010810000000  0.4843050000000  0.4684850000000 1.0
C      1  0.4947520000000  0.4357610000000  0.4219320000000 1.0
C      1  0.5040410000000  0.4273290000000  0.5737400000000 1.0
C      1  0.4969320000000  0.5725640000000  0.5731110000000 1.0
C      1  0.5025370000000  0.5643040000000  0.4267090000000 1.0
C      1  0.4837560000000  0.4870650000000  0.4980720000000 1.0
C      1  0.5157520000000  0.4874920000000  0.5084380000000 1.0
C      1  0.4894630000000  0.5155130000000  0.5166810000000 1.0
C      1  0.5088700000000  0.5164520000000  0.4907810000000 1.0
C      1  0.4752380000000  0.4332740000000  0.5594890000000 1.0
C      1  0.5231150000000  0.4409800000000  0.4367450000000 1.0
C      1  0.4769380000000  0.5588640000000  0.4455530000000 1.0
C      1  0.5248340000000  0.5679870000000  0.5576570000000 1.0
C      1  0.4137260000000  0.5147500000000  0.4546530000000 1.0
C      1  0.5855350000000  0.5188820000000  0.5456100000000 1.0
C      1  0.4189600000000  0.4857420000000  0.5459110000000 1.0
C      1  0.5796390000000  0.4856100000000  0.4554720000000 1.0
C      1  0.4174900000000  0.4801230000000  0.5129980000000 1.0
C      1  0.5786580000000  0.4792300000000  0.4881150000000 1.0
C      1  0.4219940000000  0.5228460000000  0.4856930000000 1.0
C      1  0.5806060000000  0.5258820000000  0.5124160000000 1.0
C      1  0.4710070000000  0.5945170000000  0.4817140000000 1.0
C      1  0.5324180000000  0.5818170000000  0.5209720000000 1.0
C      1  0.4665660000000  0.4182200000000  0.5173850000000 1.0
C      1  0.5327890000000  0.4124510000000  0.4784560000000 1.0
C      1  0.5404180000000  0.5341330000000  0.4183190000000 1.0
C      1  0.4612560000000  0.5366060000000  0.5829710000000 1.0
C      1  0.5426410000000  0.4578000000000  0.5832680000000 1.0
C      1  0.4535090000000  0.4624250000000  0.4088700000000 1.0
C      1  0.5114110000000  0.5385600000000  0.4149980000000 1.0
C      1  0.4889440000000  0.5467730000000  0.5864030000000 1.0
C      1  0.5137010000000  0.4529940000000  0.5858820000000 1.0
C      1  0.4817760000000  0.4616590000000  0.4153860000000 1.0
C      1  0.4870780000000  0.5000910000000  0.3986370000000 1.0
C      1  0.5115870000000  0.5033790000000  0.6015970000000 1.0
C      1  0.4844650000000  0.5000430000000  0.5971150000000 1.0
C      1  0.5147490000000  0.5007530000000  0.4025180000000 1.0
C      1  0.5258080000000  0.4129280000000  0.5607030000000 1.0
C      1  0.4769500000000  0.4176000000000  0.4344380000000 1.0
C      1  0.5218700000000  0.5830720000000  0.4356830000000 1.0
C      1  0.4763720000000  0.5877800000000  0.5608860000000 1.0
C      1  0.4714570000000  0.5435120000000  0.5506970000000 1.0
C      1  0.5296450000000  0.5458730000000  0.4495920000000 1.0
C      1  0.4710480000000  0.4625200000000  0.4556820000000 1.0
C      1  0.5298160000000  0.4594180000000  0.5499600000000 1.0
C      1  0.4336750000000  0.4738740000000  0.4311460000000 1.0
C      1  0.5636890000000  0.4734870000000  0.5657170000000 1.0
C      1  0.4369550000000  0.5283020000000  0.5636910000000 1.0
C      1  0.5631880000000  0.5271710000000  0.4394250000000 1.0
C      1  0.4885240000000  0.4398810000000  0.4742160000000 1.0
C      1  0.5096080000000  0.4472320000000  0.5257110000000 1.0
C      1  0.4879940000000  0.5541960000000  0.5263220000000 1.0
C      1  0.5151490000000  0.5655550000000  0.4732450000000 1.0
C      1  0.5266210000000  0.5105470000000  0.5783700000000 1.0
C      1  0.4730020000000  0.5049430000000  0.4232470000000 1.0
C      1  0.5219540000000  0.4953700000000  0.4286760000000 1.0
C      1  0.4768290000000  0.4919640000000  0.5718510000000 1.0
C      1  0.4870900000000  0.5289840000000  0.4367470000000 1.0
C      1  0.5139070000000  0.5370510000000  0.5666740000000 1.0
C      1  0.4902830000000  0.4636320000000  0.5646090000000 1.0
C      1  0.5059970000000  0.4704000000000  0.4380390000000 1.0
C      1  0.5204200000000  0.5510770000000  0.5294630000000 1.0
C      1  0.4841110000000  0.5641880000000  0.4746550000000 1.0
C      1  0.5195450000000  0.4412310000000  0.4691550000000 1.0
C      1  0.4778000000000  0.4477060000000  0.5301720000000 1.0
C      1  0.4991020000000  0.4157900000000  0.5202200000000 1.0
C      1  0.4996000000000  0.4074280000000  0.4759340000000 1.0
C      1  0.5016080000000  0.6000350000000  0.4749780000000 1.0
C      1  0.5001120000000  0.5850540000000  0.5256680000000 1.0
C      1  0.4358260000000  0.5589120000000  0.4167500000000 1.0
C      1  0.5677570000000  0.5650940000000  0.5802760000000 1.0
C      1  0.4405950000000  0.4361770000000  0.5790850000000 1.0
C      1  0.5590030000000  0.4389460000000  0.4194000000000 1.0
C      1  0.4630290000000  0.5114830000000  0.5520470000000 1.0
C      1  0.5352460000000  0.5122740000000  0.4511480000000 1.0
C      1  0.4614750000000  0.4849360000000  0.4406930000000 1.0
C      1  0.5367860000000  0.4905780000000  0.5617290000000 1.0
C      1  0.5634940000000  0.5482700000000  0.5301590000000 1.0
C      1  0.4411740000000  0.5445280000000  0.4677280000000 1.0
C      1  0.5620820000000  0.4541720000000  0.4740590000000 1.0
C      1  0.4283020000000  0.4514190000000  0.5280120000000 1.0
C      1  0.5738830000000  0.4344270000000  0.5387490000000 1.0
C      1  0.4241950000000  0.4388500000000  0.4623680000000 1.0
C      1  0.5766010000000  0.5625780000000  0.4679490000000 1.0
C      1  0.4249790000000  0.5611950000000  0.5320470000000 1.0
C      1  0.5517360000000  0.4983550000000  0.5153630000000 1.0
C      1  0.4469760000000  0.4919580000000  0.4888520000000 1.0
C      1  0.5431780000000  0.5018350000000  0.4825780000000 1.0
C      1  0.4537700000000  0.5017710000000  0.5207490000000 1.0
C      1  0.4772040000000  0.3959700000000  0.4940350000000 1.0
C      1  0.5233140000000  0.3972670000000  0.5064060000000 1.0
C      1  0.4751250000000  0.6035680000000  0.5117690000000 1.0
C      1  0.5230850000000  0.5995550000000  0.4950600000000 1.0
C      1  0.4467900000000  0.5672620000000  0.4438120000000 1.0
C      1  0.5552150000000  0.5722120000000  0.5529860000000 1.0
C      1  0.4434580000000  0.4285210000000  0.5482240000000 1.0
C      1  0.5531390000000  0.4315490000000  0.4499370000000 1.0
C      1  0.5802620000000  0.5346300000000  0.4615390000000 1.0
C      1  0.4194760000000  0.5347170000000  0.5414360000000 1.0
C      1  0.5791790000000  0.4659120000000  0.5400450000000 1.0
C      1  0.4179710000000  0.4656980000000  0.4546350000000 1.0
C      1  0.5845400000000  0.4941490000000  0.5244460000000 1.0
C      1  0.4162270000000  0.4898490000000  0.4760840000000 1.0
C      1  0.5868100000000  0.5098560000000  0.4750560000000 1.0
C      1  0.4120120000000  0.5106130000000  0.5277570000000 1.0
END
