TITL C-2782239-8622-1134 0.00068183765400208 125000 -1013.86162781784 0 0 174 (C1) n - 1
REM
REM in /home/nfs/bkarasulu/CARBON/AIRSS/Generating-Clusters/REBO/Higher-Symm/SD-CG/HFTN-CG
REM
REM
REM
REM
REM
REM ./C.cell (12c818d87b63d06a65506943cc24bca4)
REM
REM compiler GCC version 9.2.1 20190827 (Red Hat 9.2.1-1)
REM options -cpp -mtune=generic -march=x86-64 -g -O0 -fpre-include=/usr/include/finclude/math-vector-fortran.h
REM seed 307017167 -216081812 -1396150198 1808932546 1521571589 -388317431 -357784976 537345731 -511094382 -1139782354 935343623 -1393517165 -1781054556 1777314905 -1909074720 1656570450 -662965724 1147474129 -868779372 -1784224890 576139542 392456930 1662211875 1862047945 -347370179 -1353151892 -72569942 531391293 -432503482 -758673254 -1392621220 1848581554 979132964
REM
CELL 1.54180   50.00000   50.00000   50.00000   90.00000   90.00000   90.00000
LATT -1
SFAC C  
C      1  0.4325940000000  0.4748730000000  0.5897580000000 1.0
C      1  0.4242580000000  0.4622070000000  0.4400500000000 1.0
C      1  0.5613180000000  0.4626830000000  0.4246640000000 1.0
C      1  0.5824530000000  0.4763330000000  0.5680550000000 1.0
C      1  0.4330900000000  0.5311360000000  0.5870100000000 1.0
C      1  0.4251700000000  0.5340480000000  0.4441830000000 1.0
C      1  0.5589340000000  0.5363900000000  0.4239280000000 1.0
C      1  0.5818830000000  0.5289820000000  0.5715490000000 1.0
C      1  0.4810560000000  0.6008880000000  0.5143390000000 1.0
C      1  0.4782780000000  0.5962030000000  0.4803580000000 1.0
C      1  0.5124710000000  0.5929950000000  0.4820800000000 1.0
C      1  0.5152560000000  0.6016040000000  0.5151090000000 1.0
C      1  0.4882130000000  0.4008670000000  0.5127850000000 1.0
C      1  0.4831370000000  0.3990730000000  0.4789330000000 1.0
C      1  0.5162380000000  0.4055070000000  0.4846390000000 1.0
C      1  0.5216500000000  0.3953920000000  0.5168370000000 1.0
C      1  0.5087910000000  0.4690560000000  0.5963050000000 1.0
C      1  0.4062220000000  0.4733020000000  0.5114470000000 1.0
C      1  0.4946160000000  0.4733920000000  0.4086380000000 1.0
C      1  0.5926870000000  0.4714790000000  0.4955680000000 1.0
C      1  0.5066750000000  0.5276940000000  0.5921470000000 1.0
C      1  0.4099690000000  0.5282350000000  0.5104440000000 1.0
C      1  0.4934110000000  0.5285190000000  0.4059950000000 1.0
C      1  0.5933380000000  0.5286520000000  0.4956500000000 1.0
C      1  0.4908060000000  0.6039750000000  0.5736070000000 1.0
C      1  0.4305430000000  0.6021670000000  0.4948980000000 1.0
C      1  0.4995170000000  0.5981450000000  0.4226690000000 1.0
C      1  0.5666650000000  0.6030870000000  0.5001840000000 1.0
C      1  0.4963150000000  0.3977550000000  0.5694350000000 1.0
C      1  0.4422860000000  0.4148070000000  0.4842820000000 1.0
C      1  0.5007640000000  0.4024460000000  0.4261510000000 1.0
C      1  0.5714250000000  0.3963340000000  0.4995910000000 1.0
C      1  0.5224600000000  0.4813380000000  0.4839510000000 1.0
C      1  0.5145790000000  0.4792890000000  0.5243010000000 1.0
C      1  0.4806300000000  0.4787820000000  0.5270440000000 1.0
C      1  0.4786130000000  0.4802000000000  0.4719890000000 1.0
C      1  0.5237250000000  0.5129850000000  0.4781430000000 1.0
C      1  0.5172160000000  0.5189030000000  0.5271580000000 1.0
C      1  0.4914790000000  0.5124020000000  0.5091050000000 1.0
C      1  0.4840950000000  0.5188230000000  0.4806070000000 1.0
C      1  0.5991350000000  0.4885770000000  0.5486860000000 1.0
C      1  0.4546220000000  0.4874170000000  0.6032820000000 1.0
C      1  0.4092730000000  0.4810810000000  0.4548840000000 1.0
C      1  0.5480810000000  0.4822800000000  0.4095650000000 1.0
C      1  0.5989470000000  0.5195030000000  0.5510700000000 1.0
C      1  0.4538540000000  0.5191430000000  0.6018620000000 1.0
C      1  0.4096000000000  0.5143220000000  0.4574040000000 1.0
C      1  0.5459220000000  0.5152700000000  0.4073990000000 1.0
C      1  0.4177490000000  0.4357630000000  0.4762830000000 1.0
C      1  0.5220330000000  0.4278740000000  0.4175950000000 1.0
C      1  0.5773410000000  0.4237730000000  0.5192810000000 1.0
C      1  0.4779860000000  0.4244280000000  0.5806010000000 1.0
C      1  0.4263650000000  0.5713540000000  0.4813500000000 1.0
C      1  0.5219070000000  0.5733530000000  0.4148970000000 1.0
C      1  0.5731110000000  0.5754670000000  0.5192810000000 1.0
C      1  0.4778800000000  0.5740710000000  0.5839330000000 1.0
C      1  0.4068130000000  0.5158310000000  0.5383740000000 1.0
C      1  0.4662820000000  0.5143990000000  0.4053760000000 1.0
C      1  0.5965090000000  0.5141100000000  0.4680150000000 1.0
C      1  0.5349040000000  0.5136420000000  0.5898980000000 1.0
C      1  0.4051690000000  0.4873880000000  0.5395450000000 1.0
C      1  0.4667530000000  0.4862230000000  0.4049630000000 1.0
C      1  0.5961900000000  0.4857330000000  0.4683180000000 1.0
C      1  0.5359110000000  0.4852140000000  0.5894920000000 1.0
C      1  0.4992730000000  0.5270170000000  0.5619470000000 1.0
C      1  0.4398160000000  0.5243700000000  0.5018290000000 1.0
C      1  0.5013430000000  0.5284510000000  0.4362300000000 1.0
C      1  0.5626940000000  0.5268770000000  0.5017440000000 1.0
C      1  0.5021270000000  0.4709840000000  0.5659840000000 1.0
C      1  0.4335460000000  0.4853920000000  0.4962770000000 1.0
C      1  0.5008110000000  0.4733590000000  0.4395370000000 1.0
C      1  0.5615470000000  0.4719090000000  0.5011210000000 1.0
C      1  0.4469110000000  0.5195300000000  0.5406450000000 1.0
C      1  0.4643340000000  0.5344580000000  0.4497910000000 1.0
C      1  0.5521520000000  0.5346570000000  0.4604460000000 1.0
C      1  0.5410120000000  0.5418250000000  0.5495780000000 1.0
C      1  0.4448510000000  0.4855930000000  0.5433450000000 1.0
C      1  0.4629670000000  0.4639470000000  0.4482060000000 1.0
C      1  0.5523980000000  0.4661790000000  0.4626800000000 1.0
C      1  0.5430220000000  0.4559130000000  0.5487520000000 1.0
C      1  0.5131870000000  0.4484650000000  0.5495330000000 1.0
C      1  0.4443010000000  0.4644810000000  0.5193580000000 1.0
C      1  0.4918700000000  0.4468860000000  0.4544600000000 1.0
C      1  0.5446830000000  0.4483390000000  0.4877630000000 1.0
C      1  0.5095130000000  0.5526120000000  0.5469630000000 1.0
C      1  0.4533550000000  0.5462860000000  0.5199850000000 1.0
C      1  0.4916500000000  0.5546830000000  0.4511740000000 1.0
C      1  0.5450670000000  0.5483330000000  0.4867910000000 1.0
C      1  0.4725690000000  0.4478280000000  0.5166140000000 1.0
C      1  0.4838020000000  0.4505890000000  0.4856190000000 1.0
C      1  0.5151820000000  0.4536100000000  0.4913630000000 1.0
C      1  0.5041270000000  0.4475160000000  0.5197170000000 1.0
C      1  0.4787980000000  0.5616630000000  0.5071200000000 1.0
C      1  0.4896640000000  0.5496750000000  0.4804940000000 1.0
C      1  0.5173050000000  0.5384150000000  0.4910030000000 1.0
C      1  0.5047720000000  0.5491090000000  0.5173600000000 1.0
C      1  0.5107850000000  0.4250900000000  0.4482380000000 1.0
C      1  0.5504380000000  0.4224260000000  0.4998510000000 1.0
C      1  0.4915470000000  0.4255290000000  0.5504090000000 1.0
C      1  0.4458890000000  0.4482920000000  0.4892870000000 1.0
C      1  0.5099360000000  0.5765570000000  0.4449370000000 1.0
C      1  0.5477120000000  0.5752090000000  0.4977910000000 1.0
C      1  0.4923440000000  0.5757130000000  0.5537660000000 1.0
C      1  0.4512700000000  0.5760120000000  0.5031180000000 1.0
C      1  0.4613340000000  0.5672770000000  0.4272570000000 1.0
C      1  0.5702370000000  0.5700340000000  0.4623220000000 1.0
C      1  0.5313480000000  0.5744020000000  0.5720720000000 1.0
C      1  0.4297600000000  0.5736330000000  0.5365720000000 1.0
C      1  0.4653530000000  0.4300150000000  0.4274210000000 1.0
C      1  0.5715930000000  0.4311480000000  0.4637000000000 1.0
C      1  0.5354310000000  0.4245580000000  0.5723460000000 1.0
C      1  0.4316290000000  0.4283070000000  0.5305880000000 1.0
C      1  0.5199810000000  0.4867770000000  0.3972320000000 1.0
C      1  0.6066500000000  0.4843050000000  0.5187270000000 1.0
C      1  0.4859310000000  0.4833140000000  0.6101190000000 1.0
C      1  0.3960950000000  0.4870850000000  0.4831180000000 1.0
C      1  0.5175490000000  0.5164310000000  0.3929290000000 1.0
C      1  0.6061460000000  0.5154270000000  0.5201460000000 1.0
C      1  0.4841220000000  0.5138700000000  0.6071680000000 1.0
C      1  0.3955810000000  0.5172880000000  0.4859030000000 1.0
C      1  0.4605460000000  0.5983790000000  0.5348620000000 1.0
C      1  0.4609430000000  0.5885450000000  0.4581320000000 1.0
C      1  0.5342930000000  0.5862240000000  0.4617580000000 1.0
C      1  0.5307020000000  0.5961690000000  0.5390240000000 1.0
C      1  0.4644910000000  0.4061050000000  0.5285840000000 1.0
C      1  0.4601310000000  0.4070760000000  0.4594480000000 1.0
C      1  0.5360330000000  0.4141510000000  0.4635360000000 1.0
C      1  0.5372650000000  0.4009110000000  0.5407840000000 1.0
C      1  0.5792880000000  0.4726670000000  0.4492020000000 1.0
C      1  0.5549040000000  0.4717400000000  0.5727940000000 1.0
C      1  0.4217600000000  0.4770140000000  0.5635730000000 1.0
C      1  0.4480760000000  0.4725660000000  0.4213130000000 1.0
C      1  0.5799420000000  0.5263380000000  0.4487700000000 1.0
C      1  0.5536080000000  0.5290400000000  0.5746430000000 1.0
C      1  0.4238060000000  0.5282420000000  0.5606620000000 1.0
C      1  0.4489230000000  0.5267150000000  0.4242690000000 1.0
C      1  0.5518070000000  0.5719460000000  0.5439960000000 1.0
C      1  0.4580420000000  0.5730950000000  0.5559080000000 1.0
C      1  0.4378640000000  0.5638960000000  0.4522650000000 1.0
C      1  0.5475360000000  0.5659950000000  0.4365810000000 1.0
C      1  0.5564200000000  0.4271310000000  0.5447190000000 1.0
C      1  0.4574810000000  0.4276660000000  0.5530900000000 1.0
C      1  0.4388220000000  0.4327180000000  0.4489570000000 1.0
C      1  0.5483170000000  0.4348210000000  0.4384650000000 1.0
C      1  0.4531450000000  0.5166200000000  0.4746570000000 1.0
C      1  0.5293770000000  0.5170310000000  0.4462780000000 1.0
C      1  0.5486720000000  0.5164120000000  0.5281670000000 1.0
C      1  0.4784110000000  0.5213650000000  0.5381500000000 1.0
C      1  0.4465520000000  0.4859040000000  0.4683990000000 1.0
C      1  0.5283700000000  0.4845460000000  0.4506820000000 1.0
C      1  0.5468700000000  0.4823660000000  0.5276130000000 1.0
C      1  0.4729640000000  0.4804640000000  0.5582010000000 1.0
C      1  0.4719570000000  0.3998880000000  0.4296920000000 1.0
C      1  0.5656620000000  0.4011250000000  0.4701510000000 1.0
C      1  0.5248870000000  0.3949040000000  0.5679180000000 1.0
C      1  0.4396530000000  0.4043260000000  0.5121040000000 1.0
C      1  0.4715910000000  0.5979420000000  0.4283070000000 1.0
C      1  0.5628680000000  0.5994410000000  0.4704730000000 1.0
C      1  0.5196690000000  0.6030020000000  0.5662400000000 1.0
C      1  0.4322950000000  0.6034330000000  0.5250300000000 1.0
C      1  0.5843190000000  0.4409400000000  0.4905190000000 1.0
C      1  0.5089790000000  0.4373210000000  0.5874440000000 1.0
C      1  0.4123670000000  0.4427180000000  0.5094280000000 1.0
C      1  0.4911620000000  0.4422490000000  0.4148770000000 1.0
C      1  0.5832540000000  0.5593320000000  0.4907990000000 1.0
C      1  0.5085700000000  0.5592980000000  0.5863380000000 1.0
C      1  0.4165230000000  0.5590450000000  0.5116830000000 1.0
C      1  0.4906840000000  0.5597250000000  0.4117620000000 1.0
C      1  0.4614040000000  0.4991440000000  0.5096150000000 1.0
C      1  0.4931810000000  0.5029360000000  0.4544380000000 1.0
C      1  0.5498370000000  0.4998000000000  0.4918920000000 1.0
C      1  0.5080010000000  0.4981990000000  0.5510800000000 1.0
C      1  0.4977540000000  0.6217700000000  0.4931300000000 1.0
C      1  0.5031120000000  0.3758120000000  0.4950430000000 1.0
END
