TITL C-2782233-7966-421 0.00475717177099723 125000 -1043.80710367497 0 0 179 (C1) n - 1
REM
REM in /home/nfs/bkarasulu/CARBON/AIRSS/Generating-Clusters/REBO/Higher-Symm/SD-CG/HFTN-CG
REM
REM
REM
REM
REM
REM ./C.cell (12c818d87b63d06a65506943cc24bca4)
REM
REM compiler GCC version 9.2.1 20190827 (Red Hat 9.2.1-1)
REM options -cpp -mtune=generic -march=x86-64 -g -O0 -fpre-include=/usr/include/finclude/math-vector-fortran.h
REM seed 172096531 2066976251 -226961661 1542230672 1868799178 1683498430 1013332415 1110897736 1466985187 -1859619924 833466688 -406628505 164980885 -700993969 195239936 1059428651 -453482310 312855842 -1957965302 -1103339328 482644054 848422922 -252360807 -491152657 54786189 -1325392026 -1023714825 -1400593719 -43143169 -501748550 -2032378231 139126049 -2105244958
REM
CELL 1.54180   50.00000   50.00000   50.00000   90.00000   90.00000   90.00000
LATT -1
SFAC C  
C      1  0.4692290000000  0.5925880000000  0.4980850000000 1.0
C      1  0.6066380000000  0.5384670000000  0.4966720000000 1.0
C      1  0.5341900000000  0.3971900000000  0.5085200000000 1.0
C      1  0.4035260000000  0.4555140000000  0.5007090000000 1.0
C      1  0.4735710000000  0.5567230000000  0.5843090000000 1.0
C      1  0.5603730000000  0.5372730000000  0.4156550000000 1.0
C      1  0.5405910000000  0.4405820000000  0.5869040000000 1.0
C      1  0.4408860000000  0.4745950000000  0.4133650000000 1.0
C      1  0.4280640000000  0.5673710000000  0.5367830000000 1.0
C      1  0.5716710000000  0.5733260000000  0.4625510000000 1.0
C      1  0.5695440000000  0.4290490000000  0.5377710000000 1.0
C      1  0.4210140000000  0.4194980000000  0.4658080000000 1.0
C      1  0.5313490000000  0.4744550000000  0.5591040000000 1.0
C      1  0.4490820000000  0.4595600000000  0.4367290000000 1.0
C      1  0.4681440000000  0.5347590000000  0.5590850000000 1.0
C      1  0.5213160000000  0.5495320000000  0.4434020000000 1.0
C      1  0.5923560000000  0.4686050000000  0.4767150000000 1.0
C      1  0.4666790000000  0.4060550000000  0.5271920000000 1.0
C      1  0.3914920000000  0.5309750000000  0.4786250000000 1.0
C      1  0.5404340000000  0.5917770000000  0.5286860000000 1.0
C      1  0.4330830000000  0.4678200000000  0.5748450000000 1.0
C      1  0.4691270000000  0.5532900000000  0.4451270000000 1.0
C      1  0.5662090000000  0.5368180000000  0.5653770000000 1.0
C      1  0.5341240000000  0.4454950000000  0.4312320000000 1.0
C      1  0.3851570000000  0.5107280000000  0.5011140000000 1.0
C      1  0.5221020000000  0.5998800000000  0.5054700000000 1.0
C      1  0.5810010000000  0.4932680000000  0.4959240000000 1.0
C      1  0.4882700000000  0.4176790000000  0.5054460000000 1.0
C      1  0.4778520000000  0.5080780000000  0.4897580000000 1.0
C      1  0.5144370000000  0.5445640000000  0.5187160000000 1.0
C      1  0.5229190000000  0.4896400000000  0.4851060000000 1.0
C      1  0.4903530000000  0.4690900000000  0.5209220000000 1.0
C      1  0.5621140000000  0.4112850000000  0.5111760000000 1.0
C      1  0.4206530000000  0.4268340000000  0.4973360000000 1.0
C      1  0.4437840000000  0.5788280000000  0.5124210000000 1.0
C      1  0.5912830000000  0.5664090000000  0.4882210000000 1.0
C      1  0.4303070000000  0.5269620000000  0.5031730000000 1.0
C      1  0.5407760000000  0.5557210000000  0.4806230000000 1.0
C      1  0.5667800000000  0.4610210000000  0.5144180000000 1.0
C      1  0.4560700000000  0.4360560000000  0.4748320000000 1.0
C      1  0.5257810000000  0.5858150000000  0.4745700000000 1.0
C      1  0.5914490000000  0.4804980000000  0.5257630000000 1.0
C      1  0.4821760000000  0.4058720000000  0.4759020000000 1.0
C      1  0.3950290000000  0.5188820000000  0.5259800000000 1.0
C      1  0.4740840000000  0.4359020000000  0.6016200000000 1.0
C      1  0.4280690000000  0.5164270000000  0.4195820000000 1.0
C      1  0.5201430000000  0.5742410000000  0.5929190000000 1.0
C      1  0.5783710000000  0.4874020000000  0.4092110000000 1.0
C      1  0.4596750000000  0.5034520000000  0.4402600000000 1.0
C      1  0.5210270000000  0.5237460000000  0.5598040000000 1.0
C      1  0.5330110000000  0.4964720000000  0.4391660000000 1.0
C      1  0.4818120000000  0.4654760000000  0.5720240000000 1.0
C      1  0.5746260000000  0.4825880000000  0.5733980000000 1.0
C      1  0.4956040000000  0.4359040000000  0.4357940000000 1.0
C      1  0.4281320000000  0.5036120000000  0.5577710000000 1.0
C      1  0.5226350000000  0.5849190000000  0.4252720000000 1.0
C      1  0.4574240000000  0.4531680000000  0.5669880000000 1.0
C      1  0.4504420000000  0.5292200000000  0.4537600000000 1.0
C      1  0.5427520000000  0.5405600000000  0.5466380000000 1.0
C      1  0.5412260000000  0.4665430000000  0.4530990000000 1.0
C      1  0.4138760000000  0.4795520000000  0.4134310000000 1.0
C      1  0.4708400000000  0.5870630000000  0.5773280000000 1.0
C      1  0.5884550000000  0.5308700000000  0.4207330000000 1.0
C      1  0.5238990000000  0.4135820000000  0.5812980000000 1.0
C      1  0.4954050000000  0.4595720000000  0.3903770000000 1.0
C      1  0.4622210000000  0.5164440000000  0.5863630000000 1.0
C      1  0.5064010000000  0.5499770000000  0.4149480000000 1.0
C      1  0.5321510000000  0.5007190000000  0.5781050000000 1.0
C      1  0.4837370000000  0.4873570000000  0.3916730000000 1.0
C      1  0.4965290000000  0.5293670000000  0.6021600000000 1.0
C      1  0.5258240000000  0.5289930000000  0.3975080000000 1.0
C      1  0.5244050000000  0.4748610000000  0.5984660000000 1.0
C      1  0.4917970000000  0.6013050000000  0.5202020000000 1.0
C      1  0.6010320000000  0.5109540000000  0.4794800000000 1.0
C      1  0.5063930000000  0.4016620000000  0.5253280000000 1.0
C      1  0.3904210000000  0.4639600000000  0.4712010000000 1.0
C      1  0.4683070000000  0.5528310000000  0.4150050000000 1.0
C      1  0.5594590000000  0.5378430000000  0.5922210000000 1.0
C      1  0.5324010000000  0.4561530000000  0.4050820000000 1.0
C      1  0.4457680000000  0.4789480000000  0.5988520000000 1.0
C      1  0.4358430000000  0.4539890000000  0.5097280000000 1.0
C      1  0.4625430000000  0.5598150000000  0.4945750000000 1.0
C      1  0.5723500000000  0.5388270000000  0.4983630000000 1.0
C      1  0.5332470000000  0.4306450000000  0.5010160000000 1.0
C      1  0.4281740000000  0.5720450000000  0.4758250000000 1.0
C      1  0.5923560000000  0.5662090000000  0.5216050000000 1.0
C      1  0.5724120000000  0.4215440000000  0.4845060000000 1.0
C      1  0.4319710000000  0.4237060000000  0.5355620000000 1.0
C      1  0.4571080000000  0.4796590000000  0.4563940000000 1.0
C      1  0.4833820000000  0.5347530000000  0.5286790000000 1.0
C      1  0.5221250000000  0.5202170000000  0.4551860000000 1.0
C      1  0.5003180000000  0.4686310000000  0.5495940000000 1.0
C      1  0.5743890000000  0.5393670000000  0.4643140000000 1.0
C      1  0.5350340000000  0.4282640000000  0.5349180000000 1.0
C      1  0.4028920000000  0.4435030000000  0.4498220000000 1.0
C      1  0.4507310000000  0.5894470000000  0.5500740000000 1.0
C      1  0.5310540000000  0.4204890000000  0.4468620000000 1.0
C      1  0.4116000000000  0.4674530000000  0.5545890000000 1.0
C      1  0.4801960000000  0.5836560000000  0.4537900000000 1.0
C      1  0.5886910000000  0.5247620000000  0.5523540000000 1.0
C      1  0.4227470000000  0.5237240000000  0.4710550000000 1.0
C      1  0.5265880000000  0.5675560000000  0.5407190000000 1.0
C      1  0.5718940000000  0.4720570000000  0.4544520000000 1.0
C      1  0.4602920000000  0.4260880000000  0.5517840000000 1.0
C      1  0.4973550000000  0.4471670000000  0.4995070000000 1.0
C      1  0.4601230000000  0.4845710000000  0.4840710000000 1.0
C      1  0.5026400000000  0.5545280000000  0.4924060000000 1.0
C      1  0.5517390000000  0.5048250000000  0.4951120000000 1.0
C      1  0.5523640000000  0.5536690000000  0.4425130000000 1.0
C      1  0.5494060000000  0.4486020000000  0.5568610000000 1.0
C      1  0.4338740000000  0.4371990000000  0.4416940000000 1.0
C      1  0.4464190000000  0.5588720000000  0.5631770000000 1.0
C      1  0.4917620000000  0.5149330000000  0.4627410000000 1.0
C      1  0.5110830000000  0.5075610000000  0.5364850000000 1.0
C      1  0.5056390000000  0.4843170000000  0.4558120000000 1.0
C      1  0.4800920000000  0.5021770000000  0.5404830000000 1.0
C      1  0.4610610000000  0.4970770000000  0.4079220000000 1.0
C      1  0.5032950000000  0.5424180000000  0.5758500000000 1.0
C      1  0.5443200000000  0.5079000000000  0.4134180000000 1.0
C      1  0.5077970000000  0.4499000000000  0.5859600000000 1.0
C      1  0.4505760000000  0.5828790000000  0.4642080000000 1.0
C      1  0.6015690000000  0.5439890000000  0.5359050000000 1.0
C      1  0.5542640000000  0.4159300000000  0.4633790000000 1.0
C      1  0.4126540000000  0.4425640000000  0.5401600000000 1.0
C      1  0.4004900000000  0.4769160000000  0.4427360000000 1.0
C      1  0.4843760000000  0.5941630000000  0.5471770000000 1.0
C      1  0.5926970000000  0.5169140000000  0.4501250000000 1.0
C      1  0.5116730000000  0.4136010000000  0.5533110000000 1.0
C      1  0.5916510000000  0.4416500000000  0.4904860000000 1.0
C      1  0.4390780000000  0.4029120000000  0.5107100000000 1.0
C      1  0.4093700000000  0.5570810000000  0.4885640000000 1.0
C      1  0.5686750000000  0.5836020000000  0.5181610000000 1.0
C      1  0.5086810000000  0.5873160000000  0.4497910000000 1.0
C      1  0.5878140000000  0.4959740000000  0.5517570000000 1.0
C      1  0.5010440000000  0.4117220000000  0.4545180000000 1.0
C      1  0.4020680000000  0.4980460000000  0.5445520000000 1.0
C      1  0.5248790000000  0.4558020000000  0.4810490000000 1.0
C      1  0.4598420000000  0.4671860000000  0.5064150000000 1.0
C      1  0.4634240000000  0.5350900000000  0.4824230000000 1.0
C      1  0.5460510000000  0.5308010000000  0.5168050000000 1.0
C      1  0.5349450000000  0.5193840000000  0.6058980000000 1.0
C      1  0.5211520000000  0.4788760000000  0.3817620000000 1.0
C      1  0.4763140000000  0.4941210000000  0.6042510000000 1.0
C      1  0.4861780000000  0.5324230000000  0.3944360000000 1.0
C      1  0.4344590000000  0.5137220000000  0.5830390000000 1.0
C      1  0.5370490000000  0.5604250000000  0.4063780000000 1.0
C      1  0.5569590000000  0.4703590000000  0.5894790000000 1.0
C      1  0.4948030000000  0.4385520000000  0.4080650000000 1.0
C      1  0.5057820000000  0.5740190000000  0.5629770000000 1.0
C      1  0.5820250000000  0.4912710000000  0.4356690000000 1.0
C      1  0.4871360000000  0.4260460000000  0.5720300000000 1.0
C      1  0.4175340000000  0.5059330000000  0.4432420000000 1.0
C      1  0.3856670000000  0.4837030000000  0.4960950000000 1.0
C      1  0.4952160000000  0.6096410000000  0.4870540000000 1.0
C      1  0.6304410000000  0.5174790000000  0.4919570000000 1.0
C      1  0.5159990000000  0.3718220000000  0.5165210000000 1.0
C      1  0.4761290000000  0.3788060000000  0.5379980000000 1.0
C      1  0.3719100000000  0.5350980000000  0.4593890000000 1.0
C      1  0.5430190000000  0.6145500000000  0.5491620000000 1.0
C      1  0.6187270000000  0.4744890000000  0.4676910000000 1.0
C      1  0.4785270000000  0.4502730000000  0.4753570000000 1.0
C      1  0.4536220000000  0.5212990000000  0.5185110000000 1.0
C      1  0.5382730000000  0.5292760000000  0.4779500000000 1.0
C      1  0.5427830000000  0.4695030000000  0.5131120000000 1.0
C      1  0.4913500000000  0.4588740000000  0.4522750000000 1.0
C      1  0.4502380000000  0.4998040000000  0.5403770000000 1.0
C      1  0.4963830000000  0.5488660000000  0.4647700000000 1.0
C      1  0.5304960000000  0.4849370000000  0.5298680000000 1.0
C      1  0.4529640000000  0.5274450000000  0.4013160000000 1.0
C      1  0.5337450000000  0.5532980000000  0.6031090000000 1.0
C      1  0.5506560000000  0.4828090000000  0.3951090000000 1.0
C      1  0.4692750000000  0.4612220000000  0.6097490000000 1.0
C      1  0.5556350000000  0.5841420000000  0.4906110000000 1.0
C      1  0.5950170000000  0.4464360000000  0.5234380000000 1.0
C      1  0.4483100000000  0.4044050000000  0.4794500000000 1.0
C      1  0.4110470000000  0.5473200000000  0.5210920000000 1.0
C      1  0.5056340000000  0.5091330000000  0.3819950000000 1.0
C      1  0.5067380000000  0.5004380000000  0.6088890000000 1.0
C      1  0.5004160000000  0.4967440000000  0.5064880000000 1.0
END
