TITL C-2782227-3064-90 0.0022063002142846 125000 -645.345141309787 0 0 113 (C1) n - 1
REM
REM in /home/nfs/bkarasulu/CARBON/AIRSS/Generating-Clusters/REBO/Higher-Symm/SD-CG/HFTN-CG
REM
REM
REM
REM
REM
REM ./C.cell (12c818d87b63d06a65506943cc24bca4)
REM
REM compiler GCC version 9.2.1 20190827 (Red Hat 9.2.1-1)
REM options -cpp -mtune=generic -march=x86-64 -g -O0 -fpre-include=/usr/include/finclude/math-vector-fortran.h
REM seed -561659093 1925701073 -1136088192 945950287 1334230311 792196466 -1795605164 -193451620 580998861 1894321843 -1153716909 -1881708320 -937934948 -851207215 -412467531 110059982 181954023 -372914047 -1138751942 1105092357 -508514874 1377117293 27137609 725224361 69845496 -2078253313 -1866843476 1893602925 -2052492266 -310635497 -1381431655 -1316382737 -1233701821
REM
CELL 1.54180   50.00000   50.00000   50.00000   90.00000   90.00000   90.00000
LATT -1
SFAC C  
C      1  0.4667680000000  0.4369080000000  0.5666630000000 1.0
C      1  0.4638420000000  0.4431460000000  0.4540610000000 1.0
C      1  0.4793540000000  0.5617200000000  0.4217610000000 1.0
C      1  0.4661930000000  0.5606380000000  0.5591860000000 1.0
C      1  0.5593170000000  0.5797090000000  0.4635140000000 1.0
C      1  0.5671630000000  0.5257260000000  0.5724770000000 1.0
C      1  0.5541340000000  0.4143290000000  0.5546630000000 1.0
C      1  0.5546650000000  0.4612210000000  0.4137420000000 1.0
C      1  0.5411780000000  0.5051700000000  0.4511630000000 1.0
C      1  0.5609080000000  0.5489940000000  0.5071940000000 1.0
C      1  0.5359990000000  0.4874170000000  0.5445710000000 1.0
C      1  0.5192170000000  0.4618990000000  0.4847210000000 1.0
C      1  0.5390470000000  0.5696760000000  0.4942880000000 1.0
C      1  0.5243450000000  0.4985190000000  0.5744780000000 1.0
C      1  0.5219090000000  0.4307250000000  0.4794970000000 1.0
C      1  0.5287050000000  0.5101880000000  0.4234310000000 1.0
C      1  0.5312290000000  0.4105190000000  0.5035670000000 1.0
C      1  0.5012270000000  0.4985810000000  0.4071110000000 1.0
C      1  0.5132530000000  0.5871350000000  0.5027550000000 1.0
C      1  0.5043880000000  0.5087490000000  0.5953760000000 1.0
C      1  0.4783300000000  0.4962070000000  0.5587050000000 1.0
C      1  0.4882900000000  0.4368190000000  0.5002550000000 1.0
C      1  0.4792370000000  0.5090500000000  0.4492140000000 1.0
C      1  0.4819370000000  0.5537910000000  0.4887040000000 1.0
C      1  0.4550620000000  0.5365870000000  0.5466590000000 1.0
C      1  0.4624540000000  0.4528290000000  0.5392360000000 1.0
C      1  0.4476100000000  0.4670990000000  0.4717240000000 1.0
C      1  0.4719800000000  0.5482000000000  0.4501880000000 1.0
C      1  0.4029030000000  0.5208790000000  0.4385630000000 1.0
C      1  0.4307430000000  0.5715110000000  0.4894290000000 1.0
C      1  0.4240720000000  0.4770040000000  0.5561830000000 1.0
C      1  0.4297930000000  0.4272640000000  0.4958570000000 1.0
C      1  0.4803220000000  0.4156140000000  0.5670200000000 1.0
C      1  0.4638140000000  0.4499390000000  0.4263470000000 1.0
C      1  0.4916960000000  0.5839470000000  0.4242380000000 1.0
C      1  0.4658010000000  0.5555850000000  0.5873540000000 1.0
C      1  0.4345340000000  0.5237390000000  0.5663220000000 1.0
C      1  0.4665380000000  0.4211370000000  0.5299110000000 1.0
C      1  0.4357310000000  0.4816300000000  0.4449200000000 1.0
C      1  0.4663660000000  0.5798290000000  0.4548490000000 1.0
C      1  0.5263840000000  0.4785510000000  0.4115840000000 1.0
C      1  0.5259830000000  0.5806220000000  0.4645200000000 1.0
C      1  0.5414050000000  0.5231100000000  0.5616180000000 1.0
C      1  0.5256390000000  0.4143930000000  0.5369150000000 1.0
C      1  0.6008520000000  0.4690210000000  0.5451760000000 1.0
C      1  0.5854210000000  0.4707490000000  0.4788090000000 1.0
C      1  0.5968400000000  0.5192960000000  0.4776970000000 1.0
C      1  0.5984300000000  0.5748810000000  0.5688860000000 1.0
C      1  0.4971440000000  0.5422460000000  0.5095100000000 1.0
C      1  0.4981540000000  0.4775460000000  0.5529450000000 1.0
C      1  0.4827820000000  0.4486540000000  0.4756830000000 1.0
C      1  0.4978620000000  0.5299530000000  0.4604390000000 1.0
C      1  0.5790860000000  0.4536410000000  0.5498680000000 1.0
C      1  0.5686040000000  0.4654300000000  0.4582780000000 1.0
C      1  0.5788260000000  0.5390370000000  0.4714780000000 1.0
C      1  0.5856490000000  0.5520180000000  0.5604590000000 1.0
C      1  0.5793700000000  0.4249190000000  0.5525480000000 1.0
C      1  0.5761910000000  0.4648270000000  0.4304870000000 1.0
C      1  0.5827570000000  0.5671090000000  0.4696540000000 1.0
C      1  0.5982470000000  0.5220710000000  0.5708030000000 1.0
C      1  0.5494380000000  0.5344050000000  0.4649420000000 1.0
C      1  0.5668110000000  0.5544970000000  0.5360990000000 1.0
C      1  0.5522770000000  0.4626330000000  0.5516460000000 1.0
C      1  0.5407950000000  0.4602550000000  0.4603250000000 1.0
C      1  0.5426420000000  0.4773290000000  0.4964120000000 1.0
C      1  0.5561730000000  0.4980240000000  0.4794230000000 1.0
C      1  0.5591710000000  0.5213450000000  0.5014040000000 1.0
C      1  0.5463310000000  0.4982860000000  0.5178640000000 1.0
C      1  0.4556430000000  0.4776720000000  0.4235450000000 1.0
C      1  0.4980130000000  0.5920050000000  0.4549380000000 1.0
C      1  0.4563820000000  0.5274550000000  0.5887430000000 1.0
C      1  0.4945340000000  0.4057330000000  0.5401820000000 1.0
C      1  0.5380200000000  0.5563890000000  0.4453740000000 1.0
C      1  0.5386950000000  0.5419640000000  0.5396320000000 1.0
C      1  0.5318770000000  0.4388550000000  0.5597250000000 1.0
C      1  0.5274610000000  0.4516200000000  0.4314740000000 1.0
C      1  0.5302230000000  0.5400070000000  0.4221090000000 1.0
C      1  0.5224300000000  0.5511680000000  0.5176570000000 1.0
C      1  0.5179570000000  0.4648130000000  0.5718080000000 1.0
C      1  0.5214550000000  0.4264130000000  0.4516180000000 1.0
C      1  0.4312890000000  0.5419180000000  0.4840710000000 1.0
C      1  0.4368030000000  0.4660270000000  0.5295860000000 1.0
C      1  0.4337090000000  0.4572750000000  0.4967750000000 1.0
C      1  0.4052450000000  0.5325510000000  0.4654680000000 1.0
C      1  0.4903660000000  0.4791580000000  0.4785870000000 1.0
C      1  0.5216420000000  0.5178390000000  0.4760450000000 1.0
C      1  0.4901610000000  0.5157900000000  0.5163580000000 1.0
C      1  0.5104560000000  0.4800120000000  0.5231270000000 1.0
C      1  0.4089940000000  0.5210680000000  0.4973820000000 1.0
C      1  0.4118180000000  0.5096850000000  0.5262990000000 1.0
C      1  0.4168160000000  0.4832150000000  0.5075190000000 1.0
C      1  0.4058730000000  0.4942960000000  0.4786500000000 1.0
C      1  0.4771310000000  0.4965230000000  0.4246780000000 1.0
C      1  0.4919040000000  0.5802230000000  0.4852570000000 1.0
C      1  0.4779390000000  0.5079980000000  0.5851580000000 1.0
C      1  0.4987840000000  0.4120740000000  0.5079340000000 1.0
C      1  0.5517750000000  0.3932090000000  0.4971000000000 1.0
C      1  0.4962660000000  0.5078940000000  0.3787850000000 1.0
C      1  0.5137990000000  0.6051840000000  0.5234710000000 1.0
C      1  0.5124860000000  0.5188100000000  0.6196900000000 1.0
C      1  0.4880160000000  0.4560840000000  0.5214710000000 1.0
C      1  0.4625100000000  0.4976400000000  0.4736540000000 1.0
C      1  0.4593340000000  0.5315370000000  0.4761270000000 1.0
C      1  0.4721030000000  0.5144570000000  0.5375420000000 1.0
C      1  0.4127160000000  0.4958390000000  0.4515410000000 1.0
C      1  0.4457770000000  0.5863720000000  0.4709620000000 1.0
C      1  0.4179880000000  0.5047650000000  0.5530280000000 1.0
C      1  0.4482650000000  0.4129880000000  0.5116130000000 1.0
C      1  0.4165620000000  0.5819480000000  0.5106510000000 1.0
C      1  0.4225780000000  0.4618170000000  0.5790770000000 1.0
C      1  0.4096930000000  0.4160210000000  0.4806770000000 1.0
C      1  0.3977460000000  0.5294290000000  0.4138120000000 1.0
C      1  0.5084410000000  0.4981930000000  0.4973290000000 1.0
END
