TITL C-2782231-7322-209 0.000428731887868294 125000 -486.975162141734 0 0 84 (C1) n - 1
REM
REM in /home/nfs/bkarasulu/CARBON/AIRSS/Generating-Clusters/REBO/Higher-Symm/SD-CG/HFTN-CG
REM
REM
REM
REM
REM
REM ./C.cell (12c818d87b63d06a65506943cc24bca4)
REM
REM compiler GCC version 9.2.1 20190827 (Red Hat 9.2.1-1)
REM options -cpp -mtune=generic -march=x86-64 -g -O0 -fpre-include=/usr/include/finclude/math-vector-fortran.h
REM seed -1333464469 -1135155986 -1987283389 -1734881124 -952315875 93140967 -71861489 984137768 2005963131 -1191982275 1197051275 1892208585 -495178700 -1596212513 565049802 1909891254 2080157566 -672187457 319536664 -672826045 195266233 1265146594 1874870933 899297185 95048666 -1234696305 -1106122956 -1418570341 427517210 -570945520 -340395401 1325859742 773310185
REM
CELL 1.54180   50.00000   50.00000   50.00000   90.00000   90.00000   90.00000
LATT -1
SFAC C  
C      1  0.5053040000000  0.4705680000000  0.5625000000000 1.0
C      1  0.4791340000000  0.5649000000000  0.5020870000000 1.0
C      1  0.5630710000000  0.5026270000000  0.4749540000000 1.0
C      1  0.4979220000000  0.4753480000000  0.4379870000000 1.0
C      1  0.4977900000000  0.5273150000000  0.5614410000000 1.0
C      1  0.5036420000000  0.5264930000000  0.4341740000000 1.0
C      1  0.5292840000000  0.5589440000000  0.4894720000000 1.0
C      1  0.5247340000000  0.4378450000000  0.5026400000000 1.0
C      1  0.4742080000000  0.4348520000000  0.4966210000000 1.0
C      1  0.4387570000000  0.5049600000000  0.5247150000000 1.0
C      1  0.4429510000000  0.4911880000000  0.4727190000000 1.0
C      1  0.5646410000000  0.4960250000000  0.5256410000000 1.0
C      1  0.5644160000000  0.4733880000000  0.5044060000000 1.0
C      1  0.5061420000000  0.5635210000000  0.4702500000000 1.0
C      1  0.4766010000000  0.5039440000000  0.5623640000000 1.0
C      1  0.4385000000000  0.4719740000000  0.4959100000000 1.0
C      1  0.5640530000000  0.5244680000000  0.4969770000000 1.0
C      1  0.4402660000000  0.5284340000000  0.5036980000000 1.0
C      1  0.5006710000000  0.5627750000000  0.5248090000000 1.0
C      1  0.5025700000000  0.4352890000000  0.5248180000000 1.0
C      1  0.4956620000000  0.4366340000000  0.4738610000000 1.0
C      1  0.5262140000000  0.5047340000000  0.4361550000000 1.0
C      1  0.4762080000000  0.4975330000000  0.4370930000000 1.0
C      1  0.5286820000000  0.4897480000000  0.5583100000000 1.0
C      1  0.4828910000000  0.4275840000000  0.5514710000000 1.0
C      1  0.4323200000000  0.5556270000000  0.4859290000000 1.0
C      1  0.5526100000000  0.4848190000000  0.4285480000000 1.0
C      1  0.5156290000000  0.4288610000000  0.4475760000000 1.0
C      1  0.5150490000000  0.5740480000000  0.5530430000000 1.0
C      1  0.4849170000000  0.5721980000000  0.4463580000000 1.0
C      1  0.5685200000000  0.5513930000000  0.5172120000000 1.0
C      1  0.5716720000000  0.4474780000000  0.4843920000000 1.0
C      1  0.4292720000000  0.4481160000000  0.5168640000000 1.0
C      1  0.4505950000000  0.4841270000000  0.5698300000000 1.0
C      1  0.4492630000000  0.5178220000000  0.4325510000000 1.0
C      1  0.5468270000000  0.5144200000000  0.5693430000000 1.0
C      1  0.5515240000000  0.4293280000000  0.4834260000000 1.0
C      1  0.4834500000000  0.5525690000000  0.4269880000000 1.0
C      1  0.4308030000000  0.4848380000000  0.5505760000000 1.0
C      1  0.4480830000000  0.4278060000000  0.5169610000000 1.0
C      1  0.5481420000000  0.5698760000000  0.5135190000000 1.0
C      1  0.4525520000000  0.5739580000000  0.4839040000000 1.0
C      1  0.5137060000000  0.5548850000000  0.5726680000000 1.0
C      1  0.4839200000000  0.4469270000000  0.5711960000000 1.0
C      1  0.5168210000000  0.4487900000000  0.4292190000000 1.0
C      1  0.5711060000000  0.4835730000000  0.4484000000000 1.0
C      1  0.4314230000000  0.5150920000000  0.4538870000000 1.0
C      1  0.5682610000000  0.5172710000000  0.5518040000000 1.0
C      1  0.5367680000000  0.4663890000000  0.4890670000000 1.0
C      1  0.4895530000000  0.4637220000000  0.5353970000000 1.0
C      1  0.4905840000000  0.5361500000000  0.4627180000000 1.0
C      1  0.5341110000000  0.4891810000000  0.4637140000000 1.0
C      1  0.4658490000000  0.4631620000000  0.5111750000000 1.0
C      1  0.5343760000000  0.5328040000000  0.5078330000000 1.0
C      1  0.4679880000000  0.5364550000000  0.4883120000000 1.0
C      1  0.5348510000000  0.5084100000000  0.5317090000000 1.0
C      1  0.4667170000000  0.4889950000000  0.5335680000000 1.0
C      1  0.4689160000000  0.5101940000000  0.4666060000000 1.0
C      1  0.5113210000000  0.4638460000000  0.4664380000000 1.0
C      1  0.5116760000000  0.5332980000000  0.5331680000000 1.0
C      1  0.4583480000000  0.5406030000000  0.4144370000000 1.0
C      1  0.5287040000000  0.4146000000000  0.4705500000000 1.0
C      1  0.5296200000000  0.4716490000000  0.4142180000000 1.0
C      1  0.4611300000000  0.4605680000000  0.5862230000000 1.0
C      1  0.4630950000000  0.5889640000000  0.4594840000000 1.0
C      1  0.4141470000000  0.4616530000000  0.5396210000000 1.0
C      1  0.5289360000000  0.5325030000000  0.5857930000000 1.0
C      1  0.4592760000000  0.4117140000000  0.5403770000000 1.0
C      1  0.5311780000000  0.5875520000000  0.5313490000000 1.0
C      1  0.5862160000000  0.4705050000000  0.4712130000000 1.0
C      1  0.5836060000000  0.5414400000000  0.5416250000000 1.0
C      1  0.4166110000000  0.5342000000000  0.4720600000000 1.0
C      1  0.4860740000000  0.4830480000000  0.5878200000000 1.0
C      1  0.5057280000000  0.4945440000000  0.4104860000000 1.0
C      1  0.4817560000000  0.5169000000000  0.4094990000000 1.0
C      1  0.4885770000000  0.5906400000000  0.4814410000000 1.0
C      1  0.5899090000000  0.4942540000000  0.4948730000000 1.0
C      1  0.5131410000000  0.5857040000000  0.5026750000000 1.0
C      1  0.5056480000000  0.4105130000000  0.4937810000000 1.0
C      1  0.4828150000000  0.4083940000000  0.5166650000000 1.0
C      1  0.4130770000000  0.4844660000000  0.5149630000000 1.0
C      1  0.4182960000000  0.5059430000000  0.4905090000000 1.0
C      1  0.5899190000000  0.5178160000000  0.5183450000000 1.0
C      1  0.5107070000000  0.5043110000000  0.5830230000000 1.0
END
