TITL C-2782226-7400-1308 -0.000934560014421212 125000 -907.218376774299 0 0 156 (D2) n - 1
REM
REM in /home/nfs/bkarasulu/CARBON/AIRSS/Generating-Clusters/REBO/Higher-Symm/SD-CG/HFTN-CG
REM
REM
REM
REM
REM
REM ./C.cell (12c818d87b63d06a65506943cc24bca4)
REM
REM compiler GCC version 9.2.1 20190827 (Red Hat 9.2.1-1)
REM options -cpp -mtune=generic -march=x86-64 -g -O0 -fpre-include=/usr/include/finclude/math-vector-fortran.h
REM seed -1627975251 146939747 -715775549 -1852083036 1478231828 750799163 722292256 -1664277246 664348501 342749507 -1268151060 -1056426813 812026901 -962304115 123942433 -399601163 -1521881280 1799582678 -716338755 -628269244 -2118838966 32277244 1789130710 582989399 920967632 -1259969862 -802787393 -1454354815 -851929908 545694950 -2059583472 1993428153 -877265526
REM
CELL 1.54180   50.00000   50.00000   50.00000   90.00000   90.00000   90.00000
LATT -1
SFAC C  
C      1  0.5668820000000  0.5036680000000  0.5490820000000 1.0
C      1  0.4491420000000  0.5068270000000  0.5668660000000 1.0
C      1  0.4331180000000  0.5036630000000  0.4509180000000 1.0
C      1  0.5508580000000  0.5068250000000  0.4331340000000 1.0
C      1  0.4331180000000  0.4937820000000  0.5508370000000 1.0
C      1  0.5490610000000  0.4969450000000  0.5668980000000 1.0
C      1  0.5668820000000  0.4937820000000  0.4491630000000 1.0
C      1  0.4509390000000  0.4969400000000  0.4331020000000 1.0
C      1  0.5546560000000  0.5695350000000  0.5550960000000 1.0
C      1  0.4396770000000  0.5670180000000  0.5449550000000 1.0
C      1  0.4453410000000  0.5695300000000  0.4449010000000 1.0
C      1  0.5603200000000  0.5670180000000  0.4550420000000 1.0
C      1  0.4550260000000  0.4335910000000  0.5603090000000 1.0
C      1  0.5550810000000  0.4310780000000  0.5546760000000 1.0
C      1  0.5449760000000  0.4335890000000  0.4396940000000 1.0
C      1  0.4449210000000  0.4310730000000  0.4453270000000 1.0
C      1  0.4833130000000  0.6025380000000  0.5428710000000 1.0
C      1  0.4447660000000  0.5987950000000  0.4909330000000 1.0
C      1  0.5166830000000  0.6025370000000  0.4571240000000 1.0
C      1  0.5552300000000  0.5987980000000  0.5090630000000 1.0
C      1  0.5090490000000  0.4018130000000  0.5552370000000 1.0
C      1  0.5428810000000  0.3980710000000  0.4833310000000 1.0
C      1  0.4909540000000  0.4018100000000  0.4447670000000 1.0
C      1  0.4571230000000  0.3980700000000  0.5166740000000 1.0
C      1  0.4826130000000  0.4715090000000  0.5102130000000 1.0
C      1  0.4867360000000  0.4727840000000  0.4764230000000 1.0
C      1  0.5173880000000  0.4715090000000  0.4897890000000 1.0
C      1  0.5132650000000  0.4727860000000  0.5235780000000 1.0
C      1  0.5235730000000  0.5278230000000  0.5132710000000 1.0
C      1  0.5102170000000  0.5290980000000  0.4826150000000 1.0
C      1  0.4764260000000  0.5278220000000  0.4867280000000 1.0
C      1  0.4897820000000  0.5290990000000  0.5173830000000 1.0
C      1  0.4375800000000  0.5507550000000  0.5704010000000 1.0
C      1  0.4223580000000  0.5518390000000  0.4354640000000 1.0
C      1  0.5624180000000  0.5507540000000  0.4295970000000 1.0
C      1  0.5776410000000  0.5518450000000  0.5645340000000 1.0
C      1  0.5645110000000  0.4487680000000  0.5776630000000 1.0
C      1  0.5704220000000  0.4498530000000  0.4376050000000 1.0
C      1  0.4354910000000  0.4487620000000  0.4223390000000 1.0
C      1  0.4295790000000  0.4498540000000  0.5623980000000 1.0
C      1  0.5523250000000  0.4763420000000  0.5193350000000 1.0
C      1  0.4829860000000  0.4799160000000  0.5492790000000 1.0
C      1  0.4476760000000  0.4763390000000  0.4806660000000 1.0
C      1  0.5170150000000  0.4799140000000  0.4507220000000 1.0
C      1  0.4507160000000  0.5206920000000  0.5169980000000 1.0
C      1  0.5193180000000  0.5242680000000  0.5523300000000 1.0
C      1  0.5492840000000  0.5206930000000  0.4830010000000 1.0
C      1  0.4806810000000  0.5242650000000  0.4476690000000 1.0
C      1  0.5266020000000  0.5094270000000  0.6077610000000 1.0
C      1  0.3926960000000  0.4976490000000  0.5247560000000 1.0
C      1  0.4733970000000  0.5094210000000  0.3922390000000 1.0
C      1  0.6073040000000  0.4976520000000  0.4752440000000 1.0
C      1  0.4752100000000  0.5029590000000  0.6072960000000 1.0
C      1  0.6077530000000  0.4911860000000  0.5266370000000 1.0
C      1  0.5247900000000  0.5029550000000  0.3927040000000 1.0
C      1  0.3922480000000  0.4911810000000  0.4733640000000 1.0
C      1  0.4775070000000  0.4533200000000  0.4509800000000 1.0
C      1  0.5350490000000  0.4486260000000  0.4765250000000 1.0
C      1  0.5224950000000  0.4533230000000  0.5490220000000 1.0
C      1  0.4649530000000  0.4486260000000  0.5234770000000 1.0
C      1  0.5234860000000  0.5519810000000  0.4649580000000 1.0
C      1  0.4509850000000  0.5472850000000  0.4774900000000 1.0
C      1  0.4765120000000  0.5519820000000  0.5350400000000 1.0
C      1  0.5490130000000  0.5472880000000  0.5225080000000 1.0
C      1  0.4956600000000  0.4019870000000  0.5262510000000 1.0
C      1  0.4804680000000  0.4031720000000  0.4959150000000 1.0
C      1  0.5043430000000  0.4019860000000  0.4737530000000 1.0
C      1  0.5195350000000  0.4031730000000  0.5040890000000 1.0
C      1  0.5040790000000  0.5974360000000  0.5195330000000 1.0
C      1  0.5262490000000  0.5986210000000  0.4956640000000 1.0
C      1  0.4959170000000  0.5974350000000  0.4804630000000 1.0
C      1  0.4737480000000  0.5986200000000  0.5043310000000 1.0
C      1  0.5372310000000  0.5679350000000  0.4911570000000 1.0
C      1  0.5227380000000  0.5693330000000  0.5224300000000 1.0
C      1  0.4627660000000  0.5679340000000  0.5088400000000 1.0
C      1  0.4772600000000  0.5693310000000  0.4775670000000 1.0
C      1  0.4775770000000  0.4312750000000  0.4772550000000 1.0
C      1  0.4911480000000  0.4326740000000  0.5372310000000 1.0
C      1  0.5224260000000  0.4312770000000  0.5227480000000 1.0
C      1  0.5088550000000  0.4326730000000  0.4627720000000 1.0
C      1  0.4650200000000  0.5830940000000  0.5456250000000 1.0
C      1  0.4390650000000  0.5797920000000  0.4726930000000 1.0
C      1  0.5349770000000  0.5830930000000  0.4543710000000 1.0
C      1  0.5609320000000  0.5797960000000  0.5273030000000 1.0
C      1  0.5272880000000  0.4208160000000  0.5609440000000 1.0
C      1  0.5456390000000  0.4175140000000  0.4650370000000 1.0
C      1  0.4727150000000  0.4208120000000  0.4390590000000 1.0
C      1  0.4543640000000  0.4175140000000  0.5349660000000 1.0
C      1  0.3962380000000  0.4632110000000  0.4709170000000 1.0
C      1  0.5265220000000  0.4747380000000  0.3899140000000 1.0
C      1  0.6037640000000  0.4632170000000  0.5290840000000 1.0
C      1  0.4734790000000  0.4747420000000  0.6100870000000 1.0
C      1  0.6100940000000  0.5258690000000  0.4735130000000 1.0
C      1  0.4709480000000  0.5373910000000  0.3962270000000 1.0
C      1  0.3899050000000  0.5258660000000  0.5264860000000 1.0
C      1  0.5290500000000  0.5373970000000  0.6037710000000 1.0
C      1  0.5053930000000  0.5204430000000  0.4376820000000 1.0
C      1  0.5690220000000  0.5182200000000  0.5042000000000 1.0
C      1  0.4946060000000  0.5204450000000  0.5623170000000 1.0
C      1  0.4309780000000  0.5182170000000  0.4957990000000 1.0
C      1  0.4958210000000  0.4823870000000  0.4309770000000 1.0
C      1  0.4376810000000  0.4801630000000  0.5053750000000 1.0
C      1  0.5041790000000  0.4823910000000  0.5690240000000 1.0
C      1  0.5623200000000  0.4801650000000  0.4946260000000 1.0
C      1  0.5238300000000  0.4813180000000  0.6187360000000 1.0
C      1  0.3882290000000  0.4677860000000  0.5212460000000 1.0
C      1  0.4761710000000  0.4813110000000  0.3812650000000 1.0
C      1  0.6117730000000  0.4677890000000  0.4787560000000 1.0
C      1  0.4787190000000  0.5328230000000  0.6117650000000 1.0
C      1  0.6187280000000  0.5192960000000  0.5238670000000 1.0
C      1  0.5212800000000  0.5328180000000  0.3882340000000 1.0
C      1  0.3812720000000  0.5192900000000  0.4761320000000 1.0
C      1  0.5257550000000  0.4948650000000  0.5812000000000 1.0
C      1  0.4217680000000  0.4888630000000  0.5263990000000 1.0
C      1  0.4742450000000  0.4948610000000  0.4188000000000 1.0
C      1  0.5782320000000  0.4888650000000  0.4736020000000 1.0
C      1  0.4735760000000  0.5117450000000  0.5782230000000 1.0
C      1  0.5811920000000  0.5057470000000  0.5257810000000 1.0
C      1  0.5264230000000  0.5117420000000  0.4217760000000 1.0
C      1  0.4188080000000  0.5057430000000  0.4742190000000 1.0
C      1  0.5348430000000  0.4560490000000  0.5782430000000 1.0
C      1  0.4328620000000  0.4508510000000  0.5320190000000 1.0
C      1  0.4651590000000  0.4560440000000  0.4217590000000 1.0
C      1  0.5671400000000  0.4508520000000  0.4679830000000 1.0
C      1  0.4679600000000  0.5497570000000  0.5671280000000 1.0
C      1  0.5782300000000  0.5445640000000  0.5348650000000 1.0
C      1  0.5320380000000  0.5497550000000  0.4328700000000 1.0
C      1  0.4217680000000  0.5445590000000  0.4651330000000 1.0
C      1  0.5107160000000  0.4560870000000  0.4049870000000 1.0
C      1  0.5837760000000  0.4494780000000  0.5137760000000 1.0
C      1  0.4892850000000  0.4560910000000  0.5950150000000 1.0
C      1  0.4162260000000  0.4494740000000  0.4862260000000 1.0
C      1  0.4862500000000  0.5511300000000  0.4162200000000 1.0
C      1  0.4049820000000  0.5445170000000  0.5106840000000 1.0
C      1  0.5137480000000  0.5511340000000  0.5837780000000 1.0
C      1  0.5950170000000  0.5445200000000  0.4893140000000 1.0
C      1  0.5262340000000  0.5561710000000  0.5538910000000 1.0
C      1  0.4349680000000  0.5507320000000  0.5185570000000 1.0
C      1  0.4737640000000  0.5561680000000  0.4461060000000 1.0
C      1  0.5650310000000  0.5507330000000  0.4814410000000 1.0
C      1  0.4814220000000  0.4498760000000  0.5650270000000 1.0
C      1  0.5538850000000  0.4444400000000  0.5262530000000 1.0
C      1  0.5185790000000  0.4498740000000  0.4349760000000 1.0
C      1  0.4461170000000  0.4444370000000  0.4737490000000 1.0
C      1  0.5172190000000  0.4604220000000  0.5997950000000 1.0
C      1  0.4112040000000  0.4515490000000  0.5140970000000 1.0
C      1  0.4827830000000  0.4604170000000  0.4002070000000 1.0
C      1  0.5887980000000  0.4515520000000  0.4859050000000 1.0
C      1  0.4858750000000  0.5490590000000  0.5887910000000 1.0
C      1  0.5997870000000  0.5401900000000  0.5172480000000 1.0
C      1  0.5141230000000  0.5490550000000  0.4112060000000 1.0
C      1  0.4002110000000  0.5401860000000  0.4827500000000 1.0
C      1  0.5250980000000  0.5003040000000  0.4749100000000 1.0
C      1  0.4749020000000  0.5003040000000  0.5250900000000 1.0
C      1  0.4691430000000  0.5003030000000  0.4691330000000 1.0
C      1  0.5308570000000  0.5003050000000  0.5308670000000 1.0
END
