TITL C-2782232-2968-1180 0.000480759610398651 125000 -450.598908467517 0 0 74 (C1) n - 1
REM
REM in /home/nfs/bkarasulu/CARBON/AIRSS/Generating-Clusters/REBO/Higher-Symm/SD-CG/HFTN-CG
REM
REM
REM
REM
REM
REM ./C.cell (12c818d87b63d06a65506943cc24bca4)
REM
REM compiler GCC version 9.2.1 20190827 (Red Hat 9.2.1-1)
REM options -cpp -mtune=generic -march=x86-64 -g -O0 -fpre-include=/usr/include/finclude/math-vector-fortran.h
REM seed 1641432387 -1841773489 1562634509 -1043736316 1934810150 -206895869 66007316 383952486 -312217388 1655607678 -1459843850 -1393289669 2022651570 526506815 1722975908 1636615642 -327146203 -745212614 -1296953594 1019930327 -758780478 -85678444 380044298 -271949281 -1540834724 1499193902 1694126631 596962200 -1018770235 -514392171 463704348 1341696138 -566139980
REM
CELL 1.54180   50.00000   50.00000   50.00000   90.00000   90.00000   90.00000
LATT -1
SFAC C  
C      1  0.5587840000000  0.4443400000000  0.4942910000000 1.0
C      1  0.5060670000000  0.4186810000000  0.5085140000000 1.0
C      1  0.4459290000000  0.4401570000000  0.4943930000000 1.0
C      1  0.4197210000000  0.4931180000000  0.5072690000000 1.0
C      1  0.4422670000000  0.5520330000000  0.4927610000000 1.0
C      1  0.4955520000000  0.5755100000000  0.5043320000000 1.0
C      1  0.5537290000000  0.5569750000000  0.4962170000000 1.0
C      1  0.5822980000000  0.5030180000000  0.5086090000000 1.0
C      1  0.4579850000000  0.5746640000000  0.4908030000000 1.0
C      1  0.5222930000000  0.5815670000000  0.5084700000000 1.0
C      1  0.5759690000000  0.5409480000000  0.4934770000000 1.0
C      1  0.5889520000000  0.4770660000000  0.5147650000000 1.0
C      1  0.5423860000000  0.4220600000000  0.4922730000000 1.0
C      1  0.4804850000000  0.4117590000000  0.5155180000000 1.0
C      1  0.4233220000000  0.4561720000000  0.4926620000000 1.0
C      1  0.4135170000000  0.5188670000000  0.5145030000000 1.0
C      1  0.4467940000000  0.5348040000000  0.4709130000000 1.0
C      1  0.4859110000000  0.5587620000000  0.5249650000000 1.0
C      1  0.5355550000000  0.5543160000000  0.4730470000000 1.0
C      1  0.5650580000000  0.5145000000000  0.5298520000000 1.0
C      1  0.5510770000000  0.4634280000000  0.4742740000000 1.0
C      1  0.5180850000000  0.4366150000000  0.5288520000000 1.0
C      1  0.4634950000000  0.4465900000000  0.4726480000000 1.0
C      1  0.4381570000000  0.4809780000000  0.5271050000000 1.0
C      1  0.5433860000000  0.5254290000000  0.4727170000000 1.0
C      1  0.5509630000000  0.4877450000000  0.5281750000000 1.0
C      1  0.5227230000000  0.4586950000000  0.4715010000000 1.0
C      1  0.4911790000000  0.4509360000000  0.5268840000000 1.0
C      1  0.4568530000000  0.4743910000000  0.4684330000000 1.0
C      1  0.4515550000000  0.5080160000000  0.5263380000000 1.0
C      1  0.4748510000000  0.5431140000000  0.4604310000000 1.0
C      1  0.5118650000000  0.5458730000000  0.5370320000000 1.0
C      1  0.4274410000000  0.4860980000000  0.4770240000000 1.0
C      1  0.4387410000000  0.5381530000000  0.5193070000000 1.0
C      1  0.4865290000000  0.5701460000000  0.4745270000000 1.0
C      1  0.5397930000000  0.5586350000000  0.5245760000000 1.0
C      1  0.5723790000000  0.5109390000000  0.4795780000000 1.0
C      1  0.5641430000000  0.4575060000000  0.5212410000000 1.0
C      1  0.5121800000000  0.4281020000000  0.4787520000000 1.0
C      1  0.4609890000000  0.4365120000000  0.5204880000000 1.0
C      1  0.4408690000000  0.5097100000000  0.4588810000000 1.0
C      1  0.4645730000000  0.5441890000000  0.5372680000000 1.0
C      1  0.5116220000000  0.5587320000000  0.4585510000000 1.0
C      1  0.5498150000000  0.5344790000000  0.5423880000000 1.0
C      1  0.5586550000000  0.4880390000000  0.4620490000000 1.0
C      1  0.5389530000000  0.4516750000000  0.5405310000000 1.0
C      1  0.4887040000000  0.4405840000000  0.4609790000000 1.0
C      1  0.4545150000000  0.4612470000000  0.5391040000000 1.0
C      1  0.4944310000000  0.4786340000000  0.5269000000000 1.0
C      1  0.4783530000000  0.4911500000000  0.4681870000000 1.0
C      1  0.4789540000000  0.5059590000000  0.5278470000000 1.0
C      1  0.4924070000000  0.5181080000000  0.4665400000000 1.0
C      1  0.5076240000000  0.5159560000000  0.5300590000000 1.0
C      1  0.5212500000000  0.5093850000000  0.4708420000000 1.0
C      1  0.5236150000000  0.4903270000000  0.5279370000000 1.0
C      1  0.5075070000000  0.4815670000000  0.4706480000000 1.0
C      1  0.5071870000000  0.5413630000000  0.4370160000000 1.0
C      1  0.5340990000000  0.5260580000000  0.5637220000000 1.0
C      1  0.5423080000000  0.4951140000000  0.4400340000000 1.0
C      1  0.5308130000000  0.4690180000000  0.5609750000000 1.0
C      1  0.4953130000000  0.4587250000000  0.4401820000000 1.0
C      1  0.4715140000000  0.4714700000000  0.5588560000000 1.0
C      1  0.4585180000000  0.5050840000000  0.4364490000000 1.0
C      1  0.4741980000000  0.5296610000000  0.5597040000000 1.0
C      1  0.5336670000000  0.4972750000000  0.5728220000000 1.0
C      1  0.5153520000000  0.4809860000000  0.4314710000000 1.0
C      1  0.5009480000000  0.4757480000000  0.5673040000000 1.0
C      1  0.4757640000000  0.4806350000000  0.4297020000000 1.0
C      1  0.4703690000000  0.5009100000000  0.5684500000000 1.0
C      1  0.4762760000000  0.5326780000000  0.4290660000000 1.0
C      1  0.5048300000000  0.5398350000000  0.5688720000000 1.0
C      1  0.5260640000000  0.5189880000000  0.4293640000000 1.0
C      1  0.5018550000000  0.5080280000000  0.5788040000000 1.0
C      1  0.4953660000000  0.5067690000000  0.4209800000000 1.0
END
