TITL C-2782240-8521-823 -1.2364466237083e-07 125000 -91.6277107375656 0 0 18 (D6h) n - 1
REM
REM in /home/nfs/bkarasulu/CARBON/AIRSS/Generating-Clusters/REBO/Higher-Symm/SD-CG/HFTN-CG
REM
REM
REM
REM
REM
REM ./C.cell (12c818d87b63d06a65506943cc24bca4)
REM
REM compiler GCC version 9.2.1 20190827 (Red Hat 9.2.1-1)
REM options -cpp -mtune=generic -march=x86-64 -g -O0 -fpre-include=/usr/include/finclude/math-vector-fortran.h
REM seed 973348239 -189887503 1111153811 134142728 637759544 335288089 994960039 1351546133 -1222422782 -1694351197 -1809708860 -81535032 -319387803 714759175 -180685934 -421056351 -902341033 -2078054358 846769781 -804718708 826736027 -990026522 -592175989 110849465 927127785 1655485962 734874300 1570431866 -656177775 -1772968489 631152166 238956520 1009119602
REM
CELL 1.54180   50.00000   50.00000   50.00000   90.00000   90.00000   90.00000
LATT -1
SFAC C  
C      1  0.5820190000000  0.4883250000000  0.4983850000000 1.0
C      1  0.5308960000000  0.4231190000000  0.4991810000000 1.0
C      1  0.4488780000000  0.4347940000000  0.5007960000000 1.0
C      1  0.4179810000000  0.5116750000000  0.5016150000000 1.0
C      1  0.4691040000000  0.5768810000000  0.5008190000000 1.0
C      1  0.5511220000000  0.5652060000000  0.4992040000000 1.0
C      1  0.4946270000000  0.5568890000000  0.5002690000000 1.0
C      1  0.5465720000000  0.5331020000000  0.4991980000000 1.0
C      1  0.5519460000000  0.4762120000000  0.4989300000000 1.0
C      1  0.5053730000000  0.4431110000000  0.4997310000000 1.0
C      1  0.4534280000000  0.4668980000000  0.5008020000000 1.0
C      1  0.4480540000000  0.5237880000000  0.5010700000000 1.0
C      1  0.4434800000000  0.4916520000000  0.5010650000000 1.0
C      1  0.4645140000000  0.5447820000000  0.5008140000000 1.0
C      1  0.5210350000000  0.5531300000000  0.4997490000000 1.0
C      1  0.5565200000000  0.5083480000000  0.4989350000000 1.0
C      1  0.5354860000000  0.4552180000000  0.4991860000000 1.0
C      1  0.4789650000000  0.4468700000000  0.5002510000000 1.0
END
