TITL C-2782228-2999-332 -0.000189242964110151 125000 -972.533430917514 0 0 168 (S12) n - 1
REM
REM in /home/nfs/bkarasulu/CARBON/AIRSS/Generating-Clusters/REBO/Higher-Symm/SD-CG/HFTN-CG
REM
REM
REM
REM
REM
REM ./C.cell (12c818d87b63d06a65506943cc24bca4)
REM
REM compiler GCC version 9.2.1 20190827 (Red Hat 9.2.1-1)
REM options -cpp -mtune=generic -march=x86-64 -g -O0 -fpre-include=/usr/include/finclude/math-vector-fortran.h
REM seed -1021176719 -46453939 -1037467923 -554046265 756121180 1095381095 -357510320 1893097410 -1519439916 1309245568 1568206868 -94227128 -1836786650 859877051 520142400 -2083700716 -2001120167 998248322 1276078439 1810460143 -1580519232 -1981381119 711747225 -1289959278 98253147 690289892 -1965417817 1315704257 652571099 54560240 304331703 -1676747218 -638745656
REM
CELL 1.54180   50.00000   50.00000   50.00000   90.00000   90.00000   90.00000
LATT -1
SFAC C  
C      1  0.4813510000000  0.5091810000000  0.4737010000000 1.0
C      1  0.5186490000000  0.4948020000000  0.4726340000000 1.0
C      1  0.4813510000000  0.4818150000000  0.4788990000000 1.0
C      1  0.5186500000000  0.4737010000000  0.4908190000000 1.0
C      1  0.4813510000000  0.4726330000000  0.5051980000000 1.0
C      1  0.5186490000000  0.4788990000000  0.5181850000000 1.0
C      1  0.4813510000000  0.4908180000000  0.5262990000000 1.0
C      1  0.5186490000000  0.5051980000000  0.5273670000000 1.0
C      1  0.4813500000000  0.5181850000000  0.5211010000000 1.0
C      1  0.5186490000000  0.5262990000000  0.5091820000000 1.0
C      1  0.4813510000000  0.5273660000000  0.4948020000000 1.0
C      1  0.5186490000000  0.5211010000000  0.4818150000000 1.0
C      1  0.4940390000000  0.4622530000000  0.4563410000000 1.0
C      1  0.5059630000000  0.4454810000000  0.4810630000000 1.0
C      1  0.4940390000000  0.4433160000000  0.5108600000000 1.0
C      1  0.5059620000000  0.4563410000000  0.5377470000000 1.0
C      1  0.4940380000000  0.4810630000000  0.5545190000000 1.0
C      1  0.5059610000000  0.5108600000000  0.5566840000000 1.0
C      1  0.4940370000000  0.5377470000000  0.5436590000000 1.0
C      1  0.5059610000000  0.5545190000000  0.5189370000000 1.0
C      1  0.4940380000000  0.5566830000000  0.4891400000000 1.0
C      1  0.5059620000000  0.5436590000000  0.4622530000000 1.0
C      1  0.4940380000000  0.5189370000000  0.4454810000000 1.0
C      1  0.5059620000000  0.4891400000000  0.4433170000000 1.0
C      1  0.4407310000000  0.5733700000000  0.5311140000000 1.0
C      1  0.5592670000000  0.5790990000000  0.4902610000000 1.0
C      1  0.4407320000000  0.5636300000000  0.4520160000000 1.0
C      1  0.5592680000000  0.5311150000000  0.4266300000000 1.0
C      1  0.4407330000000  0.4902600000000  0.4209020000000 1.0
C      1  0.5592690000000  0.4520170000000  0.4363690000000 1.0
C      1  0.4407340000000  0.4266290000000  0.4688850000000 1.0
C      1  0.5592680000000  0.4209030000000  0.5097400000000 1.0
C      1  0.4407330000000  0.4363680000000  0.5479830000000 1.0
C      1  0.5592670000000  0.4688860000000  0.5733710000000 1.0
C      1  0.4407320000000  0.5097380000000  0.5790970000000 1.0
C      1  0.5592660000000  0.5479840000000  0.5636320000000 1.0
C      1  0.5836430000000  0.4732350000000  0.5570340000000 1.0
C      1  0.4163560000000  0.5053360000000  0.5627740000000 1.0
C      1  0.5836420000000  0.5360100000000  0.5516970000000 1.0
C      1  0.4163560000000  0.5570320000000  0.5267650000000 1.0
C      1  0.5836430000000  0.5627760000000  0.4946640000000 1.0
C      1  0.4163560000000  0.5516950000000  0.4639900000000 1.0
C      1  0.5836430000000  0.5267670000000  0.4429680000000 1.0
C      1  0.4163570000000  0.4946620000000  0.4372240000000 1.0
C      1  0.5836440000000  0.4639920000000  0.4483040000000 1.0
C      1  0.4163580000000  0.4429660000000  0.4732330000000 1.0
C      1  0.5836440000000  0.4372260000000  0.5053370000000 1.0
C      1  0.4163570000000  0.4483030000000  0.5360080000000 1.0
C      1  0.5630990000000  0.5231150000000  0.4785810000000 1.0
C      1  0.4369010000000  0.5093070000000  0.4698920000000 1.0
C      1  0.5630990000000  0.4930080000000  0.4692730000000 1.0
C      1  0.4369010000000  0.4785800000000  0.4768850000000 1.0
C      1  0.5631000000000  0.4698940000000  0.4906930000000 1.0
C      1  0.4369010000000  0.4692720000000  0.5069920000000 1.0
C      1  0.5630990000000  0.4768860000000  0.5214200000000 1.0
C      1  0.4369010000000  0.4906910000000  0.5301070000000 1.0
C      1  0.5630990000000  0.5069940000000  0.5307280000000 1.0
C      1  0.4369000000000  0.5214190000000  0.5231140000000 1.0
C      1  0.5630990000000  0.5301080000000  0.5093080000000 1.0
C      1  0.4369010000000  0.5307270000000  0.4930070000000 1.0
C      1  0.5179100000000  0.4859150000000  0.4157920000000 1.0
C      1  0.4820920000000  0.4456980000000  0.4341160000000 1.0
C      1  0.5179110000000  0.4200310000000  0.4700940000000 1.0
C      1  0.4820910000000  0.4157910000000  0.5140850000000 1.0
C      1  0.5179100000000  0.4341160000000  0.5543020000000 1.0
C      1  0.4820900000000  0.4700940000000  0.5799690000000 1.0
C      1  0.5179090000000  0.5140850000000  0.5842090000000 1.0
C      1  0.4820890000000  0.5543020000000  0.5658840000000 1.0
C      1  0.5179080000000  0.5799690000000  0.5299060000000 1.0
C      1  0.4820900000000  0.5842080000000  0.4859150000000 1.0
C      1  0.5179090000000  0.5658840000000  0.4456980000000 1.0
C      1  0.4820910000000  0.5299060000000  0.4200310000000 1.0
C      1  0.5459270000000  0.5110970000000  0.5559260000000 1.0
C      1  0.4540710000000  0.5375720000000  0.5428840000000 1.0
C      1  0.5459270000000  0.5539820000000  0.5183530000000 1.0
C      1  0.4540710000000  0.5559250000000  0.4889030000000 1.0
C      1  0.5459280000000  0.5428850000000  0.4624280000000 1.0
C      1  0.4540720000000  0.5183520000000  0.4460180000000 1.0
C      1  0.5459290000000  0.4889040000000  0.4440750000000 1.0
C      1  0.4540730000000  0.4624270000000  0.4571150000000 1.0
C      1  0.5459290000000  0.4460190000000  0.4816470000000 1.0
C      1  0.4540730000000  0.4440740000000  0.5110960000000 1.0
C      1  0.5459280000000  0.4571160000000  0.5375730000000 1.0
C      1  0.4540720000000  0.4816460000000  0.5539810000000 1.0
C      1  0.4680420000000  0.4554460000000  0.5387270000000 1.0
C      1  0.5319580000000  0.4807790000000  0.5558160000000 1.0
C      1  0.4680420000000  0.5112610000000  0.5579480000000 1.0
C      1  0.5319570000000  0.5387270000000  0.5445540000000 1.0
C      1  0.4680410000000  0.5558150000000  0.5192210000000 1.0
C      1  0.5319570000000  0.5579490000000  0.4887390000000 1.0
C      1  0.4680420000000  0.5445530000000  0.4612730000000 1.0
C      1  0.5319580000000  0.5192220000000  0.4441850000000 1.0
C      1  0.4680430000000  0.4887380000000  0.4420520000000 1.0
C      1  0.5319590000000  0.4612740000000  0.4554460000000 1.0
C      1  0.4680430000000  0.4441840000000  0.4807780000000 1.0
C      1  0.5319580000000  0.4420520000000  0.5112620000000 1.0
C      1  0.5067860000000  0.6059390000000  0.4928800000000 1.0
C      1  0.4932120000000  0.5881860000000  0.4408650000000 1.0
C      1  0.5067880000000  0.5468030000000  0.4046940000000 1.0
C      1  0.4932140000000  0.4928800000000  0.3940610000000 1.0
C      1  0.5067890000000  0.4408650000000  0.4118140000000 1.0
C      1  0.4932140000000  0.4046940000000  0.4531970000000 1.0
C      1  0.5067890000000  0.3940610000000  0.5071200000000 1.0
C      1  0.4932130000000  0.4118140000000  0.5591350000000 1.0
C      1  0.5067870000000  0.4531970000000  0.5953060000000 1.0
C      1  0.4932120000000  0.5071200000000  0.6059390000000 1.0
C      1  0.5067860000000  0.5591350000000  0.5881860000000 1.0
C      1  0.4932110000000  0.5953050000000  0.5468030000000 1.0
C      1  0.4581500000000  0.5913600000000  0.5098590000000 1.0
C      1  0.5418480000000  0.5840510000000  0.4628590000000 1.0
C      1  0.4581510000000  0.5542180000000  0.4258090000000 1.0
C      1  0.5418500000000  0.5098600000000  0.4086400000000 1.0
C      1  0.4581520000000  0.4628580000000  0.4159490000000 1.0
C      1  0.5418510000000  0.4258100000000  0.4457810000000 1.0
C      1  0.4581520000000  0.4086390000000  0.4901400000000 1.0
C      1  0.5418500000000  0.4159500000000  0.5371420000000 1.0
C      1  0.4581510000000  0.4457810000000  0.5741900000000 1.0
C      1  0.5418490000000  0.4901410000000  0.5913610000000 1.0
C      1  0.4581500000000  0.5371410000000  0.5840500000000 1.0
C      1  0.5418480000000  0.5741910000000  0.5542190000000 1.0
C      1  0.5146960000000  0.5180300000000  0.3930410000000 1.0
C      1  0.4853060000000  0.4621350000000  0.3983550000000 1.0
C      1  0.5146970000000  0.4163860000000  0.4309060000000 1.0
C      1  0.4853060000000  0.3930400000000  0.4819700000000 1.0
C      1  0.5146960000000  0.3983550000000  0.5378650000000 1.0
C      1  0.4853050000000  0.4309050000000  0.5836140000000 1.0
C      1  0.5146950000000  0.4819700000000  0.6069600000000 1.0
C      1  0.4853030000000  0.5378650000000  0.6016450000000 1.0
C      1  0.5146940000000  0.5836150000000  0.5690940000000 1.0
C      1  0.4853030000000  0.6069590000000  0.5180300000000 1.0
C      1  0.5146950000000  0.6016450000000  0.4621350000000 1.0
C      1  0.4853040000000  0.5690940000000  0.4163850000000 1.0
C      1  0.4428540000000  0.4127100000000  0.5181650000000 1.0
C      1  0.5571470000000  0.4334890000000  0.5593770000000 1.0
C      1  0.4428530000000  0.4720870000000  0.5846770000000 1.0
C      1  0.5571460000000  0.5181660000000  0.5872900000000 1.0
C      1  0.4428520000000  0.5593760000000  0.5665110000000 1.0
C      1  0.5571450000000  0.5846780000000  0.5279130000000 1.0
C      1  0.4428530000000  0.5872880000000  0.4818340000000 1.0
C      1  0.5571460000000  0.5665130000000  0.4406240000000 1.0
C      1  0.4428540000000  0.5279120000000  0.4153220000000 1.0
C      1  0.5571480000000  0.4818350000000  0.4127110000000 1.0
C      1  0.4428550000000  0.4406230000000  0.4334880000000 1.0
C      1  0.5571480000000  0.4153230000000  0.4720880000000 1.0
C      1  0.5337420000000  0.4571510000000  0.4139390000000 1.0
C      1  0.4662610000000  0.4198610000000  0.4468930000000 1.0
C      1  0.5337420000000  0.4040450000000  0.4940780000000 1.0
C      1  0.4662600000000  0.4139380000000  0.5428490000000 1.0
C      1  0.5337400000000  0.4468940000000  0.5801390000000 1.0
C      1  0.4662590000000  0.4940770000000  0.5959560000000 1.0
C      1  0.5337390000000  0.5428500000000  0.5860620000000 1.0
C      1  0.4662580000000  0.5801390000000  0.5531060000000 1.0
C      1  0.5337390000000  0.5959560000000  0.5059230000000 1.0
C      1  0.4662590000000  0.5860610000000  0.4571510000000 1.0
C      1  0.5337400000000  0.5531070000000  0.4198610000000 1.0
C      1  0.4662600000000  0.5059220000000  0.4040440000000 1.0
C      1  0.5955970000000  0.4659560000000  0.5013300000000 1.0
C      1  0.4044040000000  0.4711790000000  0.5181730000000 1.0
C      1  0.5955960000000  0.4841290000000  0.5301500000000 1.0
C      1  0.4044030000000  0.5013280000000  0.5340450000000 1.0
C      1  0.5955960000000  0.5181750000000  0.5288210000000 1.0
C      1  0.4044030000000  0.5301480000000  0.5158710000000 1.0
C      1  0.5955960000000  0.5340470000000  0.4986720000000 1.0
C      1  0.4044030000000  0.5288190000000  0.4818260000000 1.0
C      1  0.5955970000000  0.5158730000000  0.4698520000000 1.0
C      1  0.4044040000000  0.4986700000000  0.4659540000000 1.0
C      1  0.5955970000000  0.4818280000000  0.4711810000000 1.0
C      1  0.4044040000000  0.4698500000000  0.4841270000000 1.0
END
