TITL C-2782237-5345-312 0.00281050048026828 125000 -627.837143417746 0 0 109 (C1) n - 1
REM
REM in /home/nfs/bkarasulu/CARBON/AIRSS/Generating-Clusters/REBO/Higher-Symm/SD-CG/HFTN-CG
REM
REM
REM
REM
REM
REM ./C.cell (12c818d87b63d06a65506943cc24bca4)
REM
REM compiler GCC version 9.2.1 20190827 (Red Hat 9.2.1-1)
REM options -cpp -mtune=generic -march=x86-64 -g -O0 -fpre-include=/usr/include/finclude/math-vector-fortran.h
REM seed 1323216130 -1705327153 902008543 822754679 2109010435 -18873037 -473039950 -262637207 -1145628442 1799587272 2109500288 -828678926 -392021275 -1677343853 682664673 -960606285 1044336371 -1006300445 -1530837057 835783686 1179708638 -209638437 -538351035 -1411303516 442233480 -759105833 1561652688 438780010 1735726328 226265305 -1585740819 2105253266 -704509600
REM
CELL 1.54180   50.00000   50.00000   50.00000   90.00000   90.00000   90.00000
LATT -1
SFAC C  
C      1  0.4675860000000  0.5750180000000  0.4459550000000 1.0
C      1  0.4204260000000  0.4942130000000  0.4322280000000 1.0
C      1  0.4830150000000  0.4212950000000  0.4400180000000 1.0
C      1  0.5637480000000  0.4593890000000  0.4391990000000 1.0
C      1  0.5531490000000  0.5547160000000  0.4307610000000 1.0
C      1  0.5304690000000  0.4431380000000  0.4633400000000 1.0
C      1  0.5684850000000  0.5142560000000  0.4554590000000 1.0
C      1  0.5083530000000  0.5682990000000  0.4663480000000 1.0
C      1  0.4383790000000  0.5318620000000  0.4631270000000 1.0
C      1  0.4523460000000  0.4518650000000  0.4642680000000 1.0
C      1  0.5664350000000  0.4856760000000  0.4608020000000 1.0
C      1  0.5312900000000  0.5488070000000  0.4562250000000 1.0
C      1  0.4642550000000  0.5483000000000  0.4669420000000 1.0
C      1  0.4414900000000  0.4809690000000  0.4555640000000 1.0
C      1  0.5000380000000  0.4404910000000  0.4624900000000 1.0
C      1  0.5828060000000  0.4140880000000  0.5467480000000 1.0
C      1  0.6128610000000  0.5565360000000  0.5358580000000 1.0
C      1  0.4723670000000  0.6087210000000  0.5521330000000 1.0
C      1  0.3628200000000  0.5179060000000  0.5196990000000 1.0
C      1  0.4381990000000  0.4183730000000  0.5571830000000 1.0
C      1  0.4115120000000  0.4651910000000  0.5247180000000 1.0
C      1  0.5047620000000  0.4356100000000  0.5282070000000 1.0
C      1  0.5758330000000  0.4835440000000  0.5252950000000 1.0
C      1  0.5420160000000  0.5630060000000  0.5287380000000 1.0
C      1  0.4547840000000  0.5411100000000  0.5292840000000 1.0
C      1  0.5695420000000  0.5360870000000  0.4779750000000 1.0
C      1  0.4901410000000  0.5698190000000  0.4919040000000 1.0
C      1  0.4243390000000  0.5103460000000  0.4830280000000 1.0
C      1  0.4691110000000  0.4350110000000  0.4888190000000 1.0
C      1  0.5528460000000  0.4506470000000  0.4880080000000 1.0
C      1  0.4647600000000  0.4740560000000  0.4870640000000 1.0
C      1  0.5147730000000  0.4790570000000  0.4884960000000 1.0
C      1  0.5430360000000  0.5070450000000  0.4851610000000 1.0
C      1  0.5159480000000  0.5358840000000  0.4906120000000 1.0
C      1  0.4716170000000  0.5128540000000  0.4924790000000 1.0
C      1  0.6024600000000  0.4739660000000  0.5074090000000 1.0
C      1  0.5512760000000  0.5859370000000  0.5056160000000 1.0
C      1  0.4407040000000  0.5712800000000  0.5222260000000 1.0
C      1  0.3961600000000  0.4537210000000  0.4978060000000 1.0
C      1  0.5032910000000  0.4036480000000  0.5165870000000 1.0
C      1  0.4904440000000  0.5405710000000  0.5632500000000 1.0
C      1  0.4277110000000  0.5016600000000  0.5528150000000 1.0
C      1  0.4857210000000  0.4661300000000  0.5604280000000 1.0
C      1  0.5446860000000  0.4711840000000  0.5605960000000 1.0
C      1  0.5503360000000  0.5272980000000  0.5595540000000 1.0
C      1  0.3892030000000  0.5118750000000  0.5215630000000 1.0
C      1  0.4558790000000  0.4277080000000  0.5386730000000 1.0
C      1  0.5701120000000  0.4345420000000  0.5341470000000 1.0
C      1  0.5890720000000  0.5461710000000  0.5276710000000 1.0
C      1  0.4797680000000  0.5861660000000  0.5388600000000 1.0
C      1  0.5869600000000  0.5302520000000  0.5038450000000 1.0
C      1  0.4974060000000  0.5869190000000  0.5161870000000 1.0
C      1  0.4096930000000  0.5245430000000  0.5058820000000 1.0
C      1  0.4484870000000  0.4297320000000  0.5112030000000 1.0
C      1  0.5541470000000  0.4307530000000  0.5107640000000 1.0
C      1  0.4731050000000  0.5600190000000  0.5483390000000 1.0
C      1  0.3999130000000  0.4922330000000  0.5396400000000 1.0
C      1  0.4800080000000  0.4403000000000  0.5464960000000 1.0
C      1  0.5682440000000  0.4607170000000  0.5452760000000 1.0
C      1  0.5653950000000  0.5483680000000  0.5434680000000 1.0
C      1  0.5476050000000  0.5222810000000  0.4314270000000 1.0
C      1  0.4928810000000  0.5536730000000  0.4396230000000 1.0
C      1  0.4454030000000  0.5149580000000  0.4352270000000 1.0
C      1  0.4721940000000  0.4526070000000  0.4365890000000 1.0
C      1  0.5307580000000  0.4603180000000  0.4330890000000 1.0
C      1  0.5784500000000  0.4552240000000  0.4695980000000 1.0
C      1  0.5619640000000  0.5623330000000  0.4626820000000 1.0
C      1  0.4630100000000  0.5801040000000  0.4792160000000 1.0
C      1  0.4095650000000  0.4893670000000  0.4638730000000 1.0
C      1  0.4838040000000  0.4122330000000  0.4727830000000 1.0
C      1  0.4734890000000  0.5068840000000  0.4220350000000 1.0
C      1  0.4839710000000  0.4796690000000  0.4224810000000 1.0
C      1  0.5127790000000  0.4816650000000  0.4203010000000 1.0
C      1  0.5199850000000  0.5098750000000  0.4205470000000 1.0
C      1  0.4956830000000  0.5255450000000  0.4234170000000 1.0
C      1  0.4370960000000  0.5171770000000  0.5722500000000 1.0
C      1  0.4915520000000  0.4797170000000  0.5824030000000 1.0
C      1  0.5314140000000  0.4768670000000  0.5827020000000 1.0
C      1  0.5398610000000  0.5158900000000  0.5811060000000 1.0
C      1  0.5028640000000  0.5306760000000  0.5844170000000 1.0
C      1  0.4243060000000  0.5461600000000  0.5142960000000 1.0
C      1  0.4238550000000  0.4406310000000  0.5059140000000 1.0
C      1  0.5303260000000  0.4181580000000  0.5142300000000 1.0
C      1  0.5941890000000  0.5040370000000  0.5062810000000 1.0
C      1  0.5242040000000  0.5892850000000  0.5210540000000 1.0
C      1  0.4654160000000  0.5039490000000  0.4609190000000 1.0
C      1  0.4871110000000  0.4707330000000  0.4613350000000 1.0
C      1  0.5355860000000  0.4756560000000  0.4621500000000 1.0
C      1  0.5287800000000  0.5149150000000  0.4591410000000 1.0
C      1  0.4934180000000  0.5318870000000  0.4654160000000 1.0
C      1  0.4457200000000  0.5893220000000  0.5024950000000 1.0
C      1  0.3908690000000  0.4690420000000  0.4762910000000 1.0
C      1  0.4924960000000  0.3926160000000  0.4942570000000 1.0
C      1  0.6034120000000  0.4566500000000  0.4867220000000 1.0
C      1  0.5625200000000  0.5859880000000  0.4815650000000 1.0
C      1  0.5320620000000  0.5301710000000  0.5316010000000 1.0
C      1  0.4847770000000  0.5247290000000  0.5340840000000 1.0
C      1  0.4364650000000  0.4865410000000  0.5268860000000 1.0
C      1  0.5005780000000  0.4701340000000  0.5300750000000 1.0
C      1  0.5422030000000  0.4874950000000  0.5315570000000 1.0
C      1  0.4911450000000  0.4590770000000  0.4992850000000 1.0
C      1  0.5446940000000  0.4784700000000  0.5008150000000 1.0
C      1  0.5462140000000  0.5336680000000  0.5021620000000 1.0
C      1  0.4855050000000  0.5408000000000  0.5040820000000 1.0
C      1  0.4465470000000  0.4951820000000  0.5002400000000 1.0
C      1  0.5031720000000  0.5059990000000  0.4965540000000 1.0
C      1  0.5123560000000  0.5015560000000  0.5932490000000 1.0
C      1  0.4988780000000  0.5005580000000  0.4556640000000 1.0
C      1  0.5111530000000  0.5029360000000  0.5291200000000 1.0
END
