TITL C-2782237-5345-534 -0.00474027372252296 125000 -944.301554280265 0 0 161 (C1) n - 1
REM
REM in /home/nfs/bkarasulu/CARBON/AIRSS/Generating-Clusters/REBO/Higher-Symm/SD-CG/HFTN-CG
REM
REM
REM
REM
REM
REM ./C.cell (12c818d87b63d06a65506943cc24bca4)
REM
REM compiler GCC version 9.2.1 20190827 (Red Hat 9.2.1-1)
REM options -cpp -mtune=generic -march=x86-64 -g -O0 -fpre-include=/usr/include/finclude/math-vector-fortran.h
REM seed 1085019740 -692442521 1029167819 -1804673833 1809462639 519316265 -2073128738 -1066382170 98599390 -2019076935 -1023365606 1647364858 -775215358 2035606568 -367383031 -135858924 -1395934758 -772211594 1515267964 1454211962 -1413088016 789982738 1224116585 -1713108454 2032960849 1778840343 996614322 -1511663862 1494605885 1925570612 1196277543 -686542278 -288226186
REM
CELL 1.54180   50.00000   50.00000   50.00000   90.00000   90.00000   90.00000
LATT -1
SFAC C  
C      1  0.5324850000000  0.5752590000000  0.4461250000000 1.0
C      1  0.3778700000000  0.5137430000000  0.5723710000000 1.0
C      1  0.4669590000000  0.4243460000000  0.4393790000000 1.0
C      1  0.5981630000000  0.4711420000000  0.5645860000000 1.0
C      1  0.4982530000000  0.5674790000000  0.5641510000000 1.0
C      1  0.4251930000000  0.4962630000000  0.4411430000000 1.0
C      1  0.5039910000000  0.4297330000000  0.5703030000000 1.0
C      1  0.5693790000000  0.4953420000000  0.4353450000000 1.0
C      1  0.4043260000000  0.4604660000000  0.4627590000000 1.0
C      1  0.5636990000000  0.3943690000000  0.5655600000000 1.0
C      1  0.6006490000000  0.5192650000000  0.4660990000000 1.0
C      1  0.4906810000000  0.5969570000000  0.5503440000000 1.0
C      1  0.4846480000000  0.5626380000000  0.4874020000000 1.0
C      1  0.4335260000000  0.4756240000000  0.5036370000000 1.0
C      1  0.5311670000000  0.4457380000000  0.4857010000000 1.0
C      1  0.5596860000000  0.5211680000000  0.5026450000000 1.0
C      1  0.4517230000000  0.5780250000000  0.5113600000000 1.0
C      1  0.4303290000000  0.4488900000000  0.4599240000000 1.0
C      1  0.5551980000000  0.4108010000000  0.5152360000000 1.0
C      1  0.5724590000000  0.5620120000000  0.4731350000000 1.0
C      1  0.4768450000000  0.5847810000000  0.4516600000000 1.0
C      1  0.4162860000000  0.4762720000000  0.5484010000000 1.0
C      1  0.5202580000000  0.4089710000000  0.4492820000000 1.0
C      1  0.5886510000000  0.5255740000000  0.5525350000000 1.0
C      1  0.4591550000000  0.5594370000000  0.5659530000000 1.0
C      1  0.4493630000000  0.4602190000000  0.4131840000000 1.0
C      1  0.5502850000000  0.4550320000000  0.5800840000000 1.0
C      1  0.5516240000000  0.5441360000000  0.4240250000000 1.0
C      1  0.4735460000000  0.5401620000000  0.4662720000000 1.0
C      1  0.4592670000000  0.4935120000000  0.5366100000000 1.0
C      1  0.5147160000000  0.4681310000000  0.4401630000000 1.0
C      1  0.5422930000000  0.5153340000000  0.5420650000000 1.0
C      1  0.4022220000000  0.4903950000000  0.5039570000000 1.0
C      1  0.5016170000000  0.3712830000000  0.4745210000000 1.0
C      1  0.5924930000000  0.5198510000000  0.5059860000000 1.0
C      1  0.4850410000000  0.5952200000000  0.4977990000000 1.0
C      1  0.5621190000000  0.5638490000000  0.4468660000000 1.0
C      1  0.4463980000000  0.5820360000000  0.5713520000000 1.0
C      1  0.4467860000000  0.4443470000000  0.4369150000000 1.0
C      1  0.5782860000000  0.4588400000000  0.5786230000000 1.0
C      1  0.4361630000000  0.4846450000000  0.5679660000000 1.0
C      1  0.5146090000000  0.4236450000000  0.4258260000000 1.0
C      1  0.5682180000000  0.5163300000000  0.5737450000000 1.0
C      1  0.4840940000000  0.5669240000000  0.4305020000000 1.0
C      1  0.4735480000000  0.4096430000000  0.4625450000000 1.0
C      1  0.6009780000000  0.4803730000000  0.5378380000000 1.0
C      1  0.5253640000000  0.5944770000000  0.4679620000000 1.0
C      1  0.3797860000000  0.5114190000000  0.5452610000000 1.0
C      1  0.4857370000000  0.5217330000000  0.4486030000000 1.0
C      1  0.4908990000000  0.4891530000000  0.5468890000000 1.0
C      1  0.5014860000000  0.4782000000000  0.4698240000000 1.0
C      1  0.5230100000000  0.4870190000000  0.5383050000000 1.0
C      1  0.5242600000000  0.4856230000000  0.4865450000000 1.0
C      1  0.5101250000000  0.5209350000000  0.5032940000000 1.0
C      1  0.4637690000000  0.5168830000000  0.4971190000000 1.0
C      1  0.4896860000000  0.4745990000000  0.5078260000000 1.0
C      1  0.4981100000000  0.3946500000000  0.4610440000000 1.0
C      1  0.6005980000000  0.5087400000000  0.5316290000000 1.0
C      1  0.4969000000000  0.5963250000000  0.4700880000000 1.0
C      1  0.3975860000000  0.4930170000000  0.5342560000000 1.0
C      1  0.5605760000000  0.4714470000000  0.4941520000000 1.0
C      1  0.5252570000000  0.5680100000000  0.5092840000000 1.0
C      1  0.4253760000000  0.5104310000000  0.4894830000000 1.0
C      1  0.5036520000000  0.4257770000000  0.5192960000000 1.0
C      1  0.5270610000000  0.5456470000000  0.4605780000000 1.0
C      1  0.4223120000000  0.5241940000000  0.5378950000000 1.0
C      1  0.4763570000000  0.4482190000000  0.4813810000000 1.0
C      1  0.5614300000000  0.4775910000000  0.5329350000000 1.0
C      1  0.5371240000000  0.4988550000000  0.4438800000000 1.0
C      1  0.4961880000000  0.5361900000000  0.5500050000000 1.0
C      1  0.4747840000000  0.4959500000000  0.4459420000000 1.0
C      1  0.5015470000000  0.4615380000000  0.5598050000000 1.0
C      1  0.5859530000000  0.4733400000000  0.4740960000000 1.0
C      1  0.5310090000000  0.5973530000000  0.5241930000000 1.0
C      1  0.3778840000000  0.4859510000000  0.4287730000000 1.0
C      1  0.4845470000000  0.4067130000000  0.5127380000000 1.0
C      1  0.5350740000000  0.4570360000000  0.5509010000000 1.0
C      1  0.5494970000000  0.5263630000000  0.4526020000000 1.0
C      1  0.4725540000000  0.5546600000000  0.5366540000000 1.0
C      1  0.4675780000000  0.4797720000000  0.4721970000000 1.0
C      1  0.4769050000000  0.5296690000000  0.4007240000000 1.0
C      1  0.4737950000000  0.4815900000000  0.5975770000000 1.0
C      1  0.5164370000000  0.4740500000000  0.4008000000000 1.0
C      1  0.5264900000000  0.5206890000000  0.5977330000000 1.0
C      1  0.5307330000000  0.4496360000000  0.4196750000000 1.0
C      1  0.5476360000000  0.5348290000000  0.5830980000000 1.0
C      1  0.4655850000000  0.5514890000000  0.4157660000000 1.0
C      1  0.4553660000000  0.4667270000000  0.5809400000000 1.0
C      1  0.4392200000000  0.4266630000000  0.5089370000000 1.0
C      1  0.5868330000000  0.4428910000000  0.4886990000000 1.0
C      1  0.5640220000000  0.5796870000000  0.5107980000000 1.0
C      1  0.4240360000000  0.6123910000000  0.4899370000000 1.0
C      1  0.5563180000000  0.5659230000000  0.5391850000000 1.0
C      1  0.4377920000000  0.5558820000000  0.4548790000000 1.0
C      1  0.4518300000000  0.4426170000000  0.5362090000000 1.0
C      1  0.5638200000000  0.4418950000000  0.4633070000000 1.0
C      1  0.5027610000000  0.4728680000000  0.5980180000000 1.0
C      1  0.5257230000000  0.5024310000000  0.4062360000000 1.0
C      1  0.4978910000000  0.5285420000000  0.5922680000000 1.0
C      1  0.4598250000000  0.5061020000000  0.4019450000000 1.0
C      1  0.5347960000000  0.5353940000000  0.4029790000000 1.0
C      1  0.4624530000000  0.5368520000000  0.5872090000000 1.0
C      1  0.4649390000000  0.4781480000000  0.3967530000000 1.0
C      1  0.5360230000000  0.4657000000000  0.6027470000000 1.0
C      1  0.4843930000000  0.5122100000000  0.5656750000000 1.0
C      1  0.4885390000000  0.4799060000000  0.4288830000000 1.0
C      1  0.5209860000000  0.4870180000000  0.5729090000000 1.0
C      1  0.5132030000000  0.5204450000000  0.4327790000000 1.0
C      1  0.4428260000000  0.5332070000000  0.4754860000000 1.0
C      1  0.4675560000000  0.4664550000000  0.5242560000000 1.0
C      1  0.5384170000000  0.4655060000000  0.4618690000000 1.0
C      1  0.5161460000000  0.5256450000000  0.5307660000000 1.0
C      1  0.4664580000000  0.5074580000000  0.6038470000000 1.0
C      1  0.4916030000000  0.4708450000000  0.3900890000000 1.0
C      1  0.5334290000000  0.4956070000000  0.6098110000000 1.0
C      1  0.5047230000000  0.5340070000000  0.3944050000000 1.0
C      1  0.4807040000000  0.3820010000000  0.5242610000000 1.0
C      1  0.5900350000000  0.4929410000000  0.4547430000000 1.0
C      1  0.5178200000000  0.6099290000000  0.5415070000000 1.0
C      1  0.4003620000000  0.4816610000000  0.4431740000000 1.0
C      1  0.4348220000000  0.5048830000000  0.5216380000000 1.0
C      1  0.5050180000000  0.4480620000000  0.4983580000000 1.0
C      1  0.5461920000000  0.4951510000000  0.5079850000000 1.0
C      1  0.5132180000000  0.5469930000000  0.4869750000000 1.0
C      1  0.4720240000000  0.5951220000000  0.5253190000000 1.0
C      1  0.3981350000000  0.4620060000000  0.4909400000000 1.0
C      1  0.5595440000000  0.4024010000000  0.5409620000000 1.0
C      1  0.5993540000000  0.5460580000000  0.4865550000000 1.0
C      1  0.5179730000000  0.4297120000000  0.5425850000000 1.0
C      1  0.5702280000000  0.5224310000000  0.4728800000000 1.0
C      1  0.5025260000000  0.5700170000000  0.5303340000000 1.0
C      1  0.4401430000000  0.4946710000000  0.4658000000000 1.0
C      1  0.5598080000000  0.4480510000000  0.4329510000000 1.0
C      1  0.5464390000000  0.5597480000000  0.5678720000000 1.0
C      1  0.4397620000000  0.5497580000000  0.4273640000000 1.0
C      1  0.4589920000000  0.4420020000000  0.5667000000000 1.0
C      1  0.5534540000000  0.4908410000000  0.5631520000000 1.0
C      1  0.5106640000000  0.5544080000000  0.4329470000000 1.0
C      1  0.4506550000000  0.5117430000000  0.5675150000000 1.0
C      1  0.4870560000000  0.4235910000000  0.4188970000000 1.0
C      1  0.5579820000000  0.5034270000000  0.4091450000000 1.0
C      1  0.4954710000000  0.5589400000000  0.5912410000000 1.0
C      1  0.4367860000000  0.5087620000000  0.4187380000000 1.0
C      1  0.5052540000000  0.4403960000000  0.5969210000000 1.0
C      1  0.5947980000000  0.5745490000000  0.5030340000000 1.0
C      1  0.4404970000000  0.5908190000000  0.4882940000000 1.0
C      1  0.4091220000000  0.4425100000000  0.5083330000000 1.0
C      1  0.5482600000000  0.3971520000000  0.4918150000000 1.0
C      1  0.4649750000000  0.4177530000000  0.4917440000000 1.0
C      1  0.5873240000000  0.4609520000000  0.5179950000000 1.0
C      1  0.5445370000000  0.5957680000000  0.4879770000000 1.0
C      1  0.3645030000000  0.5268770000000  0.5287850000000 1.0
C      1  0.5408400000000  0.4175350000000  0.4693490000000 1.0
C      1  0.5632860000000  0.5367760000000  0.5399020000000 1.0
C      1  0.4499790000000  0.5806180000000  0.4628030000000 1.0
C      1  0.4215420000000  0.4518190000000  0.5343360000000 1.0
C      1  0.5569070000000  0.4391550000000  0.5047080000000 1.0
C      1  0.5515450000000  0.5512090000000  0.4974100000000 1.0
C      1  0.4626950000000  0.5474010000000  0.5073070000000 1.0
C      1  0.4439460000000  0.4514140000000  0.4874400000000 1.0
C      1  0.4884000000000  0.5025810000000  0.4993900000000 1.0
END
