TITL C-2782229-3092-533 -0.000839495563734185 125000 -454.91101125806 0 0 82 (C1) n - 1
REM
REM in /home/nfs/bkarasulu/CARBON/AIRSS/Generating-Clusters/REBO/Higher-Symm/SD-CG/HFTN-CG
REM
REM
REM
REM
REM
REM ./C.cell (12c818d87b63d06a65506943cc24bca4)
REM
REM compiler GCC version 9.2.1 20190827 (Red Hat 9.2.1-1)
REM options -cpp -mtune=generic -march=x86-64 -g -O0 -fpre-include=/usr/include/finclude/math-vector-fortran.h
REM seed -1619040700 168040890 251865302 1551491379 -559145413 -923232073 -1806661010 1158251715 116151517 1766430775 348173583 -1249124808 438363394 1690554000 -351086897 1834490932 -943639880 318795141 1205385296 -1216114573 -499931691 695249203 -307457731 1270570046 -2145306849 -2125925869 -1579868004 -1046574019 -1135853791 1086854458 -1155762428 1882883524 1799656881
REM
CELL 1.54180   50.00000   50.00000   50.00000   90.00000   90.00000   90.00000
LATT -1
SFAC C  
C      1  0.5698860000000  0.4995590000000  0.4726580000000 1.0
C      1  0.4648010000000  0.4351210000000  0.4595500000000 1.0
C      1  0.4658780000000  0.5645030000000  0.4611730000000 1.0
C      1  0.5598040000000  0.4868650000000  0.5524850000000 1.0
C      1  0.4519060000000  0.4503970000000  0.5610550000000 1.0
C      1  0.4834490000000  0.5601580000000  0.5485690000000 1.0
C      1  0.5167100000000  0.4514110000000  0.5288150000000 1.0
C      1  0.4512070000000  0.4993590000000  0.5267280000000 1.0
C      1  0.5345120000000  0.5489940000000  0.5268600000000 1.0
C      1  0.5492400000000  0.4450560000000  0.5360920000000 1.0
C      1  0.4252480000000  0.4792290000000  0.5360130000000 1.0
C      1  0.5244260000000  0.5774020000000  0.5378090000000 1.0
C      1  0.4270190000000  0.4630320000000  0.5602490000000 1.0
C      1  0.5055880000000  0.5752920000000  0.5578970000000 1.0
C      1  0.5595880000000  0.4595060000000  0.5584060000000 1.0
C      1  0.4680710000000  0.4265240000000  0.4922950000000 1.0
C      1  0.4591160000000  0.5670990000000  0.4936630000000 1.0
C      1  0.5630400000000  0.5121550000000  0.4990550000000 1.0
C      1  0.5210980000000  0.5243450000000  0.4816300000000 1.0
C      1  0.4931110000000  0.4712310000000  0.4757710000000 1.0
C      1  0.4806200000000  0.5193300000000  0.4776960000000 1.0
C      1  0.5239180000000  0.5582790000000  0.4825860000000 1.0
C      1  0.5279860000000  0.4606130000000  0.4916440000000 1.0
C      1  0.4472510000000  0.4879190000000  0.4887350000000 1.0
C      1  0.4463280000000  0.5473010000000  0.5165060000000 1.0
C      1  0.5691810000000  0.5290810000000  0.5269650000000 1.0
C      1  0.4785860000000  0.4226220000000  0.5240700000000 1.0
C      1  0.5078120000000  0.5335360000000  0.5180710000000 1.0
C      1  0.5082270000000  0.4797900000000  0.5117920000000 1.0
C      1  0.4759730000000  0.4898330000000  0.5064360000000 1.0
C      1  0.4781040000000  0.4557640000000  0.5017780000000 1.0
C      1  0.4867060000000  0.5384980000000  0.4963350000000 1.0
C      1  0.5307300000000  0.5032480000000  0.5057240000000 1.0
C      1  0.5116010000000  0.5751300000000  0.5071090000000 1.0
C      1  0.5556380000000  0.4611650000000  0.5083780000000 1.0
C      1  0.4401100000000  0.4648230000000  0.5102530000000 1.0
C      1  0.4187090000000  0.5132770000000  0.5231810000000 1.0
C      1  0.5560590000000  0.5576360000000  0.5063030000000 1.0
C      1  0.5279680000000  0.4261000000000  0.5116470000000 1.0
C      1  0.5206320000000  0.4986310000000  0.5800310000000 1.0
C      1  0.4929280000000  0.4786930000000  0.5770540000000 1.0
C      1  0.4913470000000  0.5120890000000  0.5686580000000 1.0
C      1  0.4839240000000  0.5465530000000  0.4376990000000 1.0
C      1  0.5461980000000  0.4898910000000  0.4496340000000 1.0
C      1  0.4676400000000  0.4592520000000  0.4355250000000 1.0
C      1  0.4847230000000  0.4816050000000  0.5440830000000 1.0
C      1  0.4986170000000  0.5116430000000  0.5350830000000 1.0
C      1  0.5180250000000  0.4874420000000  0.5478870000000 1.0
C      1  0.4993920000000  0.5164030000000  0.4346370000000 1.0
C      1  0.5147680000000  0.4860140000000  0.4371760000000 1.0
C      1  0.4807800000000  0.4879400000000  0.4365150000000 1.0
C      1  0.5142980000000  0.4246570000000  0.4205170000000 1.0
C      1  0.4403050000000  0.5235530000000  0.4429390000000 1.0
C      1  0.5486130000000  0.5380720000000  0.4384260000000 1.0
C      1  0.4728460000000  0.5350510000000  0.5547150000000 1.0
C      1  0.5471210000000  0.5082480000000  0.5654510000000 1.0
C      1  0.4816690000000  0.4486070000000  0.5661520000000 1.0
C      1  0.4648160000000  0.4619540000000  0.5325370000000 1.0
C      1  0.4823590000000  0.5643300000000  0.5183600000000 1.0
C      1  0.5573960000000  0.4897530000000  0.5225400000000 1.0
C      1  0.5365230000000  0.4607520000000  0.4591210000000 1.0
C      1  0.4522540000000  0.4730920000000  0.4602610000000 1.0
C      1  0.5051620000000  0.5650090000000  0.4553840000000 1.0
C      1  0.5171970000000  0.4520570000000  0.4373990000000 1.0
C      1  0.4613180000000  0.5056330000000  0.4560530000000 1.0
C      1  0.5201460000000  0.5358550000000  0.4500140000000 1.0
C      1  0.5495890000000  0.5311770000000  0.5496880000000 1.0
C      1  0.4938890000000  0.4366850000000  0.5428340000000 1.0
C      1  0.4535970000000  0.5285310000000  0.5353150000000 1.0
C      1  0.5534680000000  0.5674690000000  0.4753560000000 1.0
C      1  0.5211690000000  0.4302330000000  0.4795170000000 1.0
C      1  0.4290840000000  0.5107660000000  0.4919080000000 1.0
C      1  0.5641640000000  0.4676390000000  0.4771850000000 1.0
C      1  0.4438850000000  0.4487310000000  0.4826920000000 1.0
C      1  0.4893460000000  0.5781160000000  0.4817470000000 1.0
C      1  0.4071670000000  0.5324760000000  0.4989450000000 1.0
C      1  0.5809080000000  0.5724620000000  0.4901040000000 1.0
C      1  0.5260250000000  0.4008650000000  0.4904740000000 1.0
C      1  0.4889270000000  0.4349060000000  0.4372060000000 1.0
C      1  0.4509450000000  0.5483880000000  0.4370030000000 1.0
C      1  0.5644210000000  0.5163340000000  0.4442590000000 1.0
C      1  0.5015070000000  0.4969900000000  0.4763280000000 1.0
END
