TITL C-2782228-2999-134 0.332661533906756 125000 -477.315416204262 0 0 83 (C1) n - 1
REM
REM in /home/nfs/bkarasulu/CARBON/AIRSS/Generating-Clusters/REBO/Higher-Symm/SD-CG/HFTN-CG
REM
REM
REM
REM
REM
REM ./C.cell (12c818d87b63d06a65506943cc24bca4)
REM
REM compiler GCC version 9.2.1 20190827 (Red Hat 9.2.1-1)
REM options -cpp -mtune=generic -march=x86-64 -g -O0 -fpre-include=/usr/include/finclude/math-vector-fortran.h
REM seed -1225551520 -708256404 963349322 -16812481 1666900536 951740922 -1998927921 -332577987 -2129729531 -1894942275 -2025659778 1260158379 88539708 -1918837442 -362316111 1159105460 1651465604 1244493493 -384685213 355566272 -2000226619 -43639571 -1625939081 -2112346716 -2035292292 -1449234038 1456596922 -17470214 -168109694 -1005889227 -531543304 703278590 -1676016561
REM
CELL 1.54180   50.00000   50.00000   50.00000   90.00000   90.00000   90.00000
LATT -1
SFAC C  
C      1  0.5622790000000  0.5504040000000  0.5147100000000 1.0
C      1  0.4362990000000  0.4277250000000  0.5436070000000 1.0
C      1  0.5213300000000  0.5136640000000  0.4215840000000 1.0
C      1  0.4363630000000  0.4032440000000  0.5529610000000 1.0
C      1  0.4538460000000  0.4887610000000  0.4347800000000 1.0
C      1  0.4559720000000  0.4730090000000  0.5421080000000 1.0
C      1  0.5318710000000  0.4302850000000  0.5325970000000 1.0
C      1  0.4642780000000  0.4668620000000  0.4691470000000 1.0
C      1  0.5633340000000  0.4375400000000  0.4926100000000 1.0
C      1  0.4891340000000  0.5911780000000  0.4986300000000 1.0
C      1  0.5198420000000  0.5572460000000  0.4835360000000 1.0
C      1  0.4753410000000  0.5416060000000  0.4479520000000 1.0
C      1  0.6041260000000  0.4915170000000  0.5025570000000 1.0
C      1  0.5168890000000  0.5319940000000  0.4735170000000 1.0
C      1  0.4741150000000  0.5689590000000  0.4901450000000 1.0
C      1  0.5408270000000  0.5336910000000  0.4415580000000 1.0
C      1  0.4615400000000  0.5662430000000  0.4654700000000 1.0
C      1  0.4270350000000  0.5262400000000  0.4880830000000 1.0
C      1  0.4515900000000  0.4989200000000  0.5319890000000 1.0
C      1  0.4956210000000  0.5595690000000  0.5708070000000 1.0
C      1  0.4654970000000  0.4947160000000  0.4725030000000 1.0
C      1  0.4877630000000  0.5199990000000  0.4664030000000 1.0
C      1  0.4362320000000  0.4537970000000  0.5336460000000 1.0
C      1  0.5317640000000  0.5461290000000  0.5619610000000 1.0
C      1  0.4787620000000  0.5412400000000  0.5013900000000 1.0
C      1  0.4351160000000  0.4545220000000  0.4658760000000 1.0
C      1  0.4547750000000  0.5212200000000  0.4877710000000 1.0
C      1  0.5183790000000  0.4788690000000  0.5859620000000 1.0
C      1  0.5154470000000  0.4066950000000  0.5150670000000 1.0
C      1  0.5438340000000  0.5076500000000  0.5407870000000 1.0
C      1  0.5568470000000  0.4623760000000  0.4730240000000 1.0
C      1  0.5665280000000  0.4674860000000  0.5285110000000 1.0
C      1  0.4922520000000  0.4442350000000  0.5601190000000 1.0
C      1  0.5163890000000  0.5962810000000  0.5060120000000 1.0
C      1  0.5235140000000  0.5850750000000  0.5337120000000 1.0
C      1  0.5015180000000  0.4227640000000  0.4895680000000 1.0
C      1  0.4248810000000  0.5085180000000  0.5308850000000 1.0
C      1  0.5591070000000  0.5634010000000  0.4852740000000 1.0
C      1  0.5694460000000  0.4642470000000  0.4484300000000 1.0
C      1  0.5047090000000  0.4691790000000  0.4786110000000 1.0
C      1  0.5588630000000  0.4417960000000  0.5192970000000 1.0
C      1  0.4991950000000  0.4961470000000  0.5663040000000 1.0
C      1  0.4514860000000  0.4295130000000  0.4641620000000 1.0
C      1  0.5087950000000  0.5374410000000  0.5163950000000 1.0
C      1  0.4821780000000  0.4379540000000  0.4679670000000 1.0
C      1  0.5017600000000  0.4844820000000  0.4554850000000 1.0
C      1  0.5169380000000  0.4455980000000  0.5080160000000 1.0
C      1  0.5294130000000  0.4993270000000  0.4955020000000 1.0
C      1  0.5088350000000  0.4216870000000  0.4570770000000 1.0
C      1  0.5341990000000  0.4617940000000  0.5707770000000 1.0
C      1  0.5777570000000  0.4932320000000  0.5117600000000 1.0
C      1  0.4123810000000  0.5089530000000  0.5051560000000 1.0
C      1  0.5199290000000  0.5751430000000  0.5601980000000 1.0
C      1  0.4795580000000  0.4698050000000  0.5572510000000 1.0
C      1  0.5226420000000  0.4126980000000  0.4374180000000 1.0
C      1  0.5236530000000  0.5068120000000  0.4537020000000 1.0
C      1  0.4186430000000  0.4779510000000  0.4674430000000 1.0
C      1  0.4807330000000  0.5348700000000  0.5438520000000 1.0
C      1  0.5367510000000  0.5858480000000  0.4852210000000 1.0
C      1  0.4752530000000  0.5142340000000  0.5213050000000 1.0
C      1  0.4955160000000  0.5040980000000  0.4957440000000 1.0
C      1  0.4171270000000  0.4622050000000  0.5139680000000 1.0
C      1  0.4095100000000  0.4822290000000  0.4946830000000 1.0
C      1  0.4974950000000  0.5029670000000  0.4125370000000 1.0
C      1  0.5476420000000  0.4781860000000  0.5484310000000 1.0
C      1  0.5040380000000  0.5264510000000  0.5649790000000 1.0
C      1  0.5306600000000  0.5601680000000  0.5150200000000 1.0
C      1  0.5285160000000  0.4491340000000  0.4768770000000 1.0
C      1  0.4293300000000  0.4970990000000  0.4481640000000 1.0
C      1  0.5545770000000  0.4880770000000  0.4901660000000 1.0
C      1  0.5588040000000  0.5475770000000  0.4626240000000 1.0
C      1  0.5201580000000  0.5532760000000  0.4261660000000 1.0
C      1  0.5239010000000  0.5138540000000  0.5216090000000 1.0
C      1  0.5144560000000  0.4805490000000  0.5413360000000 1.0
C      1  0.4246010000000  0.5249650000000  0.4481810000000 1.0
C      1  0.4953330000000  0.5523040000000  0.4276070000000 1.0
C      1  0.4824970000000  0.4886950000000  0.4334120000000 1.0
C      1  0.4424050000000  0.5459590000000  0.4499060000000 1.0
C      1  0.4693900000000  0.5607560000000  0.5534340000000 1.0
C      1  0.5029920000000  0.4750050000000  0.5123670000000 1.0
C      1  0.5205230000000  0.4398850000000  0.5590890000000 1.0
C      1  0.5564240000000  0.5440660000000  0.5477000000000 1.0
C      1  0.5707520000000  0.5201540000000  0.5278500000000 1.0
END
