TITL C-2782230-7391-999 -0.0007985783718092 125000 -934.621882941791 0 0 160 (C1) n - 1
REM
REM in /home/nfs/bkarasulu/CARBON/AIRSS/Generating-Clusters/REBO/Higher-Symm/SD-CG/HFTN-CG
REM
REM
REM
REM
REM
REM ./C.cell (12c818d87b63d06a65506943cc24bca4)
REM
REM compiler GCC version 9.2.1 20190827 (Red Hat 9.2.1-1)
REM options -cpp -mtune=generic -march=x86-64 -g -O0 -fpre-include=/usr/include/finclude/math-vector-fortran.h
REM seed -542598796 763720940 -344076666 -1200902210 1340548005 1426951154 -1577317445 -394620558 455757247 -1856230747 1876939048 -2134526661 2010679837 426953814 1134026220 -886457304 256116334 1543092913 1639374404 763238911 1654074349 1284291617 -145892628 1189386226 -828625532 573599461 2021686885 -1471480886 -404229597 -932077212 -979694966 -1605321877 -1594123707
REM
CELL 1.54180   50.00000   50.00000   50.00000   90.00000   90.00000   90.00000
LATT -1
SFAC C  
C      1  0.5448950000000  0.5220760000000  0.4555870000000 1.0
C      1  0.4422040000000  0.5622950000000  0.4791850000000 1.0
C      1  0.4013680000000  0.4361570000000  0.4997570000000 1.0
C      1  0.3781500000000  0.4483870000000  0.5064060000000 1.0
C      1  0.4551220000000  0.4317700000000  0.5691900000000 1.0
C      1  0.4372670000000  0.5120090000000  0.4128240000000 1.0
C      1  0.4755810000000  0.5087620000000  0.5340990000000 1.0
C      1  0.5170380000000  0.5512400000000  0.5103740000000 1.0
C      1  0.5693310000000  0.5626350000000  0.5609790000000 1.0
C      1  0.5387910000000  0.4996440000000  0.6234300000000 1.0
C      1  0.5659420000000  0.5049270000000  0.5641980000000 1.0
C      1  0.4422010000000  0.4723780000000  0.5032530000000 1.0
C      1  0.4359900000000  0.5571720000000  0.5772950000000 1.0
C      1  0.4583390000000  0.4091820000000  0.4639670000000 1.0
C      1  0.4597560000000  0.5485410000000  0.4624820000000 1.0
C      1  0.5342760000000  0.6020450000000  0.4828100000000 1.0
C      1  0.5709450000000  0.4508680000000  0.5547830000000 1.0
C      1  0.5857190000000  0.4341550000000  0.5309630000000 1.0
C      1  0.4057990000000  0.5620910000000  0.5516720000000 1.0
C      1  0.5520520000000  0.5035230000000  0.4279980000000 1.0
C      1  0.4928090000000  0.4091780000000  0.5408980000000 1.0
C      1  0.5296170000000  0.4880150000000  0.6007720000000 1.0
C      1  0.5438300000000  0.5656840000000  0.4179770000000 1.0
C      1  0.4786420000000  0.3946720000000  0.4840310000000 1.0
C      1  0.4345720000000  0.4783240000000  0.4089420000000 1.0
C      1  0.5827000000000  0.4829380000000  0.5548060000000 1.0
C      1  0.4789190000000  0.5624360000000  0.4945590000000 1.0
C      1  0.5034080000000  0.4474630000000  0.5427910000000 1.0
C      1  0.4950890000000  0.3967730000000  0.4549830000000 1.0
C      1  0.4589780000000  0.4484250000000  0.4706800000000 1.0
C      1  0.3753780000000  0.4758250000000  0.5051460000000 1.0
C      1  0.5591520000000  0.5790790000000  0.4795280000000 1.0
C      1  0.5067530000000  0.4881010000000  0.4015200000000 1.0
C      1  0.5131400000000  0.4144430000000  0.4319160000000 1.0
C      1  0.4217440000000  0.4542280000000  0.4838960000000 1.0
C      1  0.5475090000000  0.5307790000000  0.5743810000000 1.0
C      1  0.4891820000000  0.4998090000000  0.5092090000000 1.0
C      1  0.5275390000000  0.5368110000000  0.4227980000000 1.0
C      1  0.5277640000000  0.4042570000000  0.4598730000000 1.0
C      1  0.5879450000000  0.5218940000000  0.5355300000000 1.0
C      1  0.4343310000000  0.5572830000000  0.5378300000000 1.0
C      1  0.4673550000000  0.4844960000000  0.4900230000000 1.0
C      1  0.4672510000000  0.5003730000000  0.4062180000000 1.0
C      1  0.5532220000000  0.5155290000000  0.4011470000000 1.0
C      1  0.5415940000000  0.5447360000000  0.6041840000000 1.0
C      1  0.5264670000000  0.4432680000000  0.5840030000000 1.0
C      1  0.4238340000000  0.5408180000000  0.5126920000000 1.0
C      1  0.4957730000000  0.4559230000000  0.4027370000000 1.0
C      1  0.4543010000000  0.4734940000000  0.4538630000000 1.0
C      1  0.4283350000000  0.5043590000000  0.5732220000000 1.0
C      1  0.5199650000000  0.4204120000000  0.4875140000000 1.0
C      1  0.5445250000000  0.4720520000000  0.5576300000000 1.0
C      1  0.5764850000000  0.5877740000000  0.5080190000000 1.0
C      1  0.4567810000000  0.5391770000000  0.5571360000000 1.0
C      1  0.4944150000000  0.5284230000000  0.5496190000000 1.0
C      1  0.5526230000000  0.4725740000000  0.5266960000000 1.0
C      1  0.5261460000000  0.4850460000000  0.5733700000000 1.0
C      1  0.4713250000000  0.5137640000000  0.4477180000000 1.0
C      1  0.4259090000000  0.5117020000000  0.5400290000000 1.0
C      1  0.5295200000000  0.4823610000000  0.4255910000000 1.0
C      1  0.4140030000000  0.4844430000000  0.4777310000000 1.0
C      1  0.5408710000000  0.5637980000000  0.5760450000000 1.0
C      1  0.5148040000000  0.5033160000000  0.5397130000000 1.0
C      1  0.4511180000000  0.5245890000000  0.5224660000000 1.0
C      1  0.4905120000000  0.5180280000000  0.3966840000000 1.0
C      1  0.5090580000000  0.5213960000000  0.4960080000000 1.0
C      1  0.5440740000000  0.5541220000000  0.4682720000000 1.0
C      1  0.5885360000000  0.4613600000000  0.4576740000000 1.0
C      1  0.4389000000000  0.5271850000000  0.5934030000000 1.0
C      1  0.5234500000000  0.5172710000000  0.3952150000000 1.0
C      1  0.4176540000000  0.4560630000000  0.5301070000000 1.0
C      1  0.5602750000000  0.5421670000000  0.4338650000000 1.0
C      1  0.5469930000000  0.5624890000000  0.5170890000000 1.0
C      1  0.4573880000000  0.4605440000000  0.5292040000000 1.0
C      1  0.5042510000000  0.5545900000000  0.5383520000000 1.0
C      1  0.5178750000000  0.5860710000000  0.5305490000000 1.0
C      1  0.5766540000000  0.4616040000000  0.4872970000000 1.0
C      1  0.5405160000000  0.5278440000000  0.4883940000000 1.0
C      1  0.5069450000000  0.5090160000000  0.4649930000000 1.0
C      1  0.5953150000000  0.5376880000000  0.4811130000000 1.0
C      1  0.4794750000000  0.4382220000000  0.4251150000000 1.0
C      1  0.5061920000000  0.5895190000000  0.4841450000000 1.0
C      1  0.4910870000000  0.5872210000000  0.5140810000000 1.0
C      1  0.4736600000000  0.5635670000000  0.4362860000000 1.0
C      1  0.5435020000000  0.5955860000000  0.5124080000000 1.0
C      1  0.4842670000000  0.5816020000000  0.5705340000000 1.0
C      1  0.4830660000000  0.5336890000000  0.5780400000000 1.0
C      1  0.4959060000000  0.4833850000000  0.5597630000000 1.0
C      1  0.5181690000000  0.4853610000000  0.5111370000000 1.0
C      1  0.4650530000000  0.4674870000000  0.4005920000000 1.0
C      1  0.5626390000000  0.4449240000000  0.4440350000000 1.0
C      1  0.4603440000000  0.5836010000000  0.5234510000000 1.0
C      1  0.5142050000000  0.5606230000000  0.6056780000000 1.0
C      1  0.4425090000000  0.5761120000000  0.5034450000000 1.0
C      1  0.5835940000000  0.4648170000000  0.5194990000000 1.0
C      1  0.5464820000000  0.5255360000000  0.6269570000000 1.0
C      1  0.4835450000000  0.4490850000000  0.5200660000000 1.0
C      1  0.4830900000000  0.5480920000000  0.4073970000000 1.0
C      1  0.5078380000000  0.4559140000000  0.4662260000000 1.0
C      1  0.4144530000000  0.5338600000000  0.5631470000000 1.0
C      1  0.5380770000000  0.4282950000000  0.5114800000000 1.0
C      1  0.5809830000000  0.5004040000000  0.4578310000000 1.0
C      1  0.4689580000000  0.5127550000000  0.4772340000000 1.0
C      1  0.4329720000000  0.4921370000000  0.4580990000000 1.0
C      1  0.5364230000000  0.4532200000000  0.4648310000000 1.0
C      1  0.4777300000000  0.4150760000000  0.5635610000000 1.0
C      1  0.4540820000000  0.4243660000000  0.4942540000000 1.0
C      1  0.5747330000000  0.4805820000000  0.4327580000000 1.0
C      1  0.4584950000000  0.5342290000000  0.4256010000000 1.0
C      1  0.5436660000000  0.4328760000000  0.5643820000000 1.0
C      1  0.5997470000000  0.4913500000000  0.5263310000000 1.0
C      1  0.5731300000000  0.5129100000000  0.5059610000000 1.0
C      1  0.5836190000000  0.5300070000000  0.4554270000000 1.0
C      1  0.4929680000000  0.5598080000000  0.5893290000000 1.0
C      1  0.4201110000000  0.4864550000000  0.5245440000000 1.0
C      1  0.4307300000000  0.4288660000000  0.5132040000000 1.0
C      1  0.4833350000000  0.5792090000000  0.4649370000000 1.0
C      1  0.5145900000000  0.5580430000000  0.4781120000000 1.0
C      1  0.5259750000000  0.4562320000000  0.5221320000000 1.0
C      1  0.4657790000000  0.4828680000000  0.5500200000000 1.0
C      1  0.5183870000000  0.4370260000000  0.4164320000000 1.0
C      1  0.5297730000000  0.4904580000000  0.4814460000000 1.0
C      1  0.3940330000000  0.4948060000000  0.4950660000000 1.0
C      1  0.4839160000000  0.4466530000000  0.4532230000000 1.0
C      1  0.5513950000000  0.5315730000000  0.5190110000000 1.0
C      1  0.4215360000000  0.4637650000000  0.4275940000000 1.0
C      1  0.4558620000000  0.5770900000000  0.5566170000000 1.0
C      1  0.5026390000000  0.4530050000000  0.5735460000000 1.0
C      1  0.5843780000000  0.5392100000000  0.5555940000000 1.0
C      1  0.4935650000000  0.4304610000000  0.4934290000000 1.0
C      1  0.4711260000000  0.4125640000000  0.4366700000000 1.0
C      1  0.6050500000000  0.4862690000000  0.4743860000000 1.0
C      1  0.6044760000000  0.5091090000000  0.4973990000000 1.0
C      1  0.5025710000000  0.4896370000000  0.4413490000000 1.0
C      1  0.5679180000000  0.5779650000000  0.5377140000000 1.0
C      1  0.4753810000000  0.4788620000000  0.4311850000000 1.0
C      1  0.4700100000000  0.5342440000000  0.4980120000000 1.0
C      1  0.5581530000000  0.4876190000000  0.4990120000000 1.0
C      1  0.4975300000000  0.5316500000000  0.4335660000000 1.0
C      1  0.5435130000000  0.5894790000000  0.4084740000000 1.0
C      1  0.5535580000000  0.4803410000000  0.4602130000000 1.0
C      1  0.4196390000000  0.4536170000000  0.4521690000000 1.0
C      1  0.4469900000000  0.4800660000000  0.5739590000000 1.0
C      1  0.5394480000000  0.4536560000000  0.4250580000000 1.0
C      1  0.4084530000000  0.5416340000000  0.4827020000000 1.0
C      1  0.5248700000000  0.4207510000000  0.5402300000000 1.0
C      1  0.4905980000000  0.4638940000000  0.4917040000000 1.0
C      1  0.4500080000000  0.4550620000000  0.5858700000000 1.0
C      1  0.4654890000000  0.5215220000000  0.6005270000000 1.0
C      1  0.5512820000000  0.4243120000000  0.4741700000000 1.0
C      1  0.3978950000000  0.5210030000000  0.5037850000000 1.0
C      1  0.5688200000000  0.4320310000000  0.5022460000000 1.0
C      1  0.5167400000000  0.5757620000000  0.5615680000000 1.0
C      1  0.4939670000000  0.5409700000000  0.4646070000000 1.0
C      1  0.4151760000000  0.5365680000000  0.4562650000000 1.0
C      1  0.5873760000000  0.5628850000000  0.4895530000000 1.0
C      1  0.5416550000000  0.5181530000000  0.5442210000000 1.0
C      1  0.4407650000000  0.4370060000000  0.5440580000000 1.0
C      1  0.4783760000000  0.4098600000000  0.5136130000000 1.0
C      1  0.4277220000000  0.5154270000000  0.4428250000000 1.0
END
