TITL C-2782231-7322-380 -0.00344918850697511 125000 -248.86901742198 0 0 43 (C1) n - 1
REM
REM in /home/nfs/bkarasulu/CARBON/AIRSS/Generating-Clusters/REBO/Higher-Symm/SD-CG/HFTN-CG
REM
REM
REM
REM
REM
REM ./C.cell (12c818d87b63d06a65506943cc24bca4)
REM
REM compiler GCC version 9.2.1 20190827 (Red Hat 9.2.1-1)
REM options -cpp -mtune=generic -march=x86-64 -g -O0 -fpre-include=/usr/include/finclude/math-vector-fortran.h
REM seed -1909498165 -1776306269 -69264690 -408618077 776564776 -1366731455 369844964 -1726649260 477439682 234603518 583161841 -1237029478 -702347414 1549874057 1571872204 1204963818 365734671 1328484268 443361065 -1847491351 654560535 1629830733 -1308464735 1587688363 -2040543791 -1001974066 -1926022649 -1183499484 1822142871 -1580808185 1577448372 512114688 -271932334
REM
CELL 1.54180   50.00000   50.00000   50.00000   90.00000   90.00000   90.00000
LATT -1
SFAC C  
C      1  0.4836610000000  0.4310320000000  0.4920970000000 1.0
C      1  0.4808180000000  0.5735350000000  0.5029570000000 1.0
C      1  0.4661720000000  0.4501590000000  0.5032250000000 1.0
C      1  0.4583830000000  0.5617920000000  0.4902620000000 1.0
C      1  0.5314350000000  0.5045730000000  0.6171870000000 1.0
C      1  0.5529240000000  0.5221300000000  0.3892900000000 1.0
C      1  0.5260580000000  0.5424770000000  0.5030490000000 1.0
C      1  0.5349940000000  0.4480190000000  0.4825170000000 1.0
C      1  0.5493070000000  0.5133210000000  0.5614930000000 1.0
C      1  0.5704170000000  0.4922070000000  0.4376650000000 1.0
C      1  0.4548300000000  0.4724530000000  0.5448560000000 1.0
C      1  0.4652130000000  0.5415030000000  0.4461540000000 1.0
C      1  0.5009060000000  0.4716200000000  0.5370740000000 1.0
C      1  0.4831870000000  0.5055180000000  0.4692060000000 1.0
C      1  0.5088000000000  0.4801870000000  0.5127370000000 1.0
C      1  0.5019150000000  0.4940810000000  0.4852090000000 1.0
C      1  0.4527540000000  0.4714030000000  0.5162780000000 1.0
C      1  0.4524030000000  0.5405440000000  0.4725520000000 1.0
C      1  0.4738570000000  0.4055360000000  0.4859600000000 1.0
C      1  0.4787050000000  0.5982700000000  0.5157350000000 1.0
C      1  0.5376910000000  0.5071500000000  0.5853980000000 1.0
C      1  0.5601460000000  0.5064040000000  0.4166900000000 1.0
C      1  0.5487280000000  0.4726380000000  0.4813620000000 1.0
C      1  0.5413940000000  0.5197310000000  0.5092170000000 1.0
C      1  0.5665080000000  0.4800640000000  0.4613330000000 1.0
C      1  0.5519860000000  0.5175920000000  0.5350940000000 1.0
C      1  0.4726930000000  0.6686720000000  0.5521050000000 1.0
C      1  0.4460310000000  0.3331650000000  0.4685400000000 1.0
C      1  0.4806810000000  0.4736740000000  0.5566330000000 1.0
C      1  0.4862190000000  0.5213350000000  0.4446940000000 1.0
C      1  0.4890590000000  0.4818270000000  0.5821160000000 1.0
C      1  0.5071880000000  0.5203730000000  0.4265460000000 1.0
C      1  0.5099620000000  0.4933780000000  0.5956210000000 1.0
C      1  0.5304130000000  0.5186610000000  0.4125070000000 1.0
C      1  0.4645320000000  0.3812840000000  0.4801230000000 1.0
C      1  0.4766910000000  0.6218620000000  0.5279230000000 1.0
C      1  0.4577080000000  0.5129790000000  0.4824520000000 1.0
C      1  0.4478580000000  0.4950620000000  0.5015730000000 1.0
C      1  0.5107590000000  0.4369230000000  0.4869950000000 1.0
C      1  0.5052940000000  0.5595210000000  0.5023020000000 1.0
C      1  0.4746760000000  0.6454540000000  0.5401110000000 1.0
C      1  0.4552070000000  0.3570320000000  0.4742850000000 1.0
C      1  0.5333470000000  0.4940230000000  0.4957190000000 1.0
END
