TITL C-2782235-7892-274 -0.000587646129186633 125000 -672.781576704742 0 0 117 (C1) n - 1
REM
REM in /home/nfs/bkarasulu/CARBON/AIRSS/Generating-Clusters/REBO/Higher-Symm/SD-CG/HFTN-CG
REM
REM
REM
REM
REM
REM ./C.cell (12c818d87b63d06a65506943cc24bca4)
REM
REM compiler GCC version 9.2.1 20190827 (Red Hat 9.2.1-1)
REM options -cpp -mtune=generic -march=x86-64 -g -O0 -fpre-include=/usr/include/finclude/math-vector-fortran.h
REM seed -1462070453 783459289 -576268967 1392584728 2043361202 -646452099 -1609619285 -1333263432 382138778 -1704724838 2041598764 -1438958569 -755121883 1674336169 1105694465 -1908735353 -831083525 -1185457695 -119563855 -156648406 1086142660 492187153 -772847176 -1246730534 -1528104519 1407981307 -732106240 -956045669 -170994717 -1215250358 -1427943900 -2089188253 -1990734613
REM
CELL 1.54180   50.00000   50.00000   50.00000   90.00000   90.00000   90.00000
LATT -1
SFAC C  
C      1  0.4937790000000  0.5853540000000  0.5162320000000 1.0
C      1  0.4280530000000  0.4468870000000  0.5179030000000 1.0
C      1  0.5738890000000  0.4620720000000  0.5114110000000 1.0
C      1  0.4967260000000  0.5844720000000  0.4870970000000 1.0
C      1  0.4284980000000  0.4504690000000  0.4883790000000 1.0
C      1  0.5784110000000  0.4622940000000  0.4816040000000 1.0
C      1  0.5552460000000  0.4972910000000  0.5096760000000 1.0
C      1  0.4776670000000  0.5488710000000  0.5143740000000 1.0
C      1  0.4678370000000  0.4489990000000  0.5197970000000 1.0
C      1  0.5577640000000  0.4961220000000  0.4786260000000 1.0
C      1  0.4781480000000  0.5480680000000  0.4865830000000 1.0
C      1  0.4703740000000  0.4514510000000  0.4891330000000 1.0
C      1  0.5892450000000  0.4920530000000  0.4691030000000 1.0
C      1  0.4685280000000  0.5766690000000  0.4698320000000 1.0
C      1  0.4497850000000  0.4310330000000  0.4720380000000 1.0
C      1  0.5838610000000  0.4904330000000  0.5273510000000 1.0
C      1  0.4656030000000  0.5773360000000  0.5310550000000 1.0
C      1  0.4493650000000  0.4233020000000  0.5299800000000 1.0
C      1  0.5003110000000  0.4423520000000  0.4810310000000 1.0
C      1  0.5483220000000  0.5262780000000  0.4830810000000 1.0
C      1  0.4563260000000  0.5392380000000  0.4631130000000 1.0
C      1  0.4991490000000  0.4415810000000  0.5149210000000 1.0
C      1  0.5472070000000  0.5271160000000  0.5159060000000 1.0
C      1  0.4555100000000  0.5385830000000  0.5358160000000 1.0
C      1  0.5705720000000  0.4875580000000  0.4417610000000 1.0
C      1  0.4786530000000  0.5688240000000  0.4394350000000 1.0
C      1  0.4563080000000  0.4447260000000  0.4436050000000 1.0
C      1  0.5714930000000  0.4879310000000  0.5583590000000 1.0
C      1  0.4749350000000  0.5700960000000  0.5629560000000 1.0
C      1  0.4536020000000  0.4431790000000  0.5565450000000 1.0
C      1  0.4184300000000  0.5048260000000  0.5352710000000 1.0
C      1  0.5340680000000  0.4229730000000  0.5373480000000 1.0
C      1  0.5486600000000  0.5698520000000  0.5366470000000 1.0
C      1  0.4178020000000  0.5070590000000  0.4605090000000 1.0
C      1  0.5337980000000  0.4274880000000  0.4648310000000 1.0
C      1  0.5518990000000  0.5696620000000  0.4596480000000 1.0
C      1  0.4850520000000  0.4473630000000  0.5667970000000 1.0
C      1  0.5491130000000  0.5125560000000  0.5659010000000 1.0
C      1  0.4608480000000  0.5432690000000  0.5752120000000 1.0
C      1  0.4852710000000  0.4462640000000  0.4284760000000 1.0
C      1  0.5491110000000  0.5123110000000  0.4332150000000 1.0
C      1  0.4631470000000  0.5443780000000  0.4241090000000 1.0
C      1  0.4778120000000  0.5067630000000  0.4715570000000 1.0
C      1  0.4946670000000  0.4817880000000  0.4800320000000 1.0
C      1  0.5061040000000  0.5199370000000  0.4817350000000 1.0
C      1  0.4811780000000  0.5075110000000  0.5262460000000 1.0
C      1  0.4985260000000  0.4815110000000  0.5127740000000 1.0
C      1  0.5078890000000  0.5204480000000  0.5137860000000 1.0
C      1  0.4248850000000  0.5344090000000  0.4710560000000 1.0
C      1  0.5065390000000  0.4113780000000  0.4732010000000 1.0
C      1  0.5702720000000  0.5483130000000  0.4728840000000 1.0
C      1  0.4248280000000  0.5326920000000  0.5257540000000 1.0
C      1  0.5066140000000  0.4112080000000  0.5258220000000 1.0
C      1  0.5694650000000  0.5485980000000  0.5253720000000 1.0
C      1  0.4944280000000  0.5394590000000  0.5790710000000 1.0
C      1  0.4674260000000  0.4711610000000  0.5807380000000 1.0
C      1  0.5356190000000  0.4847440000000  0.5746520000000 1.0
C      1  0.4965600000000  0.5385590000000  0.4213790000000 1.0
C      1  0.4675410000000  0.4709230000000  0.4161900000000 1.0
C      1  0.5374980000000  0.4849350000000  0.4199360000000 1.0
C      1  0.4817580000000  0.4978930000000  0.5774630000000 1.0
C      1  0.5066010000000  0.4809070000000  0.5650560000000 1.0
C      1  0.5091850000000  0.5146330000000  0.5658090000000 1.0
C      1  0.4820480000000  0.4978670000000  0.4198870000000 1.0
C      1  0.5077360000000  0.4793360000000  0.4290060000000 1.0
C      1  0.5092410000000  0.5127090000000  0.4334840000000 1.0
C      1  0.5360480000000  0.4345130000000  0.4371180000000 1.0
C      1  0.5421010000000  0.5628200000000  0.4335190000000 1.0
C      1  0.4288350000000  0.5015040000000  0.4347940000000 1.0
C      1  0.5352260000000  0.4341520000000  0.5637510000000 1.0
C      1  0.5391040000000  0.5641520000000  0.5635120000000 1.0
C      1  0.4263930000000  0.5001180000000  0.5623730000000 1.0
C      1  0.5295950000000  0.5800840000000  0.4787110000000 1.0
C      1  0.4200970000000  0.4824730000000  0.4804830000000 1.0
C      1  0.5476110000000  0.4479530000000  0.4848400000000 1.0
C      1  0.5276190000000  0.5817370000000  0.5127050000000 1.0
C      1  0.4228940000000  0.4803350000000  0.5142230000000 1.0
C      1  0.5481270000000  0.4408400000000  0.5179930000000 1.0
C      1  0.4366050000000  0.5215410000000  0.5761230000000 1.0
C      1  0.5113500000000  0.4340330000000  0.5777300000000 1.0
C      1  0.5511380000000  0.5423880000000  0.5758500000000 1.0
C      1  0.4380660000000  0.5230260000000  0.4202910000000 1.0
C      1  0.5130450000000  0.4322250000000  0.4221710000000 1.0
C      1  0.5534990000000  0.5406780000000  0.4214370000000 1.0
C      1  0.4400330000000  0.5616230000000  0.5149200000000 1.0
C      1  0.4746860000000  0.4101160000000  0.5137860000000 1.0
C      1  0.5866550000000  0.5214490000000  0.5136350000000 1.0
C      1  0.4409990000000  0.5620970000000  0.4840180000000 1.0
C      1  0.4746830000000  0.4120250000000  0.4853580000000 1.0
C      1  0.5878580000000  0.5215910000000  0.4850040000000 1.0
C      1  0.4705570000000  0.5170690000000  0.4426510000000 1.0
C      1  0.5012500000000  0.4610900000000  0.4542910000000 1.0
C      1  0.5284430000000  0.5178680000000  0.4583840000000 1.0
C      1  0.4706570000000  0.5176500000000  0.5555600000000 1.0
C      1  0.4992620000000  0.4624440000000  0.5405650000000 1.0
C      1  0.5285360000000  0.5196990000000  0.5408210000000 1.0
C      1  0.5088390000000  0.5676650000000  0.5694370000000 1.0
C      1  0.4387550000000  0.4725930000000  0.5657000000000 1.0
C      1  0.5528170000000  0.4594430000000  0.5646190000000 1.0
C      1  0.5121740000000  0.5648850000000  0.4324570000000 1.0
C      1  0.4423030000000  0.4748160000000  0.4357450000000 1.0
C      1  0.5537410000000  0.4590990000000  0.4324950000000 1.0
C      1  0.5423820000000  0.4776450000000  0.4586290000000 1.0
C      1  0.5000740000000  0.5539350000000  0.4616150000000 1.0
C      1  0.4555080000000  0.4702210000000  0.4668030000000 1.0
C      1  0.5472550000000  0.4785590000000  0.5369040000000 1.0
C      1  0.4958000000000  0.5543360000000  0.5422440000000 1.0
C      1  0.4549820000000  0.4715040000000  0.5361010000000 1.0
C      1  0.5249600000000  0.4735080000000  0.4838980000000 1.0
C      1  0.5177310000000  0.5506550000000  0.4895940000000 1.0
C      1  0.4506950000000  0.4965380000000  0.4861450000000 1.0
C      1  0.5291460000000  0.4675980000000  0.5145530000000 1.0
C      1  0.5167510000000  0.5520130000000  0.5208940000000 1.0
C      1  0.4531920000000  0.4966200000000  0.5173660000000 1.0
C      1  0.4100960000000  0.5411790000000  0.4984780000000 1.0
C      1  0.5857750000000  0.5588010000000  0.4993870000000 1.0
C      1  0.5092620000000  0.3927750000000  0.4993830000000 1.0
END
