TITL C-2782232-2968-581 -0.00195879422936372 125000 -1145.38428846823 0 0 196 (C1) n - 1
REM
REM in /home/nfs/bkarasulu/CARBON/AIRSS/Generating-Clusters/REBO/Higher-Symm/SD-CG/HFTN-CG
REM
REM
REM
REM
REM
REM ./C.cell (12c818d87b63d06a65506943cc24bca4)
REM
REM compiler GCC version 9.2.1 20190827 (Red Hat 9.2.1-1)
REM options -cpp -mtune=generic -march=x86-64 -g -O0 -fpre-include=/usr/include/finclude/math-vector-fortran.h
REM seed 1875596175 -1406574997 -152527183 1759896899 2120222999 -1860841794 -190493667 1464766658 -157509269 2098472821 1250143303 -1622398998 -840124634 -1825343668 -394936667 2044251808 -1956327572 1482174306 1833380568 561509621 -1281248324 1589633098 1365527091 -329229585 -145559003 -1429870515 1708185032 69959124 -1099271292 -1588639262 1770302190 2122038035 1716591002
REM
CELL 1.54180   50.00000   50.00000   50.00000   90.00000   90.00000   90.00000
LATT -1
SFAC C  
C      1  0.4885240000000  0.3850700000000  0.4751760000000 1.0
C      1  0.4871870000000  0.6058380000000  0.5317900000000 1.0
C      1  0.5159980000000  0.3874070000000  0.4743330000000 1.0
C      1  0.5150000000000  0.6086120000000  0.5296420000000 1.0
C      1  0.4863150000000  0.3895890000000  0.5297020000000 1.0
C      1  0.4835020000000  0.6085410000000  0.4734900000000 1.0
C      1  0.5137490000000  0.3885990000000  0.5335250000000 1.0
C      1  0.5109230000000  0.6077880000000  0.4716240000000 1.0
C      1  0.4447130000000  0.4814290000000  0.3989270000000 1.0
C      1  0.4494300000000  0.5458320000000  0.5985710000000 1.0
C      1  0.5522520000000  0.4556900000000  0.4101140000000 1.0
C      1  0.5611870000000  0.5428640000000  0.5778070000000 1.0
C      1  0.4504290000000  0.4706380000000  0.5907300000000 1.0
C      1  0.4401660000000  0.5501320000000  0.4201950000000 1.0
C      1  0.5534150000000  0.4575810000000  0.5954010000000 1.0
C      1  0.5495670000000  0.5369690000000  0.4077210000000 1.0
C      1  0.5262780000000  0.4896330000000  0.6079980000000 1.0
C      1  0.5233990000000  0.5173470000000  0.3836200000000 1.0
C      1  0.4769160000000  0.4885820000000  0.6172560000000 1.0
C      1  0.4780160000000  0.5128310000000  0.3837170000000 1.0
C      1  0.5203620000000  0.4912970000000  0.3899670000000 1.0
C      1  0.5287830000000  0.5136190000000  0.6112240000000 1.0
C      1  0.4817330000000  0.4888450000000  0.3799860000000 1.0
C      1  0.4768970000000  0.5160350000000  0.6181650000000 1.0
C      1  0.4178550000000  0.5812280000000  0.4574500000000 1.0
C      1  0.4119960000000  0.4240830000000  0.5421770000000 1.0
C      1  0.5810060000000  0.5569650000000  0.4459240000000 1.0
C      1  0.5916020000000  0.4333340000000  0.5531780000000 1.0
C      1  0.4181230000000  0.5639820000000  0.5537360000000 1.0
C      1  0.4202820000000  0.4336910000000  0.4458230000000 1.0
C      1  0.5821330000000  0.5790100000000  0.5432210000000 1.0
C      1  0.5860430000000  0.4320570000000  0.4591230000000 1.0
C      1  0.4398840000000  0.4927070000000  0.6027530000000 1.0
C      1  0.4274100000000  0.5314690000000  0.3981160000000 1.0
C      1  0.5633140000000  0.4837200000000  0.5942910000000 1.0
C      1  0.5559710000000  0.5101230000000  0.4056250000000 1.0
C      1  0.4306460000000  0.5049840000000  0.3944750000000 1.0
C      1  0.4404710000000  0.5201720000000  0.6022070000000 1.0
C      1  0.5565260000000  0.4825950000000  0.4046510000000 1.0
C      1  0.5638950000000  0.5108250000000  0.5892400000000 1.0
C      1  0.4646170000000  0.4550710000000  0.5402250000000 1.0
C      1  0.4711440000000  0.5565190000000  0.4446530000000 1.0
C      1  0.5395220000000  0.4517300000000  0.5461480000000 1.0
C      1  0.5356070000000  0.5609370000000  0.4538780000000 1.0
C      1  0.4807050000000  0.4341900000000  0.4354010000000 1.0
C      1  0.4614670000000  0.5583870000000  0.5440850000000 1.0
C      1  0.5353820000000  0.4470100000000  0.4555320000000 1.0
C      1  0.5276960000000  0.5556750000000  0.5555740000000 1.0
C      1  0.5873390000000  0.5400640000000  0.4814150000000 1.0
C      1  0.5861170000000  0.4592500000000  0.5241130000000 1.0
C      1  0.4088460000000  0.5483110000000  0.4771960000000 1.0
C      1  0.4082220000000  0.4514090000000  0.5134850000000 1.0
C      1  0.5849900000000  0.5468340000000  0.5206520000000 1.0
C      1  0.5866730000000  0.4621920000000  0.4844570000000 1.0
C      1  0.4084460000000  0.5394170000000  0.5244840000000 1.0
C      1  0.4075300000000  0.4577390000000  0.4743960000000 1.0
C      1  0.5308550000000  0.4347750000000  0.5928800000000 1.0
C      1  0.5312810000000  0.5627430000000  0.4063750000000 1.0
C      1  0.4686450000000  0.4417370000000  0.5906360000000 1.0
C      1  0.4656350000000  0.5670930000000  0.4074140000000 1.0
C      1  0.5333490000000  0.4343010000000  0.4163950000000 1.0
C      1  0.5375080000000  0.5624330000000  0.5924690000000 1.0
C      1  0.4521170000000  0.4621910000000  0.3805210000000 1.0
C      1  0.4733560000000  0.5653340000000  0.5963840000000 1.0
C      1  0.4750190000000  0.4142480000000  0.4852990000000 1.0
C      1  0.4793090000000  0.5791950000000  0.5152620000000 1.0
C      1  0.5237470000000  0.4145450000000  0.4894800000000 1.0
C      1  0.5267760000000  0.5819420000000  0.5145010000000 1.0
C      1  0.4787110000000  0.4175350000000  0.5141530000000 1.0
C      1  0.4728840000000  0.5806710000000  0.4870330000000 1.0
C      1  0.5257480000000  0.4143700000000  0.5186280000000 1.0
C      1  0.5217300000000  0.5805240000000  0.4856410000000 1.0
C      1  0.5809590000000  0.5291660000000  0.4427810000000 1.0
C      1  0.5908520000000  0.4670690000000  0.5569440000000 1.0
C      1  0.4186450000000  0.5525370000000  0.4443520000000 1.0
C      1  0.4095400000000  0.4465540000000  0.5531500000000 1.0
C      1  0.5807410000000  0.5492760000000  0.5546890000000 1.0
C      1  0.5833010000000  0.4647860000000  0.4505010000000 1.0
C      1  0.4176310000000  0.5301140000000  0.5564250000000 1.0
C      1  0.4191120000000  0.4668220000000  0.4444370000000 1.0
C      1  0.4633140000000  0.4022950000000  0.5473070000000 1.0
C      1  0.4619110000000  0.5977030000000  0.4529880000000 1.0
C      1  0.5324210000000  0.4014300000000  0.5554800000000 1.0
C      1  0.5370620000000  0.5991160000000  0.4545040000000 1.0
C      1  0.4648120000000  0.3926380000000  0.4543230000000 1.0
C      1  0.4629780000000  0.5903010000000  0.5495320000000 1.0
C      1  0.5468120000000  0.3964060000000  0.4639510000000 1.0
C      1  0.5387230000000  0.5984860000000  0.5484630000000 1.0
C      1  0.3895770000000  0.4850370000000  0.4838910000000 1.0
C      1  0.3931500000000  0.5139720000000  0.5110740000000 1.0
C      1  0.6062430000000  0.4857840000000  0.4934970000000 1.0
C      1  0.6034360000000  0.5195990000000  0.5144730000000 1.0
C      1  0.3932150000000  0.4800970000000  0.5157690000000 1.0
C      1  0.3939880000000  0.5186700000000  0.4793810000000 1.0
C      1  0.6046040000000  0.4873330000000  0.5254580000000 1.0
C      1  0.6104690000000  0.5179800000000  0.4829440000000 1.0
C      1  0.4399930000000  0.4502460000000  0.5255290000000 1.0
C      1  0.4343820000000  0.5426510000000  0.4944800000000 1.0
C      1  0.5555620000000  0.4585930000000  0.5166870000000 1.0
C      1  0.5546430000000  0.5426620000000  0.4721590000000 1.0
C      1  0.4348650000000  0.4575280000000  0.4933980000000 1.0
C      1  0.4423700000000  0.5410810000000  0.5270560000000 1.0
C      1  0.5531520000000  0.4565830000000  0.4832860000000 1.0
C      1  0.5637480000000  0.5301710000000  0.5027320000000 1.0
C      1  0.4113960000000  0.5197090000000  0.4499980000000 1.0
C      1  0.4110870000000  0.4762180000000  0.5444710000000 1.0
C      1  0.6043430000000  0.5156240000000  0.4507980000000 1.0
C      1  0.6104690000000  0.4927330000000  0.5583690000000 1.0
C      1  0.3983680000000  0.5066590000000  0.5439170000000 1.0
C      1  0.3985690000000  0.4898630000000  0.4524590000000 1.0
C      1  0.5950000000000  0.5192820000000  0.5473540000000 1.0
C      1  0.6055960000000  0.4863440000000  0.4594610000000 1.0
C      1  0.5161870000000  0.4713410000000  0.5179530000000 1.0
C      1  0.5149270000000  0.5260900000000  0.4866680000000 1.0
C      1  0.4829780000000  0.4719790000000  0.5089710000000 1.0
C      1  0.4821030000000  0.5269510000000  0.4829650000000 1.0
C      1  0.5156900000000  0.4699470000000  0.4862870000000 1.0
C      1  0.5197370000000  0.5285860000000  0.5171140000000 1.0
C      1  0.4845980000000  0.4657710000000  0.4768660000000 1.0
C      1  0.4875290000000  0.5239600000000  0.5154340000000 1.0
C      1  0.5342810000000  0.4777970000000  0.5667330000000 1.0
C      1  0.5273610000000  0.5168230000000  0.4361400000000 1.0
C      1  0.4632430000000  0.4780980000000  0.5635130000000 1.0
C      1  0.4603900000000  0.5271920000000  0.4342280000000 1.0
C      1  0.5257730000000  0.4697870000000  0.4364080000000 1.0
C      1  0.5358360000000  0.5253270000000  0.5647410000000 1.0
C      1  0.4629500000000  0.4795170000000  0.4240110000000 1.0
C      1  0.4688930000000  0.5174350000000  0.5675070000000 1.0
C      1  0.4543980000000  0.4861550000000  0.5131760000000 1.0
C      1  0.4514400000000  0.5203440000000  0.4802530000000 1.0
C      1  0.5423780000000  0.4870010000000  0.5281100000000 1.0
C      1  0.5388630000000  0.5143320000000  0.4743110000000 1.0
C      1  0.4555690000000  0.4759930000000  0.4801940000000 1.0
C      1  0.4577850000000  0.5163810000000  0.5127370000000 1.0
C      1  0.5386950000000  0.4843410000000  0.4712430000000 1.0
C      1  0.5458610000000  0.5165250000000  0.5210750000000 1.0
C      1  0.4853210000000  0.4639240000000  0.6085340000000 1.0
C      1  0.4832330000000  0.5427340000000  0.3933000000000 1.0
C      1  0.5140790000000  0.4636800000000  0.5982300000000 1.0
C      1  0.5144170000000  0.5436170000000  0.3900030000000 1.0
C      1  0.4842920000000  0.4549660000000  0.3828120000000 1.0
C      1  0.4869940000000  0.5420190000000  0.6115680000000 1.0
C      1  0.5089450000000  0.4358400000000  0.3964250000000 1.0
C      1  0.5175620000000  0.5412990000000  0.6059580000000 1.0
C      1  0.4880140000000  0.4433830000000  0.5227700000000 1.0
C      1  0.4799000000000  0.5568460000000  0.4721270000000 1.0
C      1  0.5168810000000  0.4397780000000  0.5289660000000 1.0
C      1  0.5102580000000  0.5540810000000  0.4746960000000 1.0
C      1  0.4839700000000  0.4365520000000  0.4668270000000 1.0
C      1  0.4894670000000  0.5527130000000  0.5269440000000 1.0
C      1  0.5137490000000  0.4385800000000  0.4768340000000 1.0
C      1  0.5197780000000  0.5574460000000  0.5283590000000 1.0
C      1  0.4817440000000  0.4567010000000  0.4168040000000 1.0
C      1  0.4791360000000  0.5426110000000  0.5641930000000 1.0
C      1  0.5127570000000  0.4674180000000  0.4078080000000 1.0
C      1  0.5043310000000  0.5471040000000  0.5760040000000 1.0
C      1  0.4850710000000  0.4448160000000  0.5624460000000 1.0
C      1  0.4938270000000  0.5464570000000  0.4241690000000 1.0
C      1  0.5113100000000  0.4554480000000  0.5653000000000 1.0
C      1  0.5177380000000  0.5416090000000  0.4371810000000 1.0
C      1  0.4418930000000  0.5120870000000  0.4538270000000 1.0
C      1  0.4403870000000  0.4867410000000  0.5415180000000 1.0
C      1  0.5566220000000  0.5110280000000  0.4455780000000 1.0
C      1  0.5636520000000  0.4821420000000  0.5544110000000 1.0
C      1  0.4431270000000  0.5128460000000  0.5586790000000 1.0
C      1  0.4457520000000  0.4814540000000  0.4496370000000 1.0
C      1  0.5627740000000  0.5139450000000  0.5493910000000 1.0
C      1  0.5577220000000  0.4780580000000  0.4442730000000 1.0
C      1  0.4488590000000  0.4040220000000  0.5157990000000 1.0
C      1  0.4450170000000  0.5949100000000  0.4830670000000 1.0
C      1  0.5546460000000  0.4057180000000  0.5293140000000 1.0
C      1  0.5539600000000  0.5907710000000  0.4836790000000 1.0
C      1  0.4449910000000  0.4034860000000  0.4808030000000 1.0
C      1  0.4471900000000  0.5883970000000  0.5174530000000 1.0
C      1  0.5570240000000  0.4082170000000  0.4946620000000 1.0
C      1  0.5553830000000  0.5952970000000  0.5184480000000 1.0
C      1  0.4820390000000  0.4150240000000  0.5729540000000 1.0
C      1  0.4839980000000  0.5844410000000  0.4303700000000 1.0
C      1  0.5163570000000  0.4150410000000  0.5761620000000 1.0
C      1  0.5181040000000  0.5812320000000  0.4318120000000 1.0
C      1  0.4937120000000  0.4066850000000  0.4423080000000 1.0
C      1  0.4853890000000  0.5823590000000  0.5744190000000 1.0
C      1  0.5266440000000  0.4158070000000  0.4442770000000 1.0
C      1  0.5195700000000  0.5835320000000  0.5724860000000 1.0
C      1  0.4181240000000  0.5723740000000  0.5228200000000 1.0
C      1  0.4193820000000  0.4251750000000  0.4760990000000 1.0
C      1  0.5815270000000  0.5776660000000  0.5095160000000 1.0
C      1  0.5812610000000  0.4291130000000  0.4906420000000 1.0
C      1  0.4174170000000  0.5785420000000  0.4906700000000 1.0
C      1  0.4206550000000  0.4193280000000  0.5096340000000 1.0
C      1  0.5803600000000  0.5729790000000  0.4759510000000 1.0
C      1  0.5795280000000  0.4254590000000  0.5244660000000 1.0
C      1  0.5087300000000  0.4967810000000  0.4343920000000 1.0
C      1  0.4814680000000  0.5038860000000  0.4290300000000 1.0
C      1  0.4895220000000  0.4966720000000  0.5678410000000 1.0
C      1  0.5170620000000  0.5022910000000  0.5688070000000 1.0
END
