TITL C-2782227-3064-812 -0.00569242155911755 125000 -916.473978667779 0 0 162 (C1) n - 1
REM
REM in /home/nfs/bkarasulu/CARBON/AIRSS/Generating-Clusters/REBO/Higher-Symm/SD-CG/HFTN-CG
REM
REM
REM
REM
REM
REM ./C.cell (12c818d87b63d06a65506943cc24bca4)
REM
REM compiler GCC version 9.2.1 20190827 (Red Hat 9.2.1-1)
REM options -cpp -mtune=generic -march=x86-64 -g -O0 -fpre-include=/usr/include/finclude/math-vector-fortran.h
REM seed -2123857643 3387698 -1407093065 -97630620 -396908010 142590799 -1641397917 754334885 -1647298896 -856424050 1810702382 -930703809 -266296847 -317963601 -353622110 20812368 1113554911 1141175346 -955753954 208789258 1047965644 -340741250 -977022618 -11867045 1209398268 1398804967 266256161 734881965 -1386299584 616360853 -397565915 -1622253591 116041471
REM
CELL 1.54180   50.00000   50.00000   50.00000   90.00000   90.00000   90.00000
LATT -1
SFAC C  
C      1  0.5102260000000  0.4773620000000  0.4168140000000 1.0
C      1  0.4787830000000  0.4821760000000  0.4173380000000 1.0
C      1  0.4747030000000  0.5136320000000  0.4185770000000 1.0
C      1  0.5034780000000  0.5286450000000  0.4188330000000 1.0
C      1  0.5262450000000  0.5055540000000  0.4176310000000 1.0
C      1  0.3976040000000  0.5270970000000  0.5349510000000 1.0
C      1  0.4997740000000  0.6027910000000  0.5301180000000 1.0
C      1  0.6005550000000  0.5344280000000  0.5375520000000 1.0
C      1  0.5654550000000  0.4185550000000  0.5348700000000 1.0
C      1  0.4413440000000  0.4134010000000  0.5353120000000 1.0
C      1  0.5498270000000  0.4460550000000  0.4301190000000 1.0
C      1  0.4617910000000  0.4361900000000  0.4293340000000 1.0
C      1  0.4219760000000  0.5180370000000  0.4270540000000 1.0
C      1  0.4902550000000  0.5685970000000  0.4343170000000 1.0
C      1  0.5750330000000  0.5303050000000  0.4275400000000 1.0
C      1  0.4576820000000  0.5434860000000  0.5298830000000 1.0
C      1  0.5304440000000  0.5520220000000  0.5267960000000 1.0
C      1  0.5578300000000  0.4905490000000  0.5296590000000 1.0
C      1  0.5070360000000  0.4423140000000  0.5275230000000 1.0
C      1  0.4473100000000  0.4747710000000  0.5299350000000 1.0
C      1  0.5808210000000  0.4329320000000  0.5077440000000 1.0
C      1  0.4593230000000  0.4027660000000  0.5080730000000 1.0
C      1  0.3937090000000  0.5065580000000  0.5075700000000 1.0
C      1  0.4763620000000  0.6005040000000  0.5050370000000 1.0
C      1  0.5959560000000  0.5547050000000  0.5105160000000 1.0
C      1  0.4740910000000  0.5041040000000  0.5327140000000 1.0
C      1  0.4935520000000  0.5266780000000  0.5353560000000 1.0
C      1  0.5220570000000  0.5133720000000  0.5315330000000 1.0
C      1  0.5187060000000  0.4831060000000  0.5322220000000 1.0
C      1  0.4886450000000  0.4773470000000  0.5321100000000 1.0
C      1  0.5283030000000  0.5842730000000  0.5316860000000 1.0
C      1  0.5866000000000  0.5038050000000  0.5372050000000 1.0
C      1  0.5315840000000  0.4206790000000  0.5335430000000 1.0
C      1  0.4329610000000  0.4463540000000  0.5356360000000 1.0
C      1  0.4257450000000  0.5463250000000  0.5355290000000 1.0
C      1  0.5517280000000  0.4647060000000  0.4652960000000 1.0
C      1  0.4899450000000  0.4342110000000  0.4697140000000 1.0
C      1  0.4297500000000  0.4960770000000  0.4592110000000 1.0
C      1  0.4676290000000  0.5553740000000  0.4711320000000 1.0
C      1  0.5439270000000  0.5443740000000  0.4685450000000 1.0
C      1  0.5052570000000  0.5875090000000  0.4938100000000 1.0
C      1  0.5889690000000  0.5248480000000  0.4958400000000 1.0
C      1  0.5504100000000  0.4255630000000  0.4987000000000 1.0
C      1  0.4387720000000  0.4267820000000  0.4977850000000 1.0
C      1  0.4143890000000  0.5297500000000  0.4988800000000 1.0
C      1  0.4237950000000  0.5064340000000  0.5335420000000 1.0
C      1  0.4822160000000  0.5744350000000  0.5342810000000 1.0
C      1  0.5671760000000  0.5384140000000  0.5325790000000 1.0
C      1  0.5574220000000  0.4511900000000  0.5341800000000 1.0
C      1  0.4698650000000  0.4310490000000  0.5339190000000 1.0
C      1  0.4828340000000  0.4772810000000  0.5926300000000 1.0
C      1  0.4731060000000  0.5097700000000  0.5922640000000 1.0
C      1  0.4996700000000  0.5285310000000  0.5927940000000 1.0
C      1  0.5260820000000  0.5086090000000  0.5923190000000 1.0
C      1  0.5159040000000  0.4765860000000  0.5923860000000 1.0
C      1  0.5364960000000  0.4905440000000  0.4787030000000 1.0
C      1  0.5007530000000  0.4653650000000  0.4795450000000 1.0
C      1  0.4538790000000  0.4778930000000  0.4699470000000 1.0
C      1  0.4797650000000  0.5249280000000  0.4813600000000 1.0
C      1  0.5193210000000  0.5297380000000  0.4815310000000 1.0
C      1  0.4484240000000  0.5053070000000  0.5155540000000 1.0
C      1  0.4866770000000  0.5494830000000  0.5161980000000 1.0
C      1  0.5456810000000  0.5252630000000  0.5144900000000 1.0
C      1  0.5389840000000  0.4673650000000  0.5157040000000 1.0
C      1  0.4777770000000  0.4541330000000  0.5144620000000 1.0
C      1  0.5456400000000  0.5743560000000  0.4763270000000 1.0
C      1  0.5853740000000  0.4857500000000  0.4885060000000 1.0
C      1  0.5134370000000  0.4209270000000  0.4853740000000 1.0
C      1  0.4211450000000  0.4614340000000  0.4889720000000 1.0
C      1  0.4381360000000  0.5582120000000  0.4843880000000 1.0
C      1  0.5274240000000  0.4502520000000  0.4942620000000 1.0
C      1  0.4544780000000  0.4571580000000  0.4948850000000 1.0
C      1  0.4480360000000  0.5266260000000  0.4929460000000 1.0
C      1  0.5032780000000  0.5550540000000  0.4930100000000 1.0
C      1  0.5595790000000  0.5074300000000  0.4931410000000 1.0
C      1  0.5037590000000  0.4360650000000  0.5608640000000 1.0
C      1  0.4402050000000  0.4775090000000  0.5626760000000 1.0
C      1  0.4575310000000  0.5497220000000  0.5632460000000 1.0
C      1  0.5362790000000  0.5540630000000  0.5602140000000 1.0
C      1  0.5622940000000  0.4845690000000  0.5624760000000 1.0
C      1  0.5993620000000  0.4651520000000  0.4658390000000 1.0
C      1  0.5211970000000  0.3912000000000  0.4438870000000 1.0
C      1  0.3997680000000  0.4705510000000  0.4654370000000 1.0
C      1  0.4458670000000  0.5987140000000  0.4578350000000 1.0
C      1  0.5853360000000  0.5768430000000  0.4614320000000 1.0
C      1  0.5302910000000  0.4828220000000  0.5622130000000 1.0
C      1  0.4923470000000  0.4656910000000  0.5620490000000 1.0
C      1  0.4657560000000  0.4967440000000  0.5623840000000 1.0
C      1  0.4869020000000  0.5386020000000  0.5629260000000 1.0
C      1  0.5239940000000  0.5237030000000  0.5617630000000 1.0
C      1  0.5118080000000  0.4046570000000  0.5134390000000 1.0
C      1  0.4070860000000  0.4567550000000  0.5180950000000 1.0
C      1  0.4318780000000  0.5718800000000  0.5139000000000 1.0
C      1  0.5525950000000  0.5851340000000  0.5077520000000 1.0
C      1  0.5993870000000  0.4814140000000  0.5175160000000 1.0
C      1  0.4259000000000  0.4856270000000  0.4265110000000 1.0
C      1  0.4611470000000  0.5588480000000  0.4376890000000 1.0
C      1  0.5516570000000  0.5542280000000  0.4338010000000 1.0
C      1  0.5641130000000  0.4747360000000  0.4349680000000 1.0
C      1  0.4916450000000  0.4308580000000  0.4371450000000 1.0
C      1  0.5771650000000  0.4450630000000  0.4771510000000 1.0
C      1  0.4644400000000  0.4189370000000  0.4783290000000 1.0
C      1  0.4000070000000  0.5010500000000  0.4755330000000 1.0
C      1  0.4710500000000  0.5894530000000  0.4741770000000 1.0
C      1  0.5956900000000  0.5522650000000  0.4765880000000 1.0
C      1  0.5937060000000  0.5267340000000  0.4562410000000 1.0
C      1  0.5580510000000  0.4264280000000  0.4568390000000 1.0
C      1  0.4427710000000  0.4256110000000  0.4556620000000 1.0
C      1  0.4061780000000  0.5279500000000  0.4556750000000 1.0
C      1  0.4986950000000  0.5943660000000  0.4550680000000 1.0
C      1  0.5324610000000  0.5928540000000  0.4588770000000 1.0
C      1  0.6047950000000  0.5014540000000  0.4667000000000 1.0
C      1  0.5359500000000  0.4054180000000  0.4667220000000 1.0
C      1  0.4158840000000  0.4375640000000  0.4668760000000 1.0
C      1  0.4149680000000  0.5558740000000  0.4661380000000 1.0
C      1  0.4882710000000  0.4743580000000  0.4497750000000 1.0
C      1  0.4699900000000  0.5013220000000  0.4509880000000 1.0
C      1  0.4923000000000  0.5270510000000  0.4514620000000 1.0
C      1  0.5227640000000  0.5154280000000  0.4508190000000 1.0
C      1  0.5201520000000  0.4829490000000  0.4496350000000 1.0
C      1  0.5070170000000  0.5625070000000  0.4626410000000 1.0
C      1  0.5612290000000  0.5229530000000  0.4564260000000 1.0
C      1  0.5276310000000  0.4427910000000  0.4554760000000 1.0
C      1  0.4446430000000  0.4579980000000  0.4483030000000 1.0
C      1  0.4407550000000  0.5274720000000  0.4554570000000 1.0
C      1  0.4530330000000  0.5885580000000  0.5268230000000 1.0
C      1  0.5723500000000  0.5711090000000  0.5256000000000 1.0
C      1  0.5909470000000  0.4557250000000  0.5303970000000 1.0
C      1  0.4859780000000  0.4018220000000  0.5273350000000 1.0
C      1  0.3995530000000  0.4826580000000  0.5306150000000 1.0
C      1  0.4088610000000  0.4810950000000  0.5603540000000 1.0
C      1  0.4504210000000  0.5807900000000  0.5572220000000 1.0
C      1  0.5626280000000  0.5710690000000  0.5549180000000 1.0
C      1  0.5851830000000  0.4629280000000  0.5601820000000 1.0
C      1  0.4914100000000  0.4071560000000  0.5573500000000 1.0
C      1  0.4037010000000  0.5562780000000  0.5042270000000 1.0
C      1  0.5277540000000  0.6034570000000  0.4969240000000 1.0
C      1  0.6118820000000  0.5088150000000  0.5068480000000 1.0
C      1  0.5401990000000  0.3946120000000  0.4981750000000 1.0
C      1  0.4121210000000  0.4273880000000  0.5074860000000 1.0
C      1  0.5056910000000  0.5818480000000  0.5569800000000 1.0
C      1  0.5778000000000  0.5248330000000  0.5618910000000 1.0
C      1  0.5473410000000  0.4332010000000  0.5606270000000 1.0
C      1  0.4508050000000  0.4341550000000  0.5614960000000 1.0
C      1  0.4204240000000  0.5252790000000  0.5611390000000 1.0
C      1  0.4026250000000  0.4697560000000  0.4363100000000 1.0
C      1  0.4409740000000  0.5828320000000  0.4383530000000 1.0
C      1  0.5677370000000  0.5779400000000  0.4432170000000 1.0
C      1  0.5930090000000  0.4719830000000  0.4377100000000 1.0
C      1  0.5015180000000  0.4014170000000  0.4320190000000 1.0
C      1  0.5162770000000  0.4485490000000  0.4248770000000 1.0
C      1  0.4523490000000  0.4668660000000  0.4174460000000 1.0
C      1  0.4519690000000  0.5326770000000  0.4245100000000 1.0
C      1  0.5205310000000  0.5526320000000  0.4334470000000 1.0
C      1  0.5549250000000  0.5028540000000  0.4296340000000 1.0
C      1  0.5091290000000  0.5574850000000  0.5773110000000 1.0
C      1  0.5565910000000  0.5109460000000  0.5810040000000 1.0
C      1  0.5270900000000  0.4475680000000  0.5804200000000 1.0
C      1  0.4583120000000  0.4578410000000  0.5812370000000 1.0
C      1  0.4453940000000  0.5257640000000  0.5807560000000 1.0
C      1  0.5032770000000  0.4995710000000  0.4819010000000 1.0
C      1  0.4999630000000  0.4992180000000  0.5636250000000 1.0
END
