TITL C-2782237-5345-1345 0.00113991455806602 125000 -901.513725997589 0 0 160 (C1) n - 1
REM
REM in /home/nfs/bkarasulu/CARBON/AIRSS/Generating-Clusters/REBO/Higher-Symm/SD-CG/HFTN-CG
REM
REM
REM
REM
REM
REM ./C.cell (12c818d87b63d06a65506943cc24bca4)
REM
REM compiler GCC version 9.2.1 20190827 (Red Hat 9.2.1-1)
REM options -cpp -mtune=generic -march=x86-64 -g -O0 -fpre-include=/usr/include/finclude/math-vector-fortran.h
REM seed -1676295786 878315187 820526458 1725340489 -831961657 -574219365 -254427599 158397740 -1199346781 1218429136 353223087 1250013772 -1112908704 1488673070 607989509 2123179840 1740804779 -717786450 -1778327941 -1429518430 -264414588 1156953661 1592557057 -1752565973 129510733 -523076025 -1471241817 217206355 -1645988284 -1558987907 696231174 -251974352 1768024710
REM
CELL 1.54180   50.00000   50.00000   50.00000   90.00000   90.00000   90.00000
LATT -1
SFAC C  
C      1  0.5574050000000  0.5562700000000  0.4588490000000 1.0
C      1  0.4297160000000  0.5539690000000  0.4743190000000 1.0
C      1  0.5121250000000  0.5515280000000  0.5678630000000 1.0
C      1  0.5458220000000  0.4478760000000  0.4545620000000 1.0
C      1  0.4269520000000  0.4454960000000  0.4766460000000 1.0
C      1  0.5068290000000  0.4554850000000  0.5657880000000 1.0
C      1  0.4540330000000  0.4619790000000  0.4708650000000 1.0
C      1  0.4828770000000  0.4499190000000  0.5445150000000 1.0
C      1  0.5344830000000  0.4489420000000  0.4845120000000 1.0
C      1  0.4565990000000  0.5357520000000  0.4728430000000 1.0
C      1  0.4982540000000  0.5556010000000  0.5367660000000 1.0
C      1  0.5466880000000  0.5556080000000  0.4898000000000 1.0
C      1  0.4956490000000  0.4829780000000  0.6000480000000 1.0
C      1  0.5827550000000  0.4815930000000  0.4621220000000 1.0
C      1  0.4121280000000  0.4827250000000  0.4476840000000 1.0
C      1  0.4979290000000  0.5154210000000  0.5935250000000 1.0
C      1  0.5750870000000  0.5107770000000  0.4648070000000 1.0
C      1  0.4189910000000  0.5129620000000  0.4466490000000 1.0
C      1  0.4073920000000  0.5357460000000  0.4605030000000 1.0
C      1  0.5150630000000  0.5393360000000  0.5963440000000 1.0
C      1  0.5712280000000  0.5320040000000  0.4468180000000 1.0
C      1  0.4021880000000  0.4598560000000  0.4623280000000 1.0
C      1  0.5135340000000  0.4584750000000  0.5975730000000 1.0
C      1  0.5729620000000  0.4611410000000  0.4455340000000 1.0
C      1  0.4907180000000  0.5492450000000  0.5047850000000 1.0
C      1  0.5214480000000  0.5585520000000  0.5119340000000 1.0
C      1  0.5152150000000  0.5458960000000  0.4813510000000 1.0
C      1  0.4888610000000  0.4504670000000  0.5159100000000 1.0
C      1  0.5166610000000  0.4358680000000  0.5086710000000 1.0
C      1  0.4997350000000  0.4468330000000  0.4838650000000 1.0
C      1  0.5465260000000  0.4604910000000  0.5889920000000 1.0
C      1  0.5533900000000  0.4665130000000  0.4200610000000 1.0
C      1  0.3962770000000  0.4634910000000  0.4945940000000 1.0
C      1  0.5466520000000  0.5389260000000  0.5835730000000 1.0
C      1  0.5582120000000  0.5269810000000  0.4183810000000 1.0
C      1  0.4005210000000  0.5327100000000  0.4926980000000 1.0
C      1  0.5675950000000  0.4545880000000  0.5627230000000 1.0
C      1  0.5266360000000  0.4543000000000  0.4029490000000 1.0
C      1  0.4060830000000  0.4560800000000  0.5262950000000 1.0
C      1  0.5761110000000  0.5465260000000  0.5698210000000 1.0
C      1  0.5311200000000  0.5435620000000  0.4058690000000 1.0
C      1  0.4083620000000  0.5436240000000  0.5233870000000 1.0
C      1  0.4958050000000  0.4462920000000  0.4044560000000 1.0
C      1  0.4197630000000  0.4424570000000  0.5503510000000 1.0
C      1  0.5849350000000  0.4501030000000  0.5400100000000 1.0
C      1  0.4996440000000  0.5466420000000  0.4167480000000 1.0
C      1  0.4316370000000  0.5423770000000  0.5468880000000 1.0
C      1  0.5840210000000  0.5566080000000  0.5440190000000 1.0
C      1  0.4675180000000  0.4660320000000  0.4974860000000 1.0
C      1  0.5109560000000  0.4886490000000  0.5250680000000 1.0
C      1  0.5065720000000  0.4695710000000  0.4646280000000 1.0
C      1  0.4656300000000  0.5313460000000  0.5044090000000 1.0
C      1  0.5178840000000  0.5219960000000  0.5277300000000 1.0
C      1  0.5150020000000  0.5326910000000  0.4532660000000 1.0
C      1  0.4740340000000  0.5960700000000  0.4828060000000 1.0
C      1  0.5009290000000  0.5956050000000  0.5332500000000 1.0
C      1  0.5316850000000  0.5991160000000  0.4866670000000 1.0
C      1  0.4742700000000  0.4054300000000  0.4855110000000 1.0
C      1  0.4945820000000  0.4015360000000  0.5385400000000 1.0
C      1  0.5300100000000  0.4014730000000  0.4936830000000 1.0
C      1  0.4559300000000  0.4358830000000  0.5838630000000 1.0
C      1  0.5921040000000  0.4485790000000  0.4961970000000 1.0
C      1  0.4550020000000  0.4460430000000  0.4190370000000 1.0
C      1  0.4604890000000  0.5485040000000  0.5779580000000 1.0
C      1  0.6000150000000  0.5645500000000  0.4979110000000 1.0
C      1  0.4604750000000  0.5524760000000  0.4215450000000 1.0
C      1  0.5586810000000  0.4547900000000  0.5011310000000 1.0
C      1  0.4706550000000  0.4506110000000  0.4480580000000 1.0
C      1  0.4592510000000  0.4380860000000  0.5527390000000 1.0
C      1  0.5699830000000  0.5611280000000  0.5076660000000 1.0
C      1  0.4753280000000  0.5477430000000  0.4495750000000 1.0
C      1  0.4700520000000  0.5515520000000  0.5484440000000 1.0
C      1  0.4748090000000  0.5154550000000  0.4260060000000 1.0
C      1  0.4527860000000  0.5097670000000  0.5556880000000 1.0
C      1  0.5743510000000  0.5235590000000  0.5187580000000 1.0
C      1  0.4631830000000  0.4846970000000  0.4248230000000 1.0
C      1  0.4548270000000  0.4772370000000  0.5579880000000 1.0
C      1  0.5728910000000  0.4914960000000  0.5244560000000 1.0
C      1  0.4849230000000  0.5185740000000  0.5296370000000 1.0
C      1  0.5315010000000  0.5116950000000  0.4997150000000 1.0
C      1  0.4913800000000  0.5172990000000  0.4668250000000 1.0
C      1  0.4777150000000  0.4887020000000  0.5187790000000 1.0
C      1  0.5152720000000  0.4827230000000  0.4921290000000 1.0
C      1  0.4861680000000  0.4916980000000  0.4558390000000 1.0
C      1  0.4232980000000  0.5098400000000  0.4862640000000 1.0
C      1  0.5321700000000  0.5122960000000  0.5731730000000 1.0
C      1  0.5367550000000  0.5130640000000  0.4402200000000 1.0
C      1  0.4200360000000  0.4855340000000  0.4867920000000 1.0
C      1  0.5300680000000  0.4892760000000  0.5809600000000 1.0
C      1  0.5425170000000  0.4866800000000  0.4442320000000 1.0
C      1  0.4895860000000  0.4296470000000  0.4293720000000 1.0
C      1  0.4391270000000  0.4194410000000  0.5368340000000 1.0
C      1  0.5601560000000  0.4346390000000  0.5272030000000 1.0
C      1  0.4983930000000  0.5702870000000  0.4404710000000 1.0
C      1  0.4474090000000  0.5701890000000  0.5348780000000 1.0
C      1  0.5626480000000  0.5795400000000  0.5330130000000 1.0
C      1  0.4839150000000  0.5170490000000  0.5624980000000 1.0
C      1  0.5596650000000  0.5130420000000  0.4936190000000 1.0
C      1  0.4526340000000  0.5148380000000  0.4487950000000 1.0
C      1  0.4790390000000  0.4867900000000  0.5747670000000 1.0
C      1  0.5718460000000  0.4822000000000  0.4922750000000 1.0
C      1  0.4443880000000  0.4825280000000  0.4496110000000 1.0
C      1  0.5280020000000  0.4706780000000  0.5449140000000 1.0
C      1  0.5182030000000  0.4563860000000  0.4360120000000 1.0
C      1  0.4352740000000  0.4560510000000  0.5087370000000 1.0
C      1  0.5342810000000  0.5416650000000  0.5456540000000 1.0
C      1  0.5337190000000  0.5526760000000  0.4366860000000 1.0
C      1  0.4360370000000  0.5458800000000  0.5055020000000 1.0
C      1  0.5851840000000  0.5906190000000  0.4861920000000 1.0
C      1  0.4530110000000  0.5782120000000  0.4364540000000 1.0
C      1  0.4752940000000  0.5773920000000  0.5778290000000 1.0
C      1  0.5740350000000  0.4256080000000  0.4788180000000 1.0
C      1  0.4515090000000  0.4187240000000  0.4372130000000 1.0
C      1  0.4788620000000  0.4122360000000  0.5752150000000 1.0
C      1  0.4976100000000  0.4827280000000  0.4264400000000 1.0
C      1  0.4466910000000  0.4827640000000  0.5270090000000 1.0
C      1  0.5535140000000  0.4889680000000  0.5486850000000 1.0
C      1  0.5066330000000  0.5130830000000  0.4139490000000 1.0
C      1  0.4305240000000  0.5116180000000  0.5311950000000 1.0
C      1  0.5574050000000  0.5224640000000  0.5442080000000 1.0
C      1  0.4451310000000  0.5774270000000  0.5026480000000 1.0
C      1  0.5335160000000  0.5759250000000  0.5454340000000 1.0
C      1  0.5286200000000  0.5824080000000  0.4506340000000 1.0
C      1  0.4442080000000  0.4229680000000  0.5047830000000 1.0
C      1  0.5343070000000  0.4369720000000  0.5442280000000 1.0
C      1  0.5159970000000  0.4228600000000  0.4469910000000 1.0
C      1  0.5076310000000  0.4229590000000  0.5605690000000 1.0
C      1  0.5438640000000  0.4154490000000  0.4655200000000 1.0
C      1  0.4466770000000  0.4192510000000  0.4708730000000 1.0
C      1  0.5059400000000  0.5834570000000  0.5642950000000 1.0
C      1  0.5576210000000  0.5873560000000  0.4680890000000 1.0
C      1  0.4460190000000  0.5819900000000  0.4689490000000 1.0
C      1  0.4727140000000  0.5933540000000  0.5143790000000 1.0
C      1  0.5292220000000  0.5968280000000  0.5194910000000 1.0
C      1  0.5051520000000  0.5970570000000  0.4694810000000 1.0
C      1  0.4695610000000  0.4036560000000  0.5164560000000 1.0
C      1  0.5221100000000  0.4106140000000  0.5255720000000 1.0
C      1  0.5061610000000  0.4049030000000  0.4736630000000 1.0
C      1  0.4339640000000  0.4603660000000  0.5740850000000 1.0
C      1  0.5998020000000  0.4726910000000  0.5192070000000 1.0
C      1  0.4717320000000  0.4670800000000  0.3980910000000 1.0
C      1  0.4347580000000  0.5262570000000  0.5770540000000 1.0
C      1  0.6011800000000  0.5388950000000  0.5203300000000 1.0
C      1  0.4744220000000  0.5328490000000  0.3981380000000 1.0
C      1  0.4780780000000  0.5944510000000  0.4490680000000 1.0
C      1  0.4704180000000  0.5913610000000  0.5483110000000 1.0
C      1  0.5602750000000  0.5997520000000  0.5057630000000 1.0
C      1  0.4797110000000  0.4071930000000  0.4521270000000 1.0
C      1  0.4625660000000  0.3984110000000  0.5494470000000 1.0
C      1  0.5580570000000  0.4148820000000  0.5027030000000 1.0
C      1  0.4005000000000  0.5108580000000  0.5190760000000 1.0
C      1  0.5720630000000  0.5139530000000  0.5738060000000 1.0
C      1  0.5351150000000  0.5103400000000  0.3996510000000 1.0
C      1  0.3886830000000  0.4842130000000  0.5198320000000 1.0
C      1  0.5694720000000  0.4838060000000  0.5784040000000 1.0
C      1  0.5422050000000  0.4824700000000  0.3931920000000 1.0
C      1  0.4276450000000  0.4931670000000  0.5820000000000 1.0
C      1  0.4730070000000  0.4999660000000  0.3893150000000 1.0
C      1  0.6097430000000  0.5055690000000  0.5194660000000 1.0
C      1  0.4988720000000  0.5117880000000  0.4941580000000 1.0
END
