TITL C-2782234-8014-473 -0.00173139452773243 125000 -392.529492472349 0 0 68 (C1) n - 1
REM
REM in /home/nfs/bkarasulu/CARBON/AIRSS/Generating-Clusters/REBO/Higher-Symm/SD-CG/HFTN-CG
REM
REM
REM
REM
REM
REM ./C.cell (12c818d87b63d06a65506943cc24bca4)
REM
REM compiler GCC version 9.2.1 20190827 (Red Hat 9.2.1-1)
REM options -cpp -mtune=generic -march=x86-64 -g -O0 -fpre-include=/usr/include/finclude/math-vector-fortran.h
REM seed -1526782768 -729254065 -1424527370 -1717014480 1930182990 1715033546 -1603227070 1667551135 -690763928 1883315565 -358131843 -144058649 1649963852 1733316532 1802657664 495821864 2139729751 -1557498220 2010153665 -771213246 -888799043 -900713969 -410489487 -590941698 1310028192 -66966076 -978363669 473785417 1992591207 981950666 1661527013 -857736105 296796673
REM
CELL 1.54180   50.00000   50.00000   50.00000   90.00000   90.00000   90.00000
LATT -1
SFAC C  
C      1  0.4876620000000  0.4933050000000  0.5716820000000 1.0
C      1  0.4735860000000  0.4943710000000  0.4364390000000 1.0
C      1  0.5072620000000  0.5773650000000  0.5264950000000 1.0
C      1  0.4673320000000  0.5164010000000  0.4914980000000 1.0
C      1  0.4430950000000  0.4641310000000  0.4693100000000 1.0
C      1  0.4508390000000  0.4868600000000  0.4521900000000 1.0
C      1  0.4555670000000  0.4244900000000  0.5034350000000 1.0
C      1  0.4665080000000  0.5715120000000  0.5028220000000 1.0
C      1  0.4821280000000  0.5392180000000  0.5398360000000 1.0
C      1  0.4584420000000  0.5634140000000  0.4736070000000 1.0
C      1  0.4253570000000  0.5084850000000  0.5405860000000 1.0
C      1  0.4158700000000  0.5031400000000  0.4932570000000 1.0
C      1  0.5572520000000  0.5062520000000  0.4573850000000 1.0
C      1  0.4741630000000  0.5155960000000  0.5223660000000 1.0
C      1  0.5273340000000  0.4333380000000  0.4666640000000 1.0
C      1  0.5406960000000  0.4502350000000  0.5203750000000 1.0
C      1  0.4963370000000  0.4402300000000  0.5456150000000 1.0
C      1  0.5335700000000  0.5009000000000  0.4344310000000 1.0
C      1  0.4530880000000  0.4715210000000  0.5175920000000 1.0
C      1  0.4810030000000  0.4234570000000  0.4827290000000 1.0
C      1  0.5488810000000  0.4928570000000  0.4976960000000 1.0
C      1  0.5364820000000  0.4098120000000  0.4559730000000 1.0
C      1  0.5304610000000  0.5569120000000  0.5366710000000 1.0
C      1  0.4822670000000  0.5656500000000  0.5240430000000 1.0
C      1  0.4526220000000  0.4410320000000  0.5264600000000 1.0
C      1  0.5629870000000  0.5366340000000  0.5509750000000 1.0
C      1  0.5363960000000  0.5618140000000  0.5039700000000 1.0
C      1  0.4423370000000  0.5083190000000  0.4728030000000 1.0
C      1  0.4970090000000  0.4751280000000  0.4802460000000 1.0
C      1  0.5198430000000  0.4971170000000  0.4874800000000 1.0
C      1  0.5964560000000  0.5339820000000  0.5848680000000 1.0
C      1  0.5126920000000  0.4821350000000  0.5634020000000 1.0
C      1  0.4339310000000  0.4756870000000  0.4941120000000 1.0
C      1  0.4664490000000  0.4784130000000  0.5586070000000 1.0
C      1  0.4968140000000  0.4576680000000  0.4581150000000 1.0
C      1  0.5232370000000  0.5616290000000  0.4805490000000 1.0
C      1  0.4725090000000  0.4856490000000  0.4857090000000 1.0
C      1  0.5588500000000  0.4651160000000  0.5072320000000 1.0
C      1  0.4533670000000  0.4966820000000  0.5368520000000 1.0
C      1  0.5137090000000  0.4778160000000  0.5366630000000 1.0
C      1  0.5236110000000  0.4742020000000  0.4335510000000 1.0
C      1  0.6091550000000  0.5405190000000  0.5396020000000 1.0
C      1  0.5001760000000  0.4977340000000  0.5129450000000 1.0
C      1  0.5581290000000  0.4748290000000  0.4685560000000 1.0
C      1  0.4535690000000  0.4378090000000  0.4730140000000 1.0
C      1  0.4930990000000  0.4727530000000  0.4323420000000 1.0
C      1  0.4280390000000  0.5567480000000  0.4707920000000 1.0
C      1  0.5648480000000  0.5186400000000  0.5023760000000 1.0
C      1  0.5790680000000  0.4560000000000  0.4875210000000 1.0
C      1  0.5898710000000  0.5370500000000  0.5585780000000 1.0
C      1  0.4696470000000  0.4503860000000  0.5497850000000 1.0
C      1  0.4867070000000  0.5217910000000  0.5688180000000 1.0
C      1  0.4738130000000  0.5713520000000  0.4461350000000 1.0
C      1  0.4763680000000  0.5364590000000  0.4704110000000 1.0
C      1  0.4868790000000  0.4676310000000  0.5181670000000 1.0
C      1  0.5093520000000  0.5405730000000  0.4630380000000 1.0
C      1  0.4084510000000  0.5104040000000  0.5220690000000 1.0
C      1  0.5118540000000  0.5391690000000  0.5564650000000 1.0
C      1  0.5109830000000  0.4437390000000  0.5159320000000 1.0
C      1  0.4918840000000  0.5520830000000  0.4373230000000 1.0
C      1  0.5412640000000  0.5334060000000  0.5671160000000 1.0
C      1  0.4190810000000  0.5309340000000  0.4737650000000 1.0
C      1  0.5247610000000  0.5158040000000  0.4625810000000 1.0
C      1  0.5365830000000  0.4581790000000  0.4542720000000 1.0
C      1  0.4805860000000  0.5220570000000  0.4395130000000 1.0
C      1  0.5073960000000  0.4315480000000  0.4879210000000 1.0
C      1  0.5556970000000  0.5401910000000  0.5206400000000 1.0
C      1  0.5747420000000  0.5237390000000  0.4760280000000 1.0
END
