TITL C-2782237-5345-160 -9.69732400459985e-06 125000 -102.763944861257 0 0 19 (C1) n - 1
REM
REM in /home/nfs/bkarasulu/CARBON/AIRSS/Generating-Clusters/REBO/Higher-Symm/SD-CG/HFTN-CG
REM
REM
REM
REM
REM
REM ./C.cell (12c818d87b63d06a65506943cc24bca4)
REM
REM compiler GCC version 9.2.1 20190827 (Red Hat 9.2.1-1)
REM options -cpp -mtune=generic -march=x86-64 -g -O0 -fpre-include=/usr/include/finclude/math-vector-fortran.h
REM seed 139998647 1151475215 -2132784122 460569289 -1729045803 1424876350 1801162712 -1113719329 283022330 1013769193 -561509145 -2036676521 1878431582 -1945853212 -1954263311 304531138 158796473 213107637 526131235 -1468399767 -486178758 487023123 64171438 2143714558 -745829458 -1182897602 -92138108 -1140106232 797986482 288908598 -1981714091 508787855 129955029
REM
CELL 1.54180   50.00000   50.00000   50.00000   90.00000   90.00000   90.00000
LATT -1
SFAC C  
C      1  0.4712600000000  0.4685000000000  0.5236000000000 1.0
C      1  0.5321230000000  0.4876930000000  0.4894040000000 1.0
C      1  0.5397220000000  0.4756020000000  0.4660940000000 1.0
C      1  0.4548800000000  0.5467940000000  0.5187490000000 1.0
C      1  0.5217260000000  0.4657290000000  0.4463410000000 1.0
C      1  0.5027430000000  0.4948960000000  0.4972500000000 1.0
C      1  0.5200480000000  0.5011470000000  0.5711820000000 1.0
C      1  0.4971240000000  0.5243320000000  0.4929200000000 1.0
C      1  0.4755710000000  0.5357920000000  0.5060980000000 1.0
C      1  0.4941860000000  0.4856900000000  0.5261640000000 1.0
C      1  0.4345180000000  0.5576210000000  0.5311980000000 1.0
C      1  0.5073340000000  0.4935480000000  0.5490500000000 1.0
C      1  0.5325590000000  0.5086240000000  0.5929620000000 1.0
C      1  0.5137580000000  0.5386470000000  0.4759500000000 1.0
C      1  0.4945860000000  0.4680160000000  0.4545940000000 1.0
C      1  0.4838820000000  0.4762110000000  0.4792520000000 1.0
C      1  0.5294720000000  0.5521700000000  0.4599190000000 1.0
C      1  0.4649660000000  0.4636040000000  0.4967550000000 1.0
C      1  0.5295400000000  0.4553860000000  0.4225180000000 1.0
END
