TITL C-2782236-320-622 -0.000317985251257182 125000 -420.70457254578 0 0 71 (C1) n - 1
REM
REM in /home/nfs/bkarasulu/CARBON/AIRSS/Generating-Clusters/REBO/Higher-Symm/SD-CG/HFTN-CG
REM
REM
REM
REM
REM
REM ./C.cell (12c818d87b63d06a65506943cc24bca4)
REM
REM compiler GCC version 9.2.1 20190827 (Red Hat 9.2.1-1)
REM options -cpp -mtune=generic -march=x86-64 -g -O0 -fpre-include=/usr/include/finclude/math-vector-fortran.h
REM seed -1352054899 100396782 -41895455 -1587926522 254445811 -706661934 -1854768200 848874200 -1233316005 2033750924 -592691122 -141808557 615766739 2030246392 -851448345 -2123624938 1726922163 2008194768 2141220977 -1235473947 1668683558 -1116281395 -454376695 -272082707 -1123599383 806364879 -1514243258 -1510171038 -96399442 -396244869 -1402092812 -1485383792 1894450941
REM
CELL 1.54180   50.00000   50.00000   50.00000   90.00000   90.00000   90.00000
LATT -1
SFAC C  
C      1  0.4694770000000  0.4851900000000  0.4466140000000 1.0
C      1  0.4690780000000  0.5515130000000  0.5104400000000 1.0
C      1  0.4667400000000  0.4641250000000  0.5401250000000 1.0
C      1  0.5297880000000  0.4847940000000  0.4474690000000 1.0
C      1  0.5218620000000  0.5498640000000  0.5141840000000 1.0
C      1  0.5315930000000  0.4672960000000  0.5389140000000 1.0
C      1  0.4820610000000  0.5606350000000  0.4843790000000 1.0
C      1  0.4872890000000  0.4872930000000  0.5474580000000 1.0
C      1  0.4844350000000  0.4604300000000  0.4602570000000 1.0
C      1  0.5120160000000  0.5599870000000  0.4861200000000 1.0
C      1  0.5156890000000  0.4872470000000  0.5514290000000 1.0
C      1  0.5137150000000  0.4603590000000  0.4607440000000 1.0
C      1  0.5101010000000  0.4129350000000  0.4980570000000 1.0
C      1  0.5117040000000  0.5438180000000  0.4329070000000 1.0
C      1  0.5143910000000  0.5350850000000  0.5739750000000 1.0
C      1  0.4828090000000  0.4123410000000  0.4945280000000 1.0
C      1  0.4840580000000  0.5443240000000  0.4318110000000 1.0
C      1  0.4869140000000  0.5401870000000  0.5758850000000 1.0
C      1  0.5551800000000  0.4731560000000  0.5183350000000 1.0
C      1  0.5535660000000  0.4972800000000  0.4679830000000 1.0
C      1  0.5487930000000  0.5291210000000  0.5156210000000 1.0
C      1  0.4447720000000  0.4719010000000  0.5150770000000 1.0
C      1  0.4454840000000  0.4975780000000  0.4654160000000 1.0
C      1  0.4459350000000  0.5281260000000  0.5120540000000 1.0
C      1  0.5745580000000  0.5434860000000  0.4747180000000 1.0
C      1  0.5785470000000  0.5033610000000  0.5486870000000 1.0
C      1  0.5747590000000  0.4519770000000  0.4767530000000 1.0
C      1  0.4186440000000  0.5402900000000  0.4719780000000 1.0
C      1  0.4295650000000  0.5001010000000  0.5544030000000 1.0
C      1  0.4215170000000  0.4539320000000  0.4721730000000 1.0
C      1  0.4408610000000  0.5278000000000  0.4547250000000 1.0
C      1  0.4471780000000  0.5231820000000  0.5455450000000 1.0
C      1  0.4421140000000  0.4467420000000  0.4935290000000 1.0
C      1  0.5541300000000  0.5282730000000  0.4575700000000 1.0
C      1  0.5547520000000  0.5225670000000  0.5465480000000 1.0
C      1  0.5530950000000  0.4468070000000  0.4982720000000 1.0
C      1  0.5189770000000  0.4423230000000  0.5349660000000 1.0
C      1  0.5355360000000  0.5013430000000  0.4209430000000 1.0
C      1  0.5331740000000  0.5663720000000  0.5391800000000 1.0
C      1  0.4638750000000  0.4307640000000  0.5339860000000 1.0
C      1  0.4627890000000  0.5006020000000  0.4197400000000 1.0
C      1  0.4690420000000  0.5653860000000  0.5394190000000 1.0
C      1  0.5382840000000  0.5283570000000  0.4279110000000 1.0
C      1  0.5391870000000  0.5488270000000  0.5599990000000 1.0
C      1  0.5296070000000  0.4274970000000  0.5127300000000 1.0
C      1  0.4583870000000  0.5275830000000  0.4258580000000 1.0
C      1  0.4649820000000  0.5461660000000  0.5591940000000 1.0
C      1  0.4598340000000  0.4237450000000  0.5067890000000 1.0
C      1  0.4222460000000  0.4764750000000  0.4608250000000 1.0
C      1  0.4207670000000  0.5401730000000  0.4971760000000 1.0
C      1  0.4286720000000  0.4781990000000  0.5421280000000 1.0
C      1  0.5754660000000  0.4743280000000  0.4648840000000 1.0
C      1  0.5720040000000  0.5437450000000  0.4997960000000 1.0
C      1  0.5796500000000  0.4816580000000  0.5357500000000 1.0
C      1  0.4718620000000  0.4556030000000  0.4855030000000 1.0
C      1  0.4689270000000  0.5439280000000  0.4604220000000 1.0
C      1  0.4769880000000  0.5148160000000  0.5374640000000 1.0
C      1  0.5248610000000  0.4572040000000  0.4866660000000 1.0
C      1  0.5245750000000  0.5413520000000  0.4627810000000 1.0
C      1  0.5276560000000  0.5109250000000  0.5606060000000 1.0
C      1  0.4798530000000  0.5210460000000  0.4806890000000 1.0
C      1  0.4853820000000  0.5036260000000  0.5087100000000 1.0
C      1  0.4832740000000  0.4715870000000  0.5050020000000 1.0
C      1  0.5084250000000  0.5207290000000  0.4811100000000 1.0
C      1  0.5194140000000  0.5043440000000  0.5045590000000 1.0
C      1  0.5117280000000  0.4738860000000  0.5049360000000 1.0
C      1  0.4921640000000  0.4410650000000  0.5421270000000 1.0
C      1  0.4951420000000  0.5385420000000  0.5254320000000 1.0
C      1  0.4994170000000  0.4962470000000  0.4509720000000 1.0
C      1  0.4479600000000  0.4988290000000  0.4976290000000 1.0
C      1  0.5491280000000  0.4988710000000  0.5000820000000 1.0
END
