TITL C-2782229-3092-1096 0.00218121931771687 125000 -717.31454159434 0 0 124 (C1) n - 1
REM
REM in /home/nfs/bkarasulu/CARBON/AIRSS/Generating-Clusters/REBO/Higher-Symm/SD-CG/HFTN-CG
REM
REM
REM
REM
REM
REM ./C.cell (12c818d87b63d06a65506943cc24bca4)
REM
REM compiler GCC version 9.2.1 20190827 (Red Hat 9.2.1-1)
REM options -cpp -mtune=generic -march=x86-64 -g -O0 -fpre-include=/usr/include/finclude/math-vector-fortran.h
REM seed -498335980 671195935 2138962633 2060634375 -1897156350 -426321537 -1746697284 664176450 -2005660110 -1056450188 2131286073 1497209765 -29224038 1228879486 -478444633 1761256361 1774418579 -570935109 -106604023 -122311311 1667467386 768830675 711219945 1403201047 -1602937567 809501920 -1707619958 1821811706 -1808606482 1669997565 601552487 -570866917 1967152088
REM
CELL 1.54180   50.00000   50.00000   50.00000   90.00000   90.00000   90.00000
LATT -1
SFAC C  
C      1  0.4683330000000  0.4851890000000  0.5443530000000 1.0
C      1  0.4679900000000  0.4849480000000  0.4526680000000 1.0
C      1  0.4168820000000  0.5198080000000  0.4798370000000 1.0
C      1  0.4251690000000  0.5187130000000  0.5118360000000 1.0
C      1  0.5708320000000  0.5371990000000  0.5393580000000 1.0
C      1  0.5717860000000  0.5354040000000  0.4589310000000 1.0
C      1  0.4288930000000  0.4491740000000  0.4856600000000 1.0
C      1  0.4312150000000  0.4464410000000  0.5155360000000 1.0
C      1  0.5569510000000  0.5014100000000  0.4794630000000 1.0
C      1  0.5548800000000  0.5066440000000  0.5126290000000 1.0
C      1  0.5437840000000  0.4420590000000  0.4516720000000 1.0
C      1  0.5449940000000  0.4417320000000  0.5522730000000 1.0
C      1  0.5561860000000  0.5683400000000  0.5386780000000 1.0
C      1  0.5561270000000  0.5660200000000  0.4623960000000 1.0
C      1  0.4938660000000  0.5017040000000  0.4400390000000 1.0
C      1  0.4946140000000  0.5006010000000  0.5595050000000 1.0
C      1  0.4557120000000  0.4055310000000  0.5143460000000 1.0
C      1  0.4508580000000  0.4057720000000  0.4851830000000 1.0
C      1  0.4692150000000  0.4604870000000  0.5657690000000 1.0
C      1  0.4686250000000  0.4587660000000  0.4331980000000 1.0
C      1  0.5063760000000  0.4710310000000  0.4042050000000 1.0
C      1  0.5052040000000  0.4802190000000  0.5921190000000 1.0
C      1  0.5227710000000  0.5446710000000  0.4585990000000 1.0
C      1  0.5246200000000  0.5447480000000  0.5447200000000 1.0
C      1  0.4440250000000  0.5112200000000  0.5776560000000 1.0
C      1  0.4497050000000  0.5102200000000  0.4183600000000 1.0
C      1  0.5241140000000  0.4763800000000  0.4461960000000 1.0
C      1  0.5267930000000  0.4771340000000  0.5579630000000 1.0
C      1  0.5501910000000  0.5790070000000  0.4359850000000 1.0
C      1  0.5522390000000  0.5802320000000  0.5659750000000 1.0
C      1  0.4978780000000  0.4575650000000  0.5772330000000 1.0
C      1  0.4977510000000  0.4516430000000  0.4234530000000 1.0
C      1  0.4825120000000  0.4473640000000  0.4886130000000 1.0
C      1  0.4848000000000  0.4434660000000  0.5165640000000 1.0
C      1  0.4776940000000  0.5557250000000  0.4881980000000 1.0
C      1  0.4780590000000  0.5640550000000  0.5198470000000 1.0
C      1  0.4750180000000  0.5225790000000  0.4107310000000 1.0
C      1  0.4643080000000  0.5319410000000  0.5885910000000 1.0
C      1  0.4296170000000  0.5472950000000  0.5267700000000 1.0
C      1  0.4257400000000  0.5486760000000  0.4653850000000 1.0
C      1  0.5295910000000  0.4878340000000  0.4145940000000 1.0
C      1  0.5334300000000  0.4887490000000  0.5896060000000 1.0
C      1  0.4759310000000  0.4759330000000  0.5157290000000 1.0
C      1  0.4730820000000  0.4781700000000  0.4814630000000 1.0
C      1  0.5657800000000  0.4761240000000  0.5234210000000 1.0
C      1  0.5653280000000  0.4696710000000  0.4705800000000 1.0
C      1  0.5142280000000  0.4374310000000  0.4443290000000 1.0
C      1  0.5157240000000  0.4388990000000  0.5607290000000 1.0
C      1  0.5619840000000  0.4655160000000  0.4397840000000 1.0
C      1  0.5646080000000  0.4658830000000  0.5527420000000 1.0
C      1  0.4458380000000  0.4275210000000  0.5296360000000 1.0
C      1  0.4418500000000  0.4287640000000  0.4706180000000 1.0
C      1  0.5578970000000  0.5174350000000  0.4400700000000 1.0
C      1  0.5597500000000  0.5182500000000  0.5581950000000 1.0
C      1  0.4634790000000  0.5373440000000  0.5453640000000 1.0
C      1  0.4629430000000  0.5376530000000  0.4561740000000 1.0
C      1  0.4917190000000  0.5325700000000  0.5175210000000 1.0
C      1  0.4987320000000  0.5289870000000  0.4860240000000 1.0
C      1  0.5266660000000  0.5082020000000  0.4482800000000 1.0
C      1  0.5280120000000  0.5083780000000  0.5555420000000 1.0
C      1  0.4928600000000  0.5282440000000  0.4551880000000 1.0
C      1  0.4954110000000  0.5292660000000  0.5491720000000 1.0
C      1  0.5679960000000  0.4874430000000  0.5695590000000 1.0
C      1  0.5677110000000  0.4885770000000  0.4264110000000 1.0
C      1  0.4450800000000  0.5627790000000  0.4815260000000 1.0
C      1  0.4470300000000  0.5644210000000  0.5121070000000 1.0
C      1  0.5242930000000  0.4385040000000  0.5185970000000 1.0
C      1  0.5226870000000  0.4372160000000  0.4848040000000 1.0
C      1  0.5350960000000  0.5682990000000  0.4190800000000 1.0
C      1  0.5393000000000  0.5681930000000  0.5837890000000 1.0
C      1  0.4889180000000  0.5799780000000  0.5547780000000 1.0
C      1  0.4887090000000  0.5816240000000  0.4601450000000 1.0
C      1  0.4778640000000  0.5630010000000  0.4426270000000 1.0
C      1  0.4759320000000  0.5577480000000  0.5688170000000 1.0
C      1  0.5014900000000  0.5798400000000  0.4917770000000 1.0
C      1  0.5010180000000  0.5845410000000  0.5258570000000 1.0
C      1  0.4507150000000  0.5232130000000  0.4823930000000 1.0
C      1  0.4588970000000  0.5230520000000  0.5146200000000 1.0
C      1  0.5906390000000  0.4890750000000  0.5103670000000 1.0
C      1  0.5923730000000  0.4832960000000  0.4800340000000 1.0
C      1  0.4361030000000  0.5255660000000  0.4427600000000 1.0
C      1  0.4339730000000  0.5240060000000  0.5503550000000 1.0
C      1  0.5698690000000  0.5212680000000  0.5906820000000 1.0
C      1  0.5611730000000  0.5239160000000  0.4066970000000 1.0
C      1  0.4230770000000  0.4803430000000  0.4794040000000 1.0
C      1  0.4280900000000  0.4781300000000  0.5130690000000 1.0
C      1  0.5320140000000  0.5223940000000  0.4832990000000 1.0
C      1  0.5267930000000  0.5254700000000  0.5167710000000 1.0
C      1  0.4061240000000  0.4975740000000  0.5396200000000 1.0
C      1  0.4076990000000  0.4980240000000  0.4473520000000 1.0
C      1  0.5185690000000  0.5418100000000  0.4246570000000 1.0
C      1  0.5249300000000  0.5404810000000  0.5788670000000 1.0
C      1  0.3998100000000  0.4965700000000  0.5074710000000 1.0
C      1  0.3930460000000  0.4965140000000  0.4753260000000 1.0
C      1  0.4390260000000  0.4944170000000  0.4534950000000 1.0
C      1  0.4389850000000  0.4933740000000  0.5402990000000 1.0
C      1  0.4867990000000  0.5064630000000  0.5913510000000 1.0
C      1  0.4914960000000  0.4972200000000  0.4075030000000 1.0
C      1  0.4885440000000  0.5462160000000  0.4198840000000 1.0
C      1  0.4969240000000  0.5389280000000  0.5878780000000 1.0
C      1  0.4844990000000  0.4022450000000  0.4867830000000 1.0
C      1  0.4859320000000  0.3998830000000  0.5210800000000 1.0
C      1  0.5406590000000  0.5165870000000  0.5929650000000 1.0
C      1  0.5321850000000  0.5168260000000  0.4097430000000 1.0
C      1  0.4641540000000  0.4352980000000  0.5497740000000 1.0
C      1  0.4617500000000  0.4361550000000  0.4519700000000 1.0
C      1  0.4496080000000  0.4839350000000  0.5795570000000 1.0
C      1  0.4501430000000  0.4823370000000  0.4170770000000 1.0
C      1  0.5541390000000  0.4443460000000  0.4850860000000 1.0
C      1  0.5557260000000  0.4462090000000  0.5192020000000 1.0
C      1  0.4899410000000  0.4274170000000  0.4641180000000 1.0
C      1  0.4942230000000  0.4248820000000  0.5421510000000 1.0
C      1  0.5072710000000  0.4841760000000  0.5164220000000 1.0
C      1  0.5036400000000  0.4825470000000  0.4878320000000 1.0
C      1  0.5869200000000  0.5205900000000  0.5156910000000 1.0
C      1  0.5877050000000  0.5167310000000  0.4818720000000 1.0
C      1  0.5280870000000  0.5673990000000  0.5189320000000 1.0
C      1  0.5298770000000  0.5656930000000  0.4847330000000 1.0
C      1  0.5211540000000  0.4667550000000  0.5326160000000 1.0
C      1  0.5191050000000  0.4660100000000  0.4717140000000 1.0
C      1  0.5661360000000  0.5494650000000  0.4878240000000 1.0
C      1  0.5645470000000  0.5532020000000  0.5116570000000 1.0
C      1  0.5177910000000  0.4047050000000  0.4801290000000 1.0
C      1  0.5148450000000  0.4091930000000  0.5117830000000 1.0
END
