TITL C-2782230-7391-1045 0.0818233423758236 125000 -333.953593654629 0 0 57 (C1) n - 1
REM
REM in /home/nfs/bkarasulu/CARBON/AIRSS/Generating-Clusters/REBO/Higher-Symm/SD-CG/HFTN-CG
REM
REM
REM
REM
REM
REM ./C.cell (12c818d87b63d06a65506943cc24bca4)
REM
REM compiler GCC version 9.2.1 20190827 (Red Hat 9.2.1-1)
REM options -cpp -mtune=generic -march=x86-64 -g -O0 -fpre-include=/usr/include/finclude/math-vector-fortran.h
REM seed 102208241 -876602860 -1716805766 -288023225 -714653468 -1617601704 -68959604 451477944 664990221 112573285 58901034 -1544134678 -1579453815 1062011531 -615562952 -633273945 578218412 941608499 1907167899 -612454988 2054843239 1370346505 -73531120 -359870116 1826100809 -1650287044 -1919032834 922343213 -1765832638 81849576 866860781 1808244790 -1552414399
REM
CELL 1.54180   50.00000   50.00000   50.00000   90.00000   90.00000   90.00000
LATT -1
SFAC C  
C      1  0.4477300000000  0.4733300000000  0.5920270000000 1.0
C      1  0.4537730000000  0.4825670000000  0.5651560000000 1.0
C      1  0.4430620000000  0.5093740000000  0.5627730000000 1.0
C      1  0.4305910000000  0.5159400000000  0.5881260000000 1.0
C      1  0.4335590000000  0.4938300000000  0.6058750000000 1.0
C      1  0.5425400000000  0.4490670000000  0.4508850000000 1.0
C      1  0.4693390000000  0.4475110000000  0.4806220000000 1.0
C      1  0.4385430000000  0.5156810000000  0.4737990000000 1.0
C      1  0.4955810000000  0.5652850000000  0.4589470000000 1.0
C      1  0.5595490000000  0.5242000000000  0.4451810000000 1.0
C      1  0.4898430000000  0.5234760000000  0.5074020000000 1.0
C      1  0.5404980000000  0.5193610000000  0.4922620000000 1.0
C      1  0.5394930000000  0.4861960000000  0.4916160000000 1.0
C      1  0.4904330000000  0.4837610000000  0.5054100000000 1.0
C      1  0.4668870000000  0.5047050000000  0.5194670000000 1.0
C      1  0.5185140000000  0.4428990000000  0.4719570000000 1.0
C      1  0.4521850000000  0.4702850000000  0.4847800000000 1.0
C      1  0.4555490000000  0.5441560000000  0.4755980000000 1.0
C      1  0.5277580000000  0.5575840000000  0.4610750000000 1.0
C      1  0.5663920000000  0.4924510000000  0.4523100000000 1.0
C      1  0.4666970000000  0.4713920000000  0.5414460000000 1.0
C      1  0.4552510000000  0.5525580000000  0.5257200000000 1.0
C      1  0.5429080000000  0.5470180000000  0.5206820000000 1.0
C      1  0.5763120000000  0.4848960000000  0.5070300000000 1.0
C      1  0.5179920000000  0.4380200000000  0.5185250000000 1.0
C      1  0.5799220000000  0.5161590000000  0.4976600000000 1.0
C      1  0.5457390000000  0.4395760000000  0.5143280000000 1.0
C      1  0.4802000000000  0.4441650000000  0.5290510000000 1.0
C      1  0.4265850000000  0.5410990000000  0.5186140000000 1.0
C      1  0.5131370000000  0.5553590000000  0.5123870000000 1.0
C      1  0.5342410000000  0.5350340000000  0.4419370000000 1.0
C      1  0.5430340000000  0.4753630000000  0.4406140000000 1.0
C      1  0.4907150000000  0.4520290000000  0.4620270000000 1.0
C      1  0.4505580000000  0.4920720000000  0.4658430000000 1.0
C      1  0.4757000000000  0.5462860000000  0.4534270000000 1.0
C      1  0.5510780000000  0.4416240000000  0.4827400000000 1.0
C      1  0.4720870000000  0.4322600000000  0.5055000000000 1.0
C      1  0.4250160000000  0.5385270000000  0.4904940000000 1.0
C      1  0.5078290000000  0.5665600000000  0.4880740000000 1.0
C      1  0.5787410000000  0.5191460000000  0.4697560000000 1.0
C      1  0.4721030000000  0.4954100000000  0.4473410000000 1.0
C      1  0.4843620000000  0.5216700000000  0.4419130000000 1.0
C      1  0.5129390000000  0.5170660000000  0.4359830000000 1.0
C      1  0.5178210000000  0.4879420000000  0.4367860000000 1.0
C      1  0.4924720000000  0.4748430000000  0.4450810000000 1.0
C      1  0.5185090000000  0.5236520000000  0.5253720000000 1.0
C      1  0.5552850000000  0.5087650000000  0.5203790000000 1.0
C      1  0.5498900000000  0.4695340000000  0.5194950000000 1.0
C      1  0.5003840000000  0.4714180000000  0.5351600000000 1.0
C      1  0.4481230000000  0.5220930000000  0.5369990000000 1.0
C      1  0.5656640000000  0.4710690000000  0.4778080000000 1.0
C      1  0.5047430000000  0.4541990000000  0.4993330000000 1.0
C      1  0.4515260000000  0.4774910000000  0.5119880000000 1.0
C      1  0.4725600000000  0.5483310000000  0.5022500000000 1.0
C      1  0.5440240000000  0.5499370000000  0.4875600000000 1.0
C      1  0.5112840000000  0.5040680000000  0.4913380000000 1.0
C      1  0.5272610000000  0.4920550000000  0.5313710000000 1.0
END
