TITL C-2782231-7322-375 -0.00298552087332781 125000 -1058.41253561523 0 0 186 (C1) n - 1
REM
REM in /home/nfs/bkarasulu/CARBON/AIRSS/Generating-Clusters/REBO/Higher-Symm/SD-CG/HFTN-CG
REM
REM
REM
REM
REM
REM ./C.cell (12c818d87b63d06a65506943cc24bca4)
REM
REM compiler GCC version 9.2.1 20190827 (Red Hat 9.2.1-1)
REM options -cpp -mtune=generic -march=x86-64 -g -O0 -fpre-include=/usr/include/finclude/math-vector-fortran.h
REM seed 1540843171 -833931247 1926212779 -137413410 -751691401 1412068669 1266255921 -1679788424 1713289644 1367285658 374078557 1847848529 784955650 -783527993 -345832405 -72861247 -2043202587 1229994948 -395969849 1807437207 338810111 -1107649865 1227674648 -192101018 1538719415 575333764 -800877189 -1253965546 -914083506 -1883981496 533675087 -1122873203 -558788790
REM
CELL 1.54180   50.00000   50.00000   50.00000   90.00000   90.00000   90.00000
LATT -1
SFAC C  
C      1  0.5498110000000  0.5729320000000  0.4831400000000 1.0
C      1  0.5842130000000  0.4780100000000  0.4795870000000 1.0
C      1  0.5069210000000  0.4168310000000  0.4817280000000 1.0
C      1  0.4189480000000  0.4785400000000  0.4883040000000 1.0
C      1  0.4583110000000  0.5641820000000  0.4901580000000 1.0
C      1  0.5848480000000  0.5083030000000  0.5531970000000 1.0
C      1  0.5338740000000  0.4150880000000  0.5483370000000 1.0
C      1  0.4340520000000  0.4452730000000  0.5562610000000 1.0
C      1  0.4203040000000  0.5520730000000  0.5575670000000 1.0
C      1  0.5199680000000  0.5923580000000  0.5545290000000 1.0
C      1  0.5791210000000  0.5902260000000  0.4818200000000 1.0
C      1  0.6140440000000  0.4647780000000  0.4893510000000 1.0
C      1  0.5007270000000  0.3843130000000  0.4883850000000 1.0
C      1  0.3864450000000  0.4780640000000  0.4956800000000 1.0
C      1  0.4401610000000  0.5929320000000  0.4934660000000 1.0
C      1  0.4901980000000  0.5234270000000  0.4330460000000 1.0
C      1  0.5220460000000  0.5166690000000  0.4299280000000 1.0
C      1  0.5256800000000  0.4845190000000  0.4292080000000 1.0
C      1  0.4960530000000  0.4714400000000  0.4302190000000 1.0
C      1  0.4734330000000  0.4950870000000  0.4320250000000 1.0
C      1  0.4631070000000  0.5775390000000  0.4176290000000 1.0
C      1  0.5669970000000  0.5669330000000  0.4179770000000 1.0
C      1  0.5931300000000  0.4549220000000  0.4221390000000 1.0
C      1  0.4986140000000  0.4069120000000  0.4279110000000 1.0
C      1  0.4042020000000  0.4814510000000  0.4220750000000 1.0
C      1  0.6056510000000  0.4625910000000  0.4593200000000 1.0
C      1  0.4992660000000  0.3940250000000  0.4576250000000 1.0
C      1  0.3950070000000  0.4769960000000  0.4646240000000 1.0
C      1  0.4435480000000  0.5810090000000  0.4645120000000 1.0
C      1  0.5713520000000  0.5721020000000  0.4573960000000 1.0
C      1  0.3789900000000  0.4904320000000  0.5216740000000 1.0
C      1  0.4447390000000  0.6095640000000  0.5172550000000 1.0
C      1  0.5926850000000  0.5876080000000  0.5083340000000 1.0
C      1  0.6097930000000  0.4458180000000  0.5097320000000 1.0
C      1  0.4847520000000  0.3855610000000  0.5120250000000 1.0
C      1  0.3939300000000  0.4787360000000  0.5450320000000 1.0
C      1  0.4412000000000  0.5941090000000  0.5407740000000 1.0
C      1  0.5733480000000  0.5852420000000  0.5291760000000 1.0
C      1  0.5995350000000  0.4602780000000  0.5347450000000 1.0
C      1  0.5005640000000  0.3981820000000  0.5346950000000 1.0
C      1  0.4478340000000  0.5444870000000  0.4490130000000 1.0
C      1  0.5304590000000  0.5649060000000  0.4457060000000 1.0
C      1  0.5722480000000  0.4918040000000  0.4443210000000 1.0
C      1  0.5243900000000  0.4420910000000  0.4419640000000 1.0
C      1  0.4355910000000  0.4608330000000  0.4477610000000 1.0
C      1  0.5280730000000  0.5101670000000  0.5054840000000 1.0
C      1  0.5127800000000  0.4847810000000  0.5191730000000 1.0
C      1  0.4838810000000  0.4759500000000  0.5060690000000 1.0
C      1  0.4771980000000  0.5027730000000  0.5219140000000 1.0
C      1  0.4990990000000  0.5229310000000  0.5141630000000 1.0
C      1  0.4993650000000  0.4306120000000  0.5902790000000 1.0
C      1  0.4319970000000  0.4780710000000  0.5953680000000 1.0
C      1  0.4560830000000  0.5601010000000  0.5939300000000 1.0
C      1  0.5321110000000  0.5527680000000  0.5920640000000 1.0
C      1  0.5594110000000  0.4816040000000  0.5813700000000 1.0
C      1  0.4383010000000  0.5751570000000  0.5690350000000 1.0
C      1  0.5517960000000  0.5804660000000  0.5525020000000 1.0
C      1  0.5795340000000  0.4747510000000  0.5547260000000 1.0
C      1  0.5061880000000  0.4072830000000  0.5664660000000 1.0
C      1  0.4161240000000  0.4676500000000  0.5685510000000 1.0
C      1  0.5206820000000  0.4800620000000  0.4790480000000 1.0
C      1  0.4830940000000  0.4676180000000  0.4754130000000 1.0
C      1  0.4638150000000  0.5092030000000  0.4739760000000 1.0
C      1  0.4972850000000  0.5362180000000  0.4838690000000 1.0
C      1  0.5402960000000  0.5176590000000  0.4757830000000 1.0
C      1  0.5509670000000  0.4929870000000  0.3791660000000 1.0
C      1  0.5082380000000  0.4474230000000  0.3813730000000 1.0
C      1  0.4526100000000  0.4749980000000  0.3841860000000 1.0
C      1  0.4603760000000  0.5367540000000  0.3869960000000 1.0
C      1  0.5216370000000  0.5477180000000  0.3840120000000 1.0
C      1  0.5866310000000  0.5483400000000  0.5214280000000 1.0
C      1  0.5699360000000  0.4280670000000  0.5208450000000 1.0
C      1  0.4474610000000  0.4131250000000  0.5339370000000 1.0
C      1  0.4044150000000  0.5207960000000  0.5253650000000 1.0
C      1  0.4901340000000  0.5914130000000  0.5257270000000 1.0
C      1  0.6096460000000  0.5004570000000  0.4138510000000 1.0
C      1  0.5392030000000  0.4175300000000  0.4011430000000 1.0
C      1  0.4170220000000  0.4349800000000  0.4075050000000 1.0
C      1  0.4179590000000  0.5562040000000  0.4112520000000 1.0
C      1  0.5301910000000  0.5993460000000  0.4083170000000 1.0
C      1  0.5086480000000  0.4784750000000  0.5780740000000 1.0
C      1  0.4785490000000  0.4742340000000  0.5797440000000 1.0
C      1  0.4672240000000  0.5053490000000  0.5789680000000 1.0
C      1  0.4914560000000  0.5264350000000  0.5845410000000 1.0
C      1  0.5167500000000  0.5076990000000  0.5821920000000 1.0
C      1  0.4889740000000  0.5682350000000  0.4845340000000 1.0
C      1  0.5730140000000  0.5141720000000  0.4663910000000 1.0
C      1  0.5494400000000  0.4448080000000  0.4612570000000 1.0
C      1  0.4587680000000  0.4507270000000  0.4690090000000 1.0
C      1  0.4310100000000  0.5054590000000  0.4826480000000 1.0
C      1  0.5480180000000  0.4634500000000  0.5480610000000 1.0
C      1  0.4775500000000  0.4204890000000  0.5583220000000 1.0
C      1  0.4289280000000  0.4958020000000  0.5596720000000 1.0
C      1  0.4702850000000  0.5747340000000  0.5597840000000 1.0
C      1  0.5517240000000  0.5475750000000  0.5577090000000 1.0
C      1  0.5450600000000  0.5757740000000  0.5135060000000 1.0
C      1  0.5811070000000  0.4735840000000  0.5111090000000 1.0
C      1  0.5052330000000  0.4245080000000  0.5136180000000 1.0
C      1  0.4174930000000  0.4655580000000  0.5260530000000 1.0
C      1  0.4458240000000  0.5648580000000  0.5298950000000 1.0
C      1  0.4530650000000  0.5312920000000  0.5962090000000 1.0
C      1  0.5029300000000  0.5503700000000  0.5995790000000 1.0
C      1  0.5439780000000  0.5057290000000  0.5954150000000 1.0
C      1  0.5188540000000  0.4525890000000  0.5903890000000 1.0
C      1  0.4564400000000  0.4638900000000  0.5996110000000 1.0
C      1  0.5647420000000  0.4025150000000  0.4913910000000 1.0
C      1  0.4309620000000  0.4184900000000  0.4984480000000 1.0
C      1  0.4059310000000  0.5428130000000  0.4928410000000 1.0
C      1  0.5061900000000  0.6042440000000  0.4925830000000 1.0
C      1  0.6000150000000  0.5233450000000  0.4942630000000 1.0
C      1  0.5145670000000  0.5838910000000  0.4681510000000 1.0
C      1  0.5700330000000  0.5085750000000  0.5006670000000 1.0
C      1  0.5436550000000  0.4287380000000  0.4907920000000 1.0
C      1  0.4266970000000  0.4419360000000  0.4746310000000 1.0
C      1  0.4327650000000  0.5382850000000  0.4735530000000 1.0
C      1  0.4322680000000  0.5061580000000  0.5982080000000 1.0
C      1  0.4836800000000  0.5715150000000  0.5971120000000 1.0
C      1  0.5538470000000  0.5327110000000  0.5946220000000 1.0
C      1  0.5467960000000  0.4517650000000  0.5861530000000 1.0
C      1  0.4703170000000  0.4369780000000  0.5939520000000 1.0
C      1  0.4141680000000  0.4990130000000  0.4470390000000 1.0
C      1  0.4727060000000  0.5755210000000  0.4488750000000 1.0
C      1  0.5708490000000  0.5447140000000  0.4408320000000 1.0
C      1  0.5943880000000  0.4383970000000  0.4469390000000 1.0
C      1  0.4795880000000  0.4207450000000  0.4528940000000 1.0
C      1  0.4923680000000  0.5920860000000  0.5743910000000 1.0
C      1  0.5749140000000  0.5323620000000  0.5725700000000 1.0
C      1  0.5543840000000  0.4305570000000  0.5698730000000 1.0
C      1  0.4505630000000  0.4244140000000  0.5734970000000 1.0
C      1  0.4214310000000  0.5235650000000  0.5732070000000 1.0
C      1  0.4413230000000  0.5577950000000  0.4248920000000 1.0
C      1  0.5423390000000  0.5789570000000  0.4220800000000 1.0
C      1  0.5918310000000  0.4835780000000  0.4254760000000 1.0
C      1  0.5219260000000  0.4221580000000  0.4213910000000 1.0
C      1  0.4180230000000  0.4572500000000  0.4234250000000 1.0
C      1  0.5565720000000  0.5494040000000  0.5271620000000 1.0
C      1  0.5582490000000  0.4554460000000  0.5196620000000 1.0
C      1  0.4764460000000  0.4287720000000  0.5263310000000 1.0
C      1  0.4246970000000  0.4982410000000  0.5286470000000 1.0
C      1  0.4784340000000  0.5634910000000  0.5304930000000 1.0
C      1  0.4179190000000  0.5500110000000  0.5238870000000 1.0
C      1  0.5220090000000  0.5933290000000  0.5207360000000 1.0
C      1  0.5971940000000  0.5197670000000  0.5282000000000 1.0
C      1  0.5445440000000  0.4084970000000  0.5187160000000 1.0
C      1  0.4213920000000  0.4319600000000  0.5281920000000 1.0
C      1  0.4893480000000  0.4505710000000  0.5573070000000 1.0
C      1  0.4601280000000  0.4919830000000  0.5494260000000 1.0
C      1  0.4721750000000  0.5412500000000  0.5625920000000 1.0
C      1  0.5231310000000  0.5300790000000  0.5604310000000 1.0
C      1  0.5234610000000  0.4851740000000  0.5499670000000 1.0
C      1  0.4475580000000  0.4926770000000  0.4489120000000 1.0
C      1  0.4806800000000  0.5428760000000  0.4547780000000 1.0
C      1  0.5406770000000  0.5323120000000  0.4469240000000 1.0
C      1  0.5488850000000  0.4739180000000  0.4453590000000 1.0
C      1  0.4946560000000  0.4491470000000  0.4517700000000 1.0
C      1  0.4000110000000  0.5158390000000  0.4723590000000 1.0
C      1  0.4781090000000  0.5987260000000  0.4732090000000 1.0
C      1  0.5932950000000  0.5396460000000  0.4649910000000 1.0
C      1  0.5762120000000  0.4249580000000  0.4680870000000 1.0
C      1  0.4586750000000  0.4186000000000  0.4780340000000 1.0
C      1  0.5513030000000  0.4858070000000  0.4833700000000 1.0
C      1  0.5173370000000  0.4490850000000  0.4844560000000 1.0
C      1  0.4380400000000  0.4575270000000  0.5025240000000 1.0
C      1  0.4554450000000  0.5333720000000  0.4967260000000 1.0
C      1  0.5247190000000  0.5525860000000  0.4771610000000 1.0
C      1  0.4491160000000  0.5186810000000  0.5222710000000 1.0
C      1  0.5012770000000  0.5428640000000  0.5378600000000 1.0
C      1  0.5520230000000  0.5185520000000  0.5248300000000 1.0
C      1  0.5243560000000  0.4528100000000  0.5177460000000 1.0
C      1  0.4641840000000  0.4556320000000  0.5157650000000 1.0
C      1  0.3835790000000  0.5174830000000  0.5012380000000 1.0
C      1  0.4743930000000  0.6100670000000  0.5049390000000 1.0
C      1  0.5997720000000  0.5579400000000  0.4929110000000 1.0
C      1  0.5918440000000  0.4224230000000  0.4984310000000 1.0
C      1  0.4585060000000  0.3993590000000  0.5060800000000 1.0
C      1  0.5151320000000  0.5617690000000  0.5633230000000 1.0
C      1  0.5512360000000  0.5025610000000  0.5541990000000 1.0
C      1  0.5189470000000  0.4456520000000  0.5507740000000 1.0
C      1  0.4609660000000  0.4610270000000  0.5463790000000 1.0
C      1  0.4461260000000  0.5307810000000  0.5507110000000 1.0
C      1  0.5268420000000  0.4949750000000  0.3968320000000 1.0
C      1  0.5042010000000  0.4721620000000  0.3978730000000 1.0
C      1  0.4754510000000  0.4868200000000  0.3996630000000 1.0
C      1  0.4801600000000  0.5189700000000  0.4008300000000 1.0
C      1  0.5117660000000  0.5238740000000  0.3993740000000 1.0
C      1  0.4960890000000  0.4988700000000  0.4758410000000 1.0
END
