TITL C-2782239-8622-1226 0.000480814625995654 125000 -195.3912401288 0 0 36 (C1) n - 1
REM
REM in /home/nfs/bkarasulu/CARBON/AIRSS/Generating-Clusters/REBO/Higher-Symm/SD-CG/HFTN-CG
REM
REM
REM
REM
REM
REM ./C.cell (12c818d87b63d06a65506943cc24bca4)
REM
REM compiler GCC version 9.2.1 20190827 (Red Hat 9.2.1-1)
REM options -cpp -mtune=generic -march=x86-64 -g -O0 -fpre-include=/usr/include/finclude/math-vector-fortran.h
REM seed 543483863 -2044895024 139689680 1195563184 381239319 306970656 885016681 1275886710 -2048513313 -977435737 -1814669326 2115655324 -1549717217 1879241170 -269415272 -1279184323 1237059837 647084152 2017982899 -1340505451 -33742580 681161753 -259747125 -725076119 -882216417 848575336 -335794087 1087029443 403738906 1424703034 1511551806 2094487856 -2050553849
REM
CELL 1.54180   50.00000   50.00000   50.00000   90.00000   90.00000   90.00000
LATT -1
SFAC C  
C      1  0.5111390000000  0.5786300000000  0.4784070000000 1.0
C      1  0.4940000000000  0.4142990000000  0.5299070000000 1.0
C      1  0.5397240000000  0.5727220000000  0.4640990000000 1.0
C      1  0.4733410000000  0.4229640000000  0.5534780000000 1.0
C      1  0.4937140000000  0.5642180000000  0.4073430000000 1.0
C      1  0.5062210000000  0.5386190000000  0.5602640000000 1.0
C      1  0.4808180000000  0.5113820000000  0.5183930000000 1.0
C      1  0.5230010000000  0.4717980000000  0.4756020000000 1.0
C      1  0.4864770000000  0.4452150000000  0.5342130000000 1.0
C      1  0.5205270000000  0.5484010000000  0.4729850000000 1.0
C      1  0.5231620000000  0.4950600000000  0.5650510000000 1.0
C      1  0.4831580000000  0.5179720000000  0.4333630000000 1.0
C      1  0.4893800000000  0.4731520000000  0.5264080000000 1.0
C      1  0.5155020000000  0.5201310000000  0.4747510000000 1.0
C      1  0.4573330000000  0.5067220000000  0.4336050000000 1.0
C      1  0.5422950000000  0.4720640000000  0.5788100000000 1.0
C      1  0.4977180000000  0.4925190000000  0.5492540000000 1.0
C      1  0.5024140000000  0.5057370000000  0.4502040000000 1.0
C      1  0.4409060000000  0.4833610000000  0.4985870000000 1.0
C      1  0.5577460000000  0.4970880000000  0.5031110000000 1.0
C      1  0.5637850000000  0.4891200000000  0.5280610000000 1.0
C      1  0.4320220000000  0.4859010000000  0.4732520000000 1.0
C      1  0.4614880000000  0.4877330000000  0.5161600000000 1.0
C      1  0.5382690000000  0.4981170000000  0.4835720000000 1.0
C      1  0.5089650000000  0.4781250000000  0.5017870000000 1.0
C      1  0.5033490000000  0.5071280000000  0.5016060000000 1.0
C      1  0.4933400000000  0.5957810000000  0.4876600000000 1.0
C      1  0.5072120000000  0.3955330000000  0.5168710000000 1.0
C      1  0.5077210000000  0.4775630000000  0.4512440000000 1.0
C      1  0.4817190000000  0.5225050000000  0.5480170000000 1.0
C      1  0.4995060000000  0.4590140000000  0.4333340000000 1.0
C      1  0.4570030000000  0.5285290000000  0.5593050000000 1.0
C      1  0.4886010000000  0.5418170000000  0.4199470000000 1.0
C      1  0.5251840000000  0.5247180000000  0.5702860000000 1.0
C      1  0.4383300000000  0.4947870000000  0.4485720000000 1.0
C      1  0.5549270000000  0.4815750000000  0.5524910000000 1.0
END
