TITL C-2782230-7391-981 -0.0075921487084993 125000 -323.037256797899 0 0 56 (C1) n - 1
REM
REM in /home/nfs/bkarasulu/CARBON/AIRSS/Generating-Clusters/REBO/Higher-Symm/SD-CG/HFTN-CG
REM
REM
REM
REM
REM
REM ./C.cell (12c818d87b63d06a65506943cc24bca4)
REM
REM compiler GCC version 9.2.1 20190827 (Red Hat 9.2.1-1)
REM options -cpp -mtune=generic -march=x86-64 -g -O0 -fpre-include=/usr/include/finclude/math-vector-fortran.h
REM seed 1232251192 -161981716 995865799 396323244 2043186453 1099448749 140526612 2009443484 1083958571 -1005667577 1815315788 316145411 -1712278701 -1871468426 -665318298 -960600117 -517789930 1407416896 923370027 -1404324941 279700174 -646380386 333857930 -985600122 -167575463 -1314034213 -575589688 1939332646 455038091 1957521570 -1138984321 -616152853 1446375226
REM
CELL 1.54180   50.00000   50.00000   50.00000   90.00000   90.00000   90.00000
LATT -1
SFAC C  
C      1  0.4666740000000  0.4350070000000  0.4752090000000 1.0
C      1  0.5061360000000  0.4849350000000  0.5213660000000 1.0
C      1  0.5252260000000  0.5155710000000  0.5003920000000 1.0
C      1  0.5302900000000  0.4413620000000  0.5219630000000 1.0
C      1  0.4284210000000  0.4896640000000  0.4978260000000 1.0
C      1  0.4871710000000  0.4600820000000  0.4794290000000 1.0
C      1  0.4910020000000  0.5046680000000  0.4378000000000 1.0
C      1  0.5250600000000  0.4651540000000  0.5362650000000 1.0
C      1  0.4836380000000  0.4379540000000  0.5044990000000 1.0
C      1  0.5152070000000  0.4634340000000  0.4511440000000 1.0
C      1  0.4924340000000  0.4934740000000  0.5713760000000 1.0
C      1  0.5581180000000  0.5257210000000  0.4752330000000 1.0
C      1  0.5403050000000  0.5207910000000  0.5485600000000 1.0
C      1  0.5144600000000  0.5317110000000  0.5663420000000 1.0
C      1  0.4790220000000  0.5350630000000  0.4992340000000 1.0
C      1  0.4623620000000  0.4816180000000  0.5607270000000 1.0
C      1  0.4971460000000  0.5568890000000  0.4963400000000 1.0
C      1  0.4927150000000  0.5698720000000  0.4713010000000 1.0
C      1  0.4606020000000  0.4897360000000  0.4429330000000 1.0
C      1  0.5419130000000  0.4738280000000  0.4789440000000 1.0
C      1  0.5418340000000  0.5014640000000  0.5231920000000 1.0
C      1  0.5552530000000  0.5556560000000  0.4322820000000 1.0
C      1  0.5644140000000  0.5425970000000  0.4540710000000 1.0
C      1  0.5146000000000  0.4911300000000  0.4502690000000 1.0
C      1  0.4576670000000  0.5283390000000  0.5522820000000 1.0
C      1  0.5104410000000  0.4799140000000  0.4903730000000 1.0
C      1  0.5148740000000  0.4352900000000  0.4987600000000 1.0
C      1  0.4754630000000  0.4887120000000  0.4735380000000 1.0
C      1  0.4814360000000  0.4429450000000  0.5564040000000 1.0
C      1  0.5234130000000  0.4696420000000  0.5642420000000 1.0
C      1  0.4519610000000  0.5227250000000  0.4638000000000 1.0
C      1  0.5054150000000  0.5609900000000  0.4254050000000 1.0
C      1  0.5266320000000  0.5005740000000  0.5725910000000 1.0
C      1  0.5022960000000  0.5083070000000  0.5421410000000 1.0
C      1  0.4372360000000  0.5147070000000  0.5095800000000 1.0
C      1  0.4393690000000  0.4715350000000  0.5447810000000 1.0
C      1  0.4739650000000  0.4835040000000  0.5288240000000 1.0
C      1  0.5481430000000  0.5404070000000  0.5217040000000 1.0
C      1  0.4963370000000  0.4596280000000  0.5740890000000 1.0
C      1  0.4880630000000  0.5552310000000  0.4469410000000 1.0
C      1  0.4736450000000  0.4881860000000  0.4134970000000 1.0
C      1  0.5232030000000  0.5490350000000  0.5059550000000 1.0
C      1  0.5319640000000  0.5622020000000  0.4201260000000 1.0
C      1  0.5344230000000  0.5049680000000  0.4704990000000 1.0
C      1  0.5665130000000  0.5254810000000  0.5032100000000 1.0
C      1  0.4746680000000  0.5297980000000  0.4483660000000 1.0
C      1  0.4515950000000  0.5323540000000  0.4915840000000 1.0
C      1  0.5242850000000  0.4460880000000  0.4744420000000 1.0
C      1  0.4835760000000  0.5320780000000  0.5573500000000 1.0
C      1  0.4278710000000  0.4705150000000  0.5193740000000 1.0
C      1  0.4758630000000  0.4509520000000  0.5306380000000 1.0
C      1  0.5699450000000  0.4954070000000  0.5129530000000 1.0
C      1  0.4934990000000  0.5094020000000  0.4924290000000 1.0
C      1  0.4415350000000  0.4911040000000  0.4703540000000 1.0
C      1  0.5687980000000  0.4740600000000  0.4939050000000 1.0
C      1  0.4519010000000  0.5085400000000  0.5331690000000 1.0
END
