TITL C-2782227-3064-1418 0.00188123630618737 125000 -1057.99605234103 0 0 178 (C1) n - 1
REM
REM in /home/nfs/bkarasulu/CARBON/AIRSS/Generating-Clusters/REBO/Higher-Symm/SD-CG/HFTN-CG
REM
REM
REM
REM
REM
REM ./C.cell (12c818d87b63d06a65506943cc24bca4)
REM
REM compiler GCC version 9.2.1 20190827 (Red Hat 9.2.1-1)
REM options -cpp -mtune=generic -march=x86-64 -g -O0 -fpre-include=/usr/include/finclude/math-vector-fortran.h
REM seed 967678870 -708605236 1554431541 -393181998 -938769172 890372912 -103230790 -1504649812 -719505510 1935815277 1870183822 -1198667878 319560416 1022256067 141488831 1195095975 353396607 683385183 -2069212031 374290951 1214159559 -1050950102 830343497 -223175697 -537677417 1853441447 -80703998 -154590171 1218937803 416362764 -1393491057 -1499569062 968050075
REM
CELL 1.54180   50.00000   50.00000   50.00000   90.00000   90.00000   90.00000
LATT -1
SFAC C  
C      1  0.5153810000000  0.4794070000000  0.4541390000000 1.0
C      1  0.4849450000000  0.5221910000000  0.4572280000000 1.0
C      1  0.5474120000000  0.4376340000000  0.4957740000000 1.0
C      1  0.4497140000000  0.5659450000000  0.5010800000000 1.0
C      1  0.5434790000000  0.4303830000000  0.4125600000000 1.0
C      1  0.4507770000000  0.5595730000000  0.4095710000000 1.0
C      1  0.4515920000000  0.4770730000000  0.4571610000000 1.0
C      1  0.5525290000000  0.5267060000000  0.4499680000000 1.0
C      1  0.4562390000000  0.5479040000000  0.5199050000000 1.0
C      1  0.5573220000000  0.4672450000000  0.5031520000000 1.0
C      1  0.4248430000000  0.5504010000000  0.5483530000000 1.0
C      1  0.5772070000000  0.4476810000000  0.5201960000000 1.0
C      1  0.5437220000000  0.4841770000000  0.5232060000000 1.0
C      1  0.4466420000000  0.5292460000000  0.5458460000000 1.0
C      1  0.4904810000000  0.5755900000000  0.4770590000000 1.0
C      1  0.5058780000000  0.4227960000000  0.4724930000000 1.0
C      1  0.4717790000000  0.4000760000000  0.4643480000000 1.0
C      1  0.5177720000000  0.6149030000000  0.4722080000000 1.0
C      1  0.4819000000000  0.5767880000000  0.5859090000000 1.0
C      1  0.5143090000000  0.4218820000000  0.5796170000000 1.0
C      1  0.4719340000000  0.5159770000000  0.3988510000000 1.0
C      1  0.5360610000000  0.4778980000000  0.4019420000000 1.0
C      1  0.6009110000000  0.4763770000000  0.5060150000000 1.0
C      1  0.3950730000000  0.5319880000000  0.5173980000000 1.0
C      1  0.4393850000000  0.4318290000000  0.5058890000000 1.0
C      1  0.5675460000000  0.5719410000000  0.4989820000000 1.0
C      1  0.3935500000000  0.5397750000000  0.5491060000000 1.0
C      1  0.6026710000000  0.4644610000000  0.5352390000000 1.0
C      1  0.5228990000000  0.4451300000000  0.5933440000000 1.0
C      1  0.4801270000000  0.5578160000000  0.6063660000000 1.0
C      1  0.5538410000000  0.5241700000000  0.5100430000000 1.0
C      1  0.4461620000000  0.4786810000000  0.5087030000000 1.0
C      1  0.4953810000000  0.4103810000000  0.4972130000000 1.0
C      1  0.4967510000000  0.5893760000000  0.5033510000000 1.0
C      1  0.5867000000000  0.4257760000000  0.4969640000000 1.0
C      1  0.4047180000000  0.5644050000000  0.4830900000000 1.0
C      1  0.4714990000000  0.4828040000000  0.4928970000000 1.0
C      1  0.5245690000000  0.5162610000000  0.4996270000000 1.0
C      1  0.4289500000000  0.5398150000000  0.4144660000000 1.0
C      1  0.5719300000000  0.4401680000000  0.4196040000000 1.0
C      1  0.5436480000000  0.3916190000000  0.5112890000000 1.0
C      1  0.4430760000000  0.6013020000000  0.5182670000000 1.0
C      1  0.5334010000000  0.4993330000000  0.4247990000000 1.0
C      1  0.4674800000000  0.4963090000000  0.4187180000000 1.0
C      1  0.5488410000000  0.4547300000000  0.5847080000000 1.0
C      1  0.4492860000000  0.5460520000000  0.6072260000000 1.0
C      1  0.4718690000000  0.5471930000000  0.4486650000000 1.0
C      1  0.5294470000000  0.4499910000000  0.4498680000000 1.0
C      1  0.5055460000000  0.5500930000000  0.4769960000000 1.0
C      1  0.4921510000000  0.4493840000000  0.4701930000000 1.0
C      1  0.6119500000000  0.4861650000000  0.5562590000000 1.0
C      1  0.3993530000000  0.5077160000000  0.5484100000000 1.0
C      1  0.6074010000000  0.5293870000000  0.5063280000000 1.0
C      1  0.3962550000000  0.4688000000000  0.5068130000000 1.0
C      1  0.5028960000000  0.5966820000000  0.4570500000000 1.0
C      1  0.5018620000000  0.4024890000000  0.4486510000000 1.0
C      1  0.4559670000000  0.5786680000000  0.4303150000000 1.0
C      1  0.5339020000000  0.4115950000000  0.4396270000000 1.0
C      1  0.4995180000000  0.5476290000000  0.5297840000000 1.0
C      1  0.4948110000000  0.4528580000000  0.5229970000000 1.0
C      1  0.5607780000000  0.5543400000000  0.5196580000000 1.0
C      1  0.4382570000000  0.4554450000000  0.5218480000000 1.0
C      1  0.4191630000000  0.5105070000000  0.5194450000000 1.0
C      1  0.5830310000000  0.4978860000000  0.5034110000000 1.0
C      1  0.5710570000000  0.5456620000000  0.5477300000000 1.0
C      1  0.4276230000000  0.4604540000000  0.5497610000000 1.0
C      1  0.5076720000000  0.5316450000000  0.4061370000000 1.0
C      1  0.4986180000000  0.4641220000000  0.4010270000000 1.0
C      1  0.4433930000000  0.5761770000000  0.4554930000000 1.0
C      1  0.5589320000000  0.4327880000000  0.4488710000000 1.0
C      1  0.5619180000000  0.5356820000000  0.5723110000000 1.0
C      1  0.4387070000000  0.4664880000000  0.5750570000000 1.0
C      1  0.6036110000000  0.5314900000000  0.4818540000000 1.0
C      1  0.4032670000000  0.4660990000000  0.4833880000000 1.0
C      1  0.5170120000000  0.4684260000000  0.5371730000000 1.0
C      1  0.4796360000000  0.5291210000000  0.5462410000000 1.0
C      1  0.5586560000000  0.5027100000000  0.4852880000000 1.0
C      1  0.4478300000000  0.5125060000000  0.5039370000000 1.0
C      1  0.5879250000000  0.5246630000000  0.4314600000000 1.0
C      1  0.4238750000000  0.4597020000000  0.4343570000000 1.0
C      1  0.5275450000000  0.4503890000000  0.4022330000000 1.0
C      1  0.4780540000000  0.5477960000000  0.4006940000000 1.0
C      1  0.5410900000000  0.5428100000000  0.5888640000000 1.0
C      1  0.4623810000000  0.4590760000000  0.5884670000000 1.0
C      1  0.4191850000000  0.5589520000000  0.4597500000000 1.0
C      1  0.5775180000000  0.4434470000000  0.4701860000000 1.0
C      1  0.5294770000000  0.4908980000000  0.6151730000000 1.0
C      1  0.4697070000000  0.5239420000000  0.6242140000000 1.0
C      1  0.4506520000000  0.4474890000000  0.4075290000000 1.0
C      1  0.5548320000000  0.5436180000000  0.4202000000000 1.0
C      1  0.5662720000000  0.5044900000000  0.5722170000000 1.0
C      1  0.4343150000000  0.4967100000000  0.5811840000000 1.0
C      1  0.5036240000000  0.4747000000000  0.5658810000000 1.0
C      1  0.4946580000000  0.5267050000000  0.5748990000000 1.0
C      1  0.5083070000000  0.4304850000000  0.4315570000000 1.0
C      1  0.4870690000000  0.5756520000000  0.4372230000000 1.0
C      1  0.4432370000000  0.5045360000000  0.4413720000000 1.0
C      1  0.5565320000000  0.4928840000000  0.4484010000000 1.0
C      1  0.4426350000000  0.4310640000000  0.4316770000000 1.0
C      1  0.5832690000000  0.5579900000000  0.4260190000000 1.0
C      1  0.4976180000000  0.4243420000000  0.4048150000000 1.0
C      1  0.5008720000000  0.5704470000000  0.4104420000000 1.0
C      1  0.4091550000000  0.4810230000000  0.5317460000000 1.0
C      1  0.5836500000000  0.5225800000000  0.5266890000000 1.0
C      1  0.4853290000000  0.4484640000000  0.5731060000000 1.0
C      1  0.5138180000000  0.5534610000000  0.5810240000000 1.0
C      1  0.4411780000000  0.5378010000000  0.4446910000000 1.0
C      1  0.5529700000000  0.4666910000000  0.4689350000000 1.0
C      1  0.4709430000000  0.5042760000000  0.5266060000000 1.0
C      1  0.5165700000000  0.5005900000000  0.5351790000000 1.0
C      1  0.5089580000000  0.4658890000000  0.6085400000000 1.0
C      1  0.4996030000000  0.5365970000000  0.6170540000000 1.0
C      1  0.5163360000000  0.6107690000000  0.5015250000000 1.0
C      1  0.4715550000000  0.3936620000000  0.4949630000000 1.0
C      1  0.4782500000000  0.4755550000000  0.5429900000000 1.0
C      1  0.5190230000000  0.5287110000000  0.5506420000000 1.0
C      1  0.5671690000000  0.4430080000000  0.5673600000000 1.0
C      1  0.4367300000000  0.5631470000000  0.5843560000000 1.0
C      1  0.5872290000000  0.4624390000000  0.4176680000000 1.0
C      1  0.4116620000000  0.5192970000000  0.4092590000000 1.0
C      1  0.5837710000000  0.4909400000000  0.4283050000000 1.0
C      1  0.4164490000000  0.4916060000000  0.4243480000000 1.0
C      1  0.4612150000000  0.5732710000000  0.4770090000000 1.0
C      1  0.5351330000000  0.4241340000000  0.4798060000000 1.0
C      1  0.4485260000000  0.5130640000000  0.6003220000000 1.0
C      1  0.5498060000000  0.4853540000000  0.5887590000000 1.0
C      1  0.4626810000000  0.5842000000000  0.5403220000000 1.0
C      1  0.5303210000000  0.4148750000000  0.5317200000000 1.0
C      1  0.5815060000000  0.5393630000000  0.4613460000000 1.0
C      1  0.4271090000000  0.4581480000000  0.4666430000000 1.0
C      1  0.5218490000000  0.5216870000000  0.6037540000000 1.0
C      1  0.4836600000000  0.4766360000000  0.6013220000000 1.0
C      1  0.4840200000000  0.4167860000000  0.5704980000000 1.0
C      1  0.5108830000000  0.5853260000000  0.5761800000000 1.0
C      1  0.4911110000000  0.5773080000000  0.5307730000000 1.0
C      1  0.5017300000000  0.4228710000000  0.5240910000000 1.0
C      1  0.4677100000000  0.4031790000000  0.5887140000000 1.0
C      1  0.5255350000000  0.6017560000000  0.5935030000000 1.0
C      1  0.5308730000000  0.5539520000000  0.4078710000000 1.0
C      1  0.4752840000000  0.4444390000000  0.3922490000000 1.0
C      1  0.4506770000000  0.4179220000000  0.4559770000000 1.0
C      1  0.5851570000000  0.5768280000000  0.4454760000000 1.0
C      1  0.5244690000000  0.6121190000000  0.5299520000000 1.0
C      1  0.4647870000000  0.3923070000000  0.5240640000000 1.0
C      1  0.4860210000000  0.4164840000000  0.3760330000000 1.0
C      1  0.5254780000000  0.5825750000000  0.3935170000000 1.0
C      1  0.5096140000000  0.5109060000000  0.3834670000000 1.0
C      1  0.5031330000000  0.4872500000000  0.3805730000000 1.0
C      1  0.4715140000000  0.5098400000000  0.4788460000000 1.0
C      1  0.5268160000000  0.4961210000000  0.4749380000000 1.0
C      1  0.4579780000000  0.5776510000000  0.5708900000000 1.0
C      1  0.5326090000000  0.4098050000000  0.5631540000000 1.0
C      1  0.3880680000000  0.5454170000000  0.4952690000000 1.0
C      1  0.6022890000000  0.4547250000000  0.4876960000000 1.0
C      1  0.4807840000000  0.4079250000000  0.5412920000000 1.0
C      1  0.5117540000000  0.5938460000000  0.5470330000000 1.0
C      1  0.4386250000000  0.4321900000000  0.4775630000000 1.0
C      1  0.5763970000000  0.5695420000000  0.4727890000000 1.0
C      1  0.5668670000000  0.4095590000000  0.5164860000000 1.0
C      1  0.4206620000000  0.5801830000000  0.5032170000000 1.0
C      1  0.4892150000000  0.4614470000000  0.4947400000000 1.0
C      1  0.5066890000000  0.5375020000000  0.5014950000000 1.0
C      1  0.5958300000000  0.4984140000000  0.5704410000000 1.0
C      1  0.4052630000000  0.5032140000000  0.5762180000000 1.0
C      1  0.4925550000000  0.4792390000000  0.4287310000000 1.0
C      1  0.5098960000000  0.5172490000000  0.4346390000000 1.0
C      1  0.4771360000000  0.4642550000000  0.4514040000000 1.0
C      1  0.5219000000000  0.5374570000000  0.4572830000000 1.0
C      1  0.5614130000000  0.5121530000000  0.4139110000000 1.0
C      1  0.4434470000000  0.4771470000000  0.4124070000000 1.0
C      1  0.5470460000000  0.5093550000000  0.5463270000000 1.0
C      1  0.4537010000000  0.4969270000000  0.5542050000000 1.0
C      1  0.4308900000000  0.5747510000000  0.5351770000000 1.0
C      1  0.5587200000000  0.4308960000000  0.5414020000000 1.0
C      1  0.4081250000000  0.5543960000000  0.5762790000000 1.0
C      1  0.5930360000000  0.4520960000000  0.5648760000000 1.0
C      1  0.4814750000000  0.5076020000000  0.5964460000000 1.0
C      1  0.5176070000000  0.4948870000000  0.5826450000000 1.0
END
