TITL C-2782237-5345-828 0.000162702524948825 125000 -73.3613811692485 0 0 19 (C3v) n - 1
REM
REM in /home/nfs/bkarasulu/CARBON/AIRSS/Generating-Clusters/REBO/Higher-Symm/SD-CG/HFTN-CG
REM
REM
REM
REM
REM
REM ./C.cell (12c818d87b63d06a65506943cc24bca4)
REM
REM compiler GCC version 9.2.1 20190827 (Red Hat 9.2.1-1)
REM options -cpp -mtune=generic -march=x86-64 -g -O0 -fpre-include=/usr/include/finclude/math-vector-fortran.h
REM seed -395859422 -1089892434 161729291 753103160 184533930 -1910430713 -767237647 -1145539838 1352846068 -926390109 1118124652 -785682210 803765757 -167669638 -579542540 25665925 -84242238 -838376593 73974706 -1486777100 2068059650 -1661545130 2135470359 1762073447 -1665347162 -1122226582 -713257732 1203597855 -1795942755 1785083525 -1274566417 -401950434 -435880294
REM
CELL 1.54180   50.00000   50.00000   50.00000   90.00000   90.00000   90.00000
LATT -1
SFAC C  
C      1  0.4884070000000  0.4654860000000  0.4396350000000 1.0
C      1  0.4884080000000  0.4654720000000  0.5579500000000 1.0
C      1  0.4880170000000  0.5681430000000  0.4988050000000 1.0
C      1  0.5184080000000  0.4655570000000  0.5564170000000 1.0
C      1  0.5184070000000  0.4655720000000  0.4411680000000 1.0
C      1  0.5179530000000  0.5656450000000  0.4988050000000 1.0
C      1  0.5097300000000  0.5334150000000  0.5583140000000 1.0
C      1  0.5097290000000  0.5334300000000  0.4392880000000 1.0
C      1  0.5105820000000  0.4301080000000  0.4987880000000 1.0
C      1  0.4798550000000  0.5325660000000  0.4423090000000 1.0
C      1  0.4798550000000  0.5325520000000  0.5552930000000 1.0
C      1  0.4807930000000  0.4339660000000  0.4987890000000 1.0
C      1  0.5003700000000  0.4811520000000  0.5302470000000 1.0
C      1  0.5019760000000  0.5356150000000  0.4988010000000 1.0
C      1  0.4995520000000  0.5174180000000  0.4675210000000 1.0
C      1  0.4981080000000  0.4632410000000  0.4987920000000 1.0
C      1  0.5003690000000  0.4811600000000  0.4673420000000 1.0
C      1  0.4995520000000  0.5174100000000  0.5300770000000 1.0
C      1  0.5039180000000  0.4992210000000  0.4987970000000 1.0
END
