TITL C-2782240-8521-1211 0.000208734846896507 125000 -264.608968327192 0 0 48 (C1) n - 1
REM
REM in /home/nfs/bkarasulu/CARBON/AIRSS/Generating-Clusters/REBO/Higher-Symm/SD-CG/HFTN-CG
REM
REM
REM
REM
REM
REM ./C.cell (12c818d87b63d06a65506943cc24bca4)
REM
REM compiler GCC version 9.2.1 20190827 (Red Hat 9.2.1-1)
REM options -cpp -mtune=generic -march=x86-64 -g -O0 -fpre-include=/usr/include/finclude/math-vector-fortran.h
REM seed 1538834859 205044006 -1968447719 -1930305359 -1092684662 -840086067 1330235280 -518110772 -874364700 1596426700 -349862717 1596791823 -683545311 -1683652518 362853200 48131059 -2119263875 -1568144163 -66685708 -763953880 -238265882 -1756019108 -1087372541 1644528523 1821840718 -980322870 -251140463 -14327854 1988631878 654957628 404773034 -997124556 -1980592982
REM
CELL 1.54180   50.00000   50.00000   50.00000   90.00000   90.00000   90.00000
LATT -1
SFAC C  
C      1  0.4967490000000  0.5427640000000  0.5495660000000 1.0
C      1  0.4595450000000  0.5132530000000  0.5515660000000 1.0
C      1  0.4815540000000  0.4695910000000  0.5539960000000 1.0
C      1  0.5317660000000  0.4629570000000  0.5402890000000 1.0
C      1  0.5344030000000  0.5102590000000  0.5534800000000 1.0
C      1  0.4977610000000  0.5399320000000  0.4557010000000 1.0
C      1  0.4603630000000  0.5112390000000  0.4497160000000 1.0
C      1  0.4807610000000  0.4657940000000  0.4507190000000 1.0
C      1  0.5284610000000  0.4645050000000  0.4491680000000 1.0
C      1  0.5381040000000  0.5124070000000  0.4523460000000 1.0
C      1  0.5452810000000  0.4851770000000  0.4582950000000 1.0
C      1  0.5247210000000  0.5348950000000  0.4640330000000 1.0
C      1  0.4703140000000  0.5357350000000  0.4609160000000 1.0
C      1  0.4591150000000  0.4838000000000  0.4568070000000 1.0
C      1  0.5046480000000  0.4533620000000  0.4598270000000 1.0
C      1  0.5453970000000  0.4873580000000  0.5401360000000 1.0
C      1  0.5236560000000  0.5355140000000  0.5459290000000 1.0
C      1  0.4703090000000  0.5376180000000  0.5412260000000 1.0
C      1  0.4606540000000  0.4860110000000  0.5443090000000 1.0
C      1  0.5029530000000  0.4547590000000  0.5433400000000 1.0
C      1  0.4492830000000  0.4803980000000  0.5148140000000 1.0
C      1  0.4962750000000  0.4339520000000  0.5177780000000 1.0
C      1  0.5607200000000  0.4940760000000  0.5168100000000 1.0
C      1  0.5375750000000  0.5481390000000  0.5206090000000 1.0
C      1  0.4561550000000  0.5478120000000  0.5178470000000 1.0
C      1  0.4421650000000  0.4768650000000  0.4813380000000 1.0
C      1  0.5105390000000  0.4372680000000  0.4870630000000 1.0
C      1  0.5617770000000  0.4774770000000  0.4871020000000 1.0
C      1  0.5302720000000  0.5514850000000  0.4871390000000 1.0
C      1  0.4536010000000  0.5446770000000  0.4839870000000 1.0
C      1  0.5292190000000  0.4418720000000  0.5162730000000 1.0
C      1  0.5530590000000  0.5260260000000  0.5079100000000 1.0
C      1  0.5092450000000  0.5639390000000  0.5181660000000 1.0
C      1  0.4290230000000  0.5324020000000  0.5128040000000 1.0
C      1  0.4718990000000  0.4549910000000  0.5181550000000 1.0
C      1  0.5401120000000  0.4542970000000  0.4877590000000 1.0
C      1  0.5648120000000  0.5104560000000  0.4817230000000 1.0
C      1  0.5060330000000  0.5742540000000  0.4871380000000 1.0
C      1  0.4281580000000  0.5233810000000  0.4818500000000 1.0
C      1  0.4652780000000  0.4576360000000  0.4864240000000 1.0
C      1  0.4930660000000  0.4719240000000  0.4964730000000 1.0
C      1  0.5324310000000  0.5043050000000  0.4909530000000 1.0
C      1  0.5191030000000  0.4797630000000  0.4907470000000 1.0
C      1  0.4905480000000  0.5461450000000  0.4983750000000 1.0
C      1  0.4522590000000  0.5093080000000  0.5021530000000 1.0
C      1  0.4919760000000  0.5046750000000  0.4736700000000 1.0
C      1  0.4963770000000  0.5042460000000  0.5207470000000 1.0
C      1  0.4827930000000  0.5164120000000  0.4982880000000 1.0
END
