TITL C-2782236-320-697 -0.00312143495171447 125000 -712.96792778629 0 0 124 (C1) n - 1
REM
REM in /home/nfs/bkarasulu/CARBON/AIRSS/Generating-Clusters/REBO/Higher-Symm/SD-CG/HFTN-CG
REM
REM
REM
REM
REM
REM ./C.cell (12c818d87b63d06a65506943cc24bca4)
REM
REM compiler GCC version 9.2.1 20190827 (Red Hat 9.2.1-1)
REM options -cpp -mtune=generic -march=x86-64 -g -O0 -fpre-include=/usr/include/finclude/math-vector-fortran.h
REM seed -1259869887 -131869489 885987425 1773350502 -2005858356 884298719 23490045 -1459778094 1153985658 -1893737863 45774080 269892866 473492572 -419254029 -1072968243 862272124 -1278985190 -1601072495 -1344779042 1992662784 1462869396 1261781692 888651151 490634934 1073646575 -1131776309 1279102272 -1573034194 187488550 -110762016 -431657431 -1334841621 2015722437
REM
CELL 1.54180   50.00000   50.00000   50.00000   90.00000   90.00000   90.00000
LATT -1
SFAC C  
C      1  0.5103070000000  0.5287770000000  0.5498640000000 1.0
C      1  0.5363150000000  0.4699350000000  0.5834400000000 1.0
C      1  0.5586290000000  0.5101030000000  0.5580940000000 1.0
C      1  0.5684160000000  0.5046590000000  0.4564120000000 1.0
C      1  0.4215780000000  0.4731820000000  0.4661980000000 1.0
C      1  0.4824450000000  0.4374910000000  0.4772710000000 1.0
C      1  0.4582380000000  0.5033800000000  0.4189220000000 1.0
C      1  0.4794380000000  0.5387850000000  0.4524390000000 1.0
C      1  0.4311730000000  0.4537850000000  0.5297660000000 1.0
C      1  0.4628940000000  0.5343760000000  0.5180000000000 1.0
C      1  0.4444290000000  0.4836110000000  0.5405440000000 1.0
C      1  0.5635610000000  0.4869200000000  0.5029220000000 1.0
C      1  0.5591060000000  0.4382360000000  0.4754630000000 1.0
C      1  0.4519560000000  0.5586890000000  0.4496660000000 1.0
C      1  0.4504480000000  0.4341350000000  0.4830660000000 1.0
C      1  0.5331790000000  0.5326840000000  0.4820890000000 1.0
C      1  0.5424850000000  0.5734890000000  0.5066380000000 1.0
C      1  0.4979040000000  0.5638030000000  0.5732870000000 1.0
C      1  0.4376820000000  0.4614090000000  0.4910640000000 1.0
C      1  0.5100100000000  0.4756500000000  0.5001150000000 1.0
C      1  0.4732640000000  0.5928560000000  0.4749920000000 1.0
C      1  0.5729500000000  0.4678510000000  0.4366200000000 1.0
C      1  0.5224740000000  0.5581950000000  0.4328430000000 1.0
C      1  0.4964880000000  0.4057350000000  0.4967220000000 1.0
C      1  0.4614210000000  0.5648440000000  0.5028380000000 1.0
C      1  0.5323990000000  0.4394440000000  0.4353210000000 1.0
C      1  0.4378630000000  0.4845890000000  0.4392440000000 1.0
C      1  0.5623960000000  0.5862370000000  0.5178730000000 1.0
C      1  0.5221340000000  0.5433210000000  0.5777680000000 1.0
C      1  0.6011010000000  0.4861090000000  0.4894710000000 1.0
C      1  0.4330880000000  0.5382310000000  0.4367480000000 1.0
C      1  0.4542580000000  0.4796990000000  0.5685420000000 1.0
C      1  0.5383950000000  0.4185540000000  0.5313270000000 1.0
C      1  0.4704040000000  0.4923750000000  0.4604600000000 1.0
C      1  0.5426460000000  0.4942760000000  0.5245030000000 1.0
C      1  0.5228600000000  0.4573250000000  0.4161580000000 1.0
C      1  0.5474710000000  0.4886200000000  0.4269140000000 1.0
C      1  0.5028800000000  0.5466450000000  0.5242170000000 1.0
C      1  0.5400690000000  0.4766190000000  0.4566050000000 1.0
C      1  0.5619460000000  0.4540480000000  0.5117820000000 1.0
C      1  0.4937170000000  0.5908380000000  0.5289690000000 1.0
C      1  0.4153540000000  0.4780900000000  0.5143020000000 1.0
C      1  0.4845470000000  0.4449300000000  0.4460510000000 1.0
C      1  0.5236670000000  0.5558510000000  0.4663590000000 1.0
C      1  0.5327040000000  0.5441950000000  0.5121470000000 1.0
C      1  0.5992130000000  0.4827930000000  0.5204110000000 1.0
C      1  0.4369860000000  0.4222360000000  0.4611620000000 1.0
C      1  0.4618740000000  0.4981190000000  0.5866390000000 1.0
C      1  0.4590310000000  0.4750130000000  0.5109310000000 1.0
C      1  0.5385720000000  0.4964900000000  0.5786710000000 1.0
C      1  0.4516240000000  0.4157300000000  0.5079620000000 1.0
C      1  0.4649950000000  0.4524880000000  0.5729810000000 1.0
C      1  0.5815130000000  0.4936190000000  0.5474120000000 1.0
C      1  0.4349060000000  0.5061760000000  0.5163020000000 1.0
C      1  0.5097090000000  0.4191990000000  0.5315550000000 1.0
C      1  0.4459400000000  0.5735310000000  0.4764330000000 1.0
C      1  0.5532810000000  0.5460780000000  0.4364480000000 1.0
C      1  0.5491200000000  0.5429170000000  0.5594220000000 1.0
C      1  0.5851250000000  0.5127890000000  0.4983840000000 1.0
C      1  0.4808670000000  0.4869320000000  0.4909090000000 1.0
C      1  0.4646130000000  0.5847070000000  0.5373640000000 1.0
C      1  0.5733590000000  0.5541660000000  0.4581280000000 1.0
C      1  0.4714390000000  0.5181330000000  0.5440140000000 1.0
C      1  0.4909530000000  0.5542250000000  0.4977820000000 1.0
C      1  0.4741710000000  0.5717910000000  0.4312770000000 1.0
C      1  0.5141580000000  0.5087400000000  0.4919790000000 1.0
C      1  0.5853190000000  0.5406000000000  0.4862570000000 1.0
C      1  0.5116880000000  0.4312460000000  0.4559880000000 1.0
C      1  0.3992270000000  0.4874280000000  0.4748200000000 1.0
C      1  0.4813500000000  0.5568300000000  0.5457620000000 1.0
C      1  0.5229160000000  0.5836620000000  0.4847280000000 1.0
C      1  0.5351220000000  0.4679780000000  0.5379630000000 1.0
C      1  0.4934470000000  0.5315910000000  0.4778330000000 1.0
C      1  0.5126540000000  0.5813510000000  0.5488420000000 1.0
C      1  0.5119120000000  0.5135050000000  0.5865080000000 1.0
C      1  0.4944140000000  0.5465410000000  0.4226550000000 1.0
C      1  0.4618950000000  0.4272410000000  0.5545970000000 1.0
C      1  0.4890990000000  0.4145480000000  0.5523590000000 1.0
C      1  0.4190920000000  0.5155600000000  0.5518110000000 1.0
C      1  0.5114530000000  0.5070470000000  0.5244770000000 1.0
C      1  0.5457810000000  0.5262790000000  0.5316150000000 1.0
C      1  0.4345130000000  0.5154900000000  0.4769890000000 1.0
C      1  0.4228030000000  0.5582030000000  0.4960920000000 1.0
C      1  0.4449820000000  0.4296430000000  0.5319910000000 1.0
C      1  0.4448780000000  0.5354970000000  0.5535990000000 1.0
C      1  0.4057470000000  0.4965660000000  0.5414750000000 1.0
C      1  0.5395140000000  0.5197290000000  0.4334380000000 1.0
C      1  0.4339920000000  0.5141140000000  0.4488560000000 1.0
C      1  0.5241480000000  0.4199380000000  0.4833350000000 1.0
C      1  0.4653250000000  0.4696200000000  0.4388500000000 1.0
C      1  0.4988510000000  0.4975870000000  0.4568660000000 1.0
C      1  0.4913780000000  0.4654250000000  0.4199940000000 1.0
C      1  0.5134540000000  0.5194760000000  0.4440920000000 1.0
C      1  0.5394260000000  0.5732060000000  0.5490200000000 1.0
C      1  0.5598860000000  0.5264850000000  0.4706600000000 1.0
C      1  0.6034860000000  0.4699750000000  0.5499090000000 1.0
C      1  0.5584690000000  0.4431480000000  0.4448370000000 1.0
C      1  0.4596860000000  0.5119120000000  0.4956660000000 1.0
C      1  0.4974550000000  0.4383160000000  0.5062320000000 1.0
C      1  0.5065890000000  0.4589970000000  0.5300090000000 1.0
C      1  0.4786250000000  0.5190860000000  0.5907080000000 1.0
C      1  0.5929510000000  0.4748850000000  0.4616570000000 1.0
C      1  0.4441480000000  0.5595490000000  0.5314990000000 1.0
C      1  0.4952060000000  0.5000390000000  0.5600640000000 1.0
C      1  0.5329630000000  0.4514730000000  0.4936150000000 1.0
C      1  0.5520760000000  0.4434160000000  0.5408940000000 1.0
C      1  0.4825520000000  0.4898250000000  0.5305400000000 1.0
C      1  0.5765490000000  0.4256680000000  0.4992750000000 1.0
C      1  0.4889300000000  0.5127930000000  0.4212710000000 1.0
C      1  0.5144740000000  0.4903770000000  0.4168510000000 1.0
C      1  0.5162000000000  0.5857780000000  0.4516080000000 1.0
C      1  0.4064410000000  0.5114430000000  0.4888400000000 1.0
C      1  0.4458810000000  0.5118440000000  0.3966170000000 1.0
C      1  0.5479620000000  0.4131650000000  0.5044740000000 1.0
C      1  0.4720440000000  0.3958490000000  0.5041180000000 1.0
C      1  0.4879790000000  0.4501120000000  0.5953050000000 1.0
C      1  0.4944240000000  0.5873700000000  0.4975980000000 1.0
C      1  0.5146390000000  0.4528240000000  0.5831040000000 1.0
C      1  0.5140510000000  0.4744980000000  0.4605940000000 1.0
C      1  0.4174290000000  0.5341420000000  0.5078290000000 1.0
C      1  0.5631310000000  0.4700860000000  0.4752600000000 1.0
C      1  0.4864930000000  0.5917600000000  0.4486560000000 1.0
C      1  0.4963020000000  0.4472830000000  0.5565020000000 1.0
C      1  0.4704610000000  0.5435550000000  0.5747910000000 1.0
END
