TITL C-2782231-7322-27 0.0051307477392785 125000 -336.474563860359 0 0 57 (C1) n - 1
REM
REM in /home/nfs/bkarasulu/CARBON/AIRSS/Generating-Clusters/REBO/Higher-Symm/SD-CG/HFTN-CG
REM
REM
REM
REM
REM
REM ./C.cell (12c818d87b63d06a65506943cc24bca4)
REM
REM compiler GCC version 9.2.1 20190827 (Red Hat 9.2.1-1)
REM options -cpp -mtune=generic -march=x86-64 -g -O0 -fpre-include=/usr/include/finclude/math-vector-fortran.h
REM seed -1809753556 1355372342 1480798803 14627861 -256036572 1339377731 -1619925015 -1257865724 -1318782459 1682410081 -1544139092 114806681 2021666265 -1037334108 608019611 121343218 1281152733 95070849 1318144700 -976851755 -1532184165 -283535105 -918457078 589148343 52049319 -2123383807 -2090494103 2098932620 -894611691 1409106533 -696910454 1078260003 1133006319
REM
CELL 1.54180   50.00000   50.00000   50.00000   90.00000   90.00000   90.00000
LATT -1
SFAC C  
C      1  0.5208130000000  0.5122660000000  0.4336590000000 1.0
C      1  0.5318870000000  0.4652610000000  0.4319240000000 1.0
C      1  0.5033750000000  0.5068580000000  0.4108520000000 1.0
C      1  0.4802940000000  0.5145430000000  0.5692050000000 1.0
C      1  0.5109580000000  0.5038240000000  0.3851140000000 1.0
C      1  0.4470290000000  0.5393360000000  0.5435450000000 1.0
C      1  0.5767210000000  0.4837120000000  0.4748270000000 1.0
C      1  0.5846930000000  0.4663900000000  0.5448740000000 1.0
C      1  0.5260850000000  0.4687280000000  0.5047910000000 1.0
C      1  0.4506640000000  0.4779480000000  0.5318020000000 1.0
C      1  0.4749340000000  0.5152520000000  0.4541230000000 1.0
C      1  0.4550320000000  0.5244510000000  0.4732940000000 1.0
C      1  0.5172550000000  0.5384170000000  0.4789800000000 1.0
C      1  0.4834380000000  0.4184460000000  0.5003870000000 1.0
C      1  0.5136160000000  0.5205420000000  0.5262990000000 1.0
C      1  0.4772030000000  0.5039350000000  0.4219130000000 1.0
C      1  0.5198970000000  0.5160220000000  0.4990310000000 1.0
C      1  0.5354610000000  0.4794410000000  0.5498420000000 1.0
C      1  0.5034610000000  0.5207360000000  0.5846450000000 1.0
C      1  0.5223010000000  0.5870390000000  0.4821180000000 1.0
C      1  0.5930550000000  0.4752650000000  0.4946010000000 1.0
C      1  0.4324660000000  0.5075310000000  0.4924020000000 1.0
C      1  0.5315210000000  0.4920750000000  0.4900270000000 1.0
C      1  0.4299760000000  0.4985270000000  0.5213040000000 1.0
C      1  0.4598730000000  0.4940760000000  0.5603330000000 1.0
C      1  0.5351930000000  0.5597490000000  0.5658880000000 1.0
C      1  0.4888470000000  0.5620870000000  0.5126790000000 1.0
C      1  0.4921080000000  0.4392610000000  0.4558280000000 1.0
C      1  0.4256290000000  0.4814240000000  0.4791120000000 1.0
C      1  0.5515920000000  0.5515950000000  0.5436710000000 1.0
C      1  0.5057290000000  0.5254080000000  0.4543680000000 1.0
C      1  0.5505140000000  0.5605310000000  0.5166010000000 1.0
C      1  0.5204670000000  0.4625910000000  0.5318570000000 1.0
C      1  0.4392240000000  0.5527620000000  0.5196890000000 1.0
C      1  0.4773270000000  0.4386130000000  0.5191990000000 1.0
C      1  0.4926910000000  0.4185740000000  0.4747800000000 1.0
C      1  0.4414730000000  0.4348540000000  0.4619000000000 1.0
C      1  0.4369830000000  0.5121370000000  0.5469220000000 1.0
C      1  0.5504920000000  0.4913670000000  0.4680070000000 1.0
C      1  0.4379430000000  0.5406130000000  0.4946090000000 1.0
C      1  0.4945110000000  0.5420740000000  0.5318820000000 1.0
C      1  0.4572300000000  0.4576220000000  0.5132340000000 1.0
C      1  0.5202490000000  0.5423820000000  0.5813480000000 1.0
C      1  0.4701300000000  0.4828810000000  0.4448570000000 1.0
C      1  0.5130850000000  0.4472090000000  0.4393500000000 1.0
C      1  0.4980040000000  0.4464420000000  0.5369000000000 1.0
C      1  0.5963350000000  0.4686550000000  0.5205630000000 1.0
C      1  0.5388610000000  0.4911130000000  0.4415060000000 1.0
C      1  0.4462310000000  0.4595320000000  0.4845210000000 1.0
C      1  0.4041490000000  0.4776630000000  0.4643150000000 1.0
C      1  0.4673610000000  0.4567380000000  0.4579380000000 1.0
C      1  0.5397960000000  0.5615840000000  0.4903430000000 1.0
C      1  0.4747500000000  0.5376420000000  0.5517280000000 1.0
C      1  0.5005600000000  0.5651750000000  0.4874700000000 1.0
C      1  0.5329600000000  0.5074520000000  0.5444190000000 1.0
C      1  0.5565050000000  0.5235350000000  0.5468230000000 1.0
C      1  0.5610650000000  0.4701140000000  0.5577990000000 1.0
END
