TITL C-2782234-8014-1440 -0.00506758562262349 125000 -863.457360402434 0 0 151 (C1) n - 1
REM
REM in /home/nfs/bkarasulu/CARBON/AIRSS/Generating-Clusters/REBO/Higher-Symm/SD-CG/HFTN-CG
REM
REM
REM
REM
REM
REM ./C.cell (12c818d87b63d06a65506943cc24bca4)
REM
REM compiler GCC version 9.2.1 20190827 (Red Hat 9.2.1-1)
REM options -cpp -mtune=generic -march=x86-64 -g -O0 -fpre-include=/usr/include/finclude/math-vector-fortran.h
REM seed -644473849 362089596 -621770647 340142694 1966254038 -1668939839 -143479479 -1468612754 583691439 1001674346 622301452 -819783505 1622305715 -1264413769 1146690275 492554607 -1145898749 -1393849337 -869326675 1547019381 -2013728324 1041448440 -438154030 951047308 -1156852236 -1096852552 1249863903 -105727357 -675045498 -770154552 -1378089437 1660062024 408774186
REM
CELL 1.54180   50.00000   50.00000   50.00000   90.00000   90.00000   90.00000
LATT -1
SFAC C  
C      1  0.4166880000000  0.4826860000000  0.5437350000000 1.0
C      1  0.4141130000000  0.4440720000000  0.4958330000000 1.0
C      1  0.4216780000000  0.4861690000000  0.4508320000000 1.0
C      1  0.4146350000000  0.5471550000000  0.4666230000000 1.0
C      1  0.4168910000000  0.5369150000000  0.5215100000000 1.0
C      1  0.4522060000000  0.5373840000000  0.4786990000000 1.0
C      1  0.4556870000000  0.5163200000000  0.5302240000000 1.0
C      1  0.4561690000000  0.4717040000000  0.5284780000000 1.0
C      1  0.4572280000000  0.4556400000000  0.4921880000000 1.0
C      1  0.4774920000000  0.5005900000000  0.4531460000000 1.0
C      1  0.4932400000000  0.5487480000000  0.5769120000000 1.0
C      1  0.5006700000000  0.4328920000000  0.5767570000000 1.0
C      1  0.5018850000000  0.4125780000000  0.4658240000000 1.0
C      1  0.5159650000000  0.5161840000000  0.3952810000000 1.0
C      1  0.5095150000000  0.5911720000000  0.4709150000000 1.0
C      1  0.5828050000000  0.6137960000000  0.4629400000000 1.0
C      1  0.5151680000000  0.5944330000000  0.5598280000000 1.0
C      1  0.5394740000000  0.4793860000000  0.6153800000000 1.0
C      1  0.5712770000000  0.3807500000000  0.4849620000000 1.0
C      1  0.5447090000000  0.4577330000000  0.3912290000000 1.0
C      1  0.4244820000000  0.4795990000000  0.5758290000000 1.0
C      1  0.4253510000000  0.4152810000000  0.5010340000000 1.0
C      1  0.4357250000000  0.4703820000000  0.4267100000000 1.0
C      1  0.4285600000000  0.5639260000000  0.4412370000000 1.0
C      1  0.4217790000000  0.5599510000000  0.5387020000000 1.0
C      1  0.5811880000000  0.4784430000000  0.4650640000000 1.0
C      1  0.5831880000000  0.5411590000000  0.4757860000000 1.0
C      1  0.5745890000000  0.5356610000000  0.5340090000000 1.0
C      1  0.5686340000000  0.4794590000000  0.5665710000000 1.0
C      1  0.5662300000000  0.4333020000000  0.5195980000000 1.0
C      1  0.5264930000000  0.4163620000000  0.5561030000000 1.0
C      1  0.5265710000000  0.4249330000000  0.4378210000000 1.0
C      1  0.5319490000000  0.5444170000000  0.4009470000000 1.0
C      1  0.5199210000000  0.5966650000000  0.5057570000000 1.0
C      1  0.5216450000000  0.5254980000000  0.5926300000000 1.0
C      1  0.5784180000000  0.5517810000000  0.5062750000000 1.0
C      1  0.5683260000000  0.5066160000000  0.5556210000000 1.0
C      1  0.5839910000000  0.4376000000000  0.5411800000000 1.0
C      1  0.5741060000000  0.4481630000000  0.4748790000000 1.0
C      1  0.5857350000000  0.5111970000000  0.4639720000000 1.0
C      1  0.4595360000000  0.3868820000000  0.4854290000000 1.0
C      1  0.4802610000000  0.4852320000000  0.4128800000000 1.0
C      1  0.4748100000000  0.5807450000000  0.4543700000000 1.0
C      1  0.4714940000000  0.5578670000000  0.5469640000000 1.0
C      1  0.4663210000000  0.4533140000000  0.5838010000000 1.0
C      1  0.4554060000000  0.5479280000000  0.5207670000000 1.0
C      1  0.4537800000000  0.4813210000000  0.5583360000000 1.0
C      1  0.4498290000000  0.4334290000000  0.5095430000000 1.0
C      1  0.4609300000000  0.4800030000000  0.4476360000000 1.0
C      1  0.4509520000000  0.5431250000000  0.4506110000000 1.0
C      1  0.5122190000000  0.4514580000000  0.5049760000000 1.0
C      1  0.5334530000000  0.4963660000000  0.4707270000000 1.0
C      1  0.5251100000000  0.5337660000000  0.4716820000000 1.0
C      1  0.5202850000000  0.5295930000000  0.5225250000000 1.0
C      1  0.5063620000000  0.4818330000000  0.5441080000000 1.0
C      1  0.4684050000000  0.5928720000000  0.5082550000000 1.0
C      1  0.4738760000000  0.5084410000000  0.6001230000000 1.0
C      1  0.4718750000000  0.4050160000000  0.5391490000000 1.0
C      1  0.4771440000000  0.4329280000000  0.4273710000000 1.0
C      1  0.4803550000000  0.5542350000000  0.4104340000000 1.0
C      1  0.4333910000000  0.5726060000000  0.4796170000000 1.0
C      1  0.4383570000000  0.5257040000000  0.5649690000000 1.0
C      1  0.4289300000000  0.4504920000000  0.5493490000000 1.0
C      1  0.4329550000000  0.4355400000000  0.4678530000000 1.0
C      1  0.4390310000000  0.5097720000000  0.4323400000000 1.0
C      1  0.5352810000000  0.5431210000000  0.4299670000000 1.0
C      1  0.5174660000000  0.5775700000000  0.5302440000000 1.0
C      1  0.5237630000000  0.4954720000000  0.5898030000000 1.0
C      1  0.5130320000000  0.4252240000000  0.5268350000000 1.0
C      1  0.5257370000000  0.4534790000000  0.4352130000000 1.0
C      1  0.4926650000000  0.5615320000000  0.5133060000000 1.0
C      1  0.4979830000000  0.4902300000000  0.5740170000000 1.0
C      1  0.4877390000000  0.4217560000000  0.5066010000000 1.0
C      1  0.5020270000000  0.4647400000000  0.4543850000000 1.0
C      1  0.5120690000000  0.5563790000000  0.4421860000000 1.0
C      1  0.4899410000000  0.5716840000000  0.4321740000000 1.0
C      1  0.4795360000000  0.5854710000000  0.5352770000000 1.0
C      1  0.4770920000000  0.4771790000000  0.5929130000000 1.0
C      1  0.4730350000000  0.3953890000000  0.5091030000000 1.0
C      1  0.4880960000000  0.4615840000000  0.4249970000000 1.0
C      1  0.4606360000000  0.4473890000000  0.4533450000000 1.0
C      1  0.4655020000000  0.5300660000000  0.4254370000000 1.0
C      1  0.4498510000000  0.5699480000000  0.5026530000000 1.0
C      1  0.4545060000000  0.5059680000000  0.5768060000000 1.0
C      1  0.4529830000000  0.4314020000000  0.5398900000000 1.0
C      1  0.4237120000000  0.5115200000000  0.5396970000000 1.0
C      1  0.4244490000000  0.4630130000000  0.5179200000000 1.0
C      1  0.4335240000000  0.4689740000000  0.4742800000000 1.0
C      1  0.4224550000000  0.5172430000000  0.4611670000000 1.0
C      1  0.4265610000000  0.5368130000000  0.4956360000000 1.0
C      1  0.4786280000000  0.4436770000000  0.5558890000000 1.0
C      1  0.4878020000000  0.4393700000000  0.4728660000000 1.0
C      1  0.4934760000000  0.5119670000000  0.4184970000000 1.0
C      1  0.4877990000000  0.5678170000000  0.4808700000000 1.0
C      1  0.4960630000000  0.5353990000000  0.5456950000000 1.0
C      1  0.4813320000000  0.5365580000000  0.4926940000000 1.0
C      1  0.4831020000000  0.5064680000000  0.5478170000000 1.0
C      1  0.4830600000000  0.4514280000000  0.5230040000000 1.0
C      1  0.4844780000000  0.4724280000000  0.4825560000000 1.0
C      1  0.5009880000000  0.5249340000000  0.4492110000000 1.0
C      1  0.5497190000000  0.4719010000000  0.4728180000000 1.0
C      1  0.5571000000000  0.5274810000000  0.4620190000000 1.0
C      1  0.5472800000000  0.5456310000000  0.5171540000000 1.0
C      1  0.5333010000000  0.4945960000000  0.5357270000000 1.0
C      1  0.5425480000000  0.4513550000000  0.5205960000000 1.0
C      1  0.5954800000000  0.5244490000000  0.5542960000000 1.0
C      1  0.5847020000000  0.4595560000000  0.5574290000000 1.0
C      1  0.5758600000000  0.4290920000000  0.4934310000000 1.0
C      1  0.6092790000000  0.4925500000000  0.4524980000000 1.0
C      1  0.5982600000000  0.5674930000000  0.4863660000000 1.0
C      1  0.5258830000000  0.5651160000000  0.5609660000000 1.0
C      1  0.5450970000000  0.4704200000000  0.5831670000000 1.0
C      1  0.5540680000000  0.3981190000000  0.4776570000000 1.0
C      1  0.5344220000000  0.4690070000000  0.4137590000000 1.0
C      1  0.5628880000000  0.6004490000000  0.4716800000000 1.0
C      1  0.4375820000000  0.4027140000000  0.4760570000000 1.0
C      1  0.4527840000000  0.4890550000000  0.4095380000000 1.0
C      1  0.4470580000000  0.5854600000000  0.4553630000000 1.0
C      1  0.4422140000000  0.5530560000000  0.5581280000000 1.0
C      1  0.4380580000000  0.4521200000000  0.5812530000000 1.0
C      1  0.5394210000000  0.5847230000000  0.4819760000000 1.0
C      1  0.5317460000000  0.5402430000000  0.5705570000000 1.0
C      1  0.5314450000000  0.4459120000000  0.5729790000000 1.0
C      1  0.5338930000000  0.4184820000000  0.4690930000000 1.0
C      1  0.5302300000000  0.4964920000000  0.4158540000000 1.0
C      1  0.5406930000000  0.5221260000000  0.5488180000000 1.0
C      1  0.5187020000000  0.4535290000000  0.5441770000000 1.0
C      1  0.5337520000000  0.4466720000000  0.4820410000000 1.0
C      1  0.5377260000000  0.5119650000000  0.4407570000000 1.0
C      1  0.5430040000000  0.5553490000000  0.4869720000000 1.0
C      1  0.4898310000000  0.6054730000000  0.4938720000000 1.0
C      1  0.4927070000000  0.5305750000000  0.6005020000000 1.0
C      1  0.4938310000000  0.4066970000000  0.5565120000000 1.0
C      1  0.4970750000000  0.4130370000000  0.4345370000000 1.0
C      1  0.5006250000000  0.5464300000000  0.3920300000000 1.0
C      1  0.5152430000000  0.5127630000000  0.4946140000000 1.0
C      1  0.6444210000000  0.5131700000000  0.4779570000000 1.0
C      1  0.6214030000000  0.5049590000000  0.4885390000000 1.0
C      1  0.4853000000000  0.5026810000000  0.4923200000000 1.0
C      1  0.4565530000000  0.4968620000000  0.5056000000000 1.0
C      1  0.5516650000000  0.4801480000000  0.5209340000000 1.0
C      1  0.6900890000000  0.5294610000000  0.4569610000000 1.0
C      1  0.5753910000000  0.4885610000000  0.5097710000000 1.0
C      1  0.3414610000000  0.5022700000000  0.5539090000000 1.0
C      1  0.6674380000000  0.5213810000000  0.4673750000000 1.0
C      1  0.5983860000000  0.4967490000000  0.4991210000000 1.0
C      1  0.4053430000000  0.4990600000000  0.5064400000000 1.0
C      1  0.3841770000000  0.5001240000000  0.5221670000000 1.0
C      1  0.4301550000000  0.4978140000000  0.4880010000000 1.0
C      1  0.3204430000000  0.5033260000000  0.5695270000000 1.0
C      1  0.3628190000000  0.5011970000000  0.5380380000000 1.0
END
