TITL C-2782228-2999-1264 -0.00268327606719302 125000 -837.356718596995 0 0 146 (C1) n - 1
REM
REM in /home/nfs/bkarasulu/CARBON/AIRSS/Generating-Clusters/REBO/Higher-Symm/SD-CG/HFTN-CG
REM
REM
REM
REM
REM
REM ./C.cell (12c818d87b63d06a65506943cc24bca4)
REM
REM compiler GCC version 9.2.1 20190827 (Red Hat 9.2.1-1)
REM options -cpp -mtune=generic -march=x86-64 -g -O0 -fpre-include=/usr/include/finclude/math-vector-fortran.h
REM seed -1508042939 -1372957580 -460783329 710364162 -1415302267 2050503971 -61898617 -144998436 -1315257759 468910742 -1884235802 -396427434 -915596776 1172264572 978249614 -1684159915 1842820406 -316153983 -1571402063 -1089591238 1666099916 1158262835 1876169077 -93888776 1379388455 -81075071 -2119359131 676279570 864269758 -1519145750 1966381216 1072231998 -535398490
REM
CELL 1.54180   50.00000   50.00000   50.00000   90.00000   90.00000   90.00000
LATT -1
SFAC C  
C      1  0.5335960000000  0.5396410000000  0.5740260000000 1.0
C      1  0.4724310000000  0.5372770000000  0.5799110000000 1.0
C      1  0.4576200000000  0.4789670000000  0.5772190000000 1.0
C      1  0.5071530000000  0.4508900000000  0.5795670000000 1.0
C      1  0.5549670000000  0.4864590000000  0.5835140000000 1.0
C      1  0.5362810000000  0.4589930000000  0.5817880000000 1.0
C      1  0.4740880000000  0.4544610000000  0.5770750000000 1.0
C      1  0.4534610000000  0.5125430000000  0.5741280000000 1.0
C      1  0.5055670000000  0.5447740000000  0.5776210000000 1.0
C      1  0.5556010000000  0.5150080000000  0.5824480000000 1.0
C      1  0.4662890000000  0.4370060000000  0.5490410000000 1.0
C      1  0.5403620000000  0.4475210000000  0.5507160000000 1.0
C      1  0.5639240000000  0.5258740000000  0.5519160000000 1.0
C      1  0.4904610000000  0.5546830000000  0.5489180000000 1.0
C      1  0.4364530000000  0.5167190000000  0.5448440000000 1.0
C      1  0.4592740000000  0.5488720000000  0.5506420000000 1.0
C      1  0.5451160000000  0.5490140000000  0.5431780000000 1.0
C      1  0.5599850000000  0.4725940000000  0.5526420000000 1.0
C      1  0.4987730000000  0.4391630000000  0.5487720000000 1.0
C      1  0.4418330000000  0.4849940000000  0.5476180000000 1.0
C      1  0.5580500000000  0.4323400000000  0.5827210000000 1.0
C      1  0.5819470000000  0.5368710000000  0.5856400000000 1.0
C      1  0.4881320000000  0.5736550000000  0.5838370000000 1.0
C      1  0.4202560000000  0.5186990000000  0.5808160000000 1.0
C      1  0.4601280000000  0.4244910000000  0.5859920000000 1.0
C      1  0.5611510000000  0.5594580000000  0.5782280000000 1.0
C      1  0.5757650000000  0.4592320000000  0.5865660000000 1.0
C      1  0.4929590000000  0.4196910000000  0.5826640000000 1.0
C      1  0.4246480000000  0.4867480000000  0.5834260000000 1.0
C      1  0.4569920000000  0.5676130000000  0.5854090000000 1.0
C      1  0.5088000000000  0.5921840000000  0.4961770000000 1.0
C      1  0.4215470000000  0.5445260000000  0.4930760000000 1.0
C      1  0.4447350000000  0.4335210000000  0.4996180000000 1.0
C      1  0.5424020000000  0.4229310000000  0.5031080000000 1.0
C      1  0.5885880000000  0.5145700000000  0.5024530000000 1.0
C      1  0.5104180000000  0.4118500000000  0.5010330000000 1.0
C      1  0.4214250000000  0.4584740000000  0.4968700000000 1.0
C      1  0.4445750000000  0.5698800000000  0.4950460000000 1.0
C      1  0.5427360000000  0.5862800000000  0.4959750000000 1.0
C      1  0.5798220000000  0.4815520000000  0.5027730000000 1.0
C      1  0.4296280000000  0.4376360000000  0.5299880000000 1.0
C      1  0.5589120000000  0.4206370000000  0.5278540000000 1.0
C      1  0.5981230000000  0.5230810000000  0.5315230000000 1.0
C      1  0.5197150000000  0.5931930000000  0.5281400000000 1.0
C      1  0.4098760000000  0.5391320000000  0.5226810000000 1.0
C      1  0.4319510000000  0.5647530000000  0.5263780000000 1.0
C      1  0.5523840000000  0.5850500000000  0.5275030000000 1.0
C      1  0.5961400000000  0.4890320000000  0.5320840000000 1.0
C      1  0.4989810000000  0.4046120000000  0.5278030000000 1.0
C      1  0.4106880000000  0.4650360000000  0.5275460000000 1.0
C      1  0.5399070000000  0.5771860000000  0.5583410000000 1.0
C      1  0.4347550000000  0.5687360000000  0.5601600000000 1.0
C      1  0.4211780000000  0.4623710000000  0.5599410000000 1.0
C      1  0.5133040000000  0.4108440000000  0.5565120000000 1.0
C      1  0.5898680000000  0.4813230000000  0.5648230000000 1.0
C      1  0.5442370000000  0.4158090000000  0.5562910000000 1.0
C      1  0.4367520000000  0.4343540000000  0.5632240000000 1.0
C      1  0.4178620000000  0.5412730000000  0.5553990000000 1.0
C      1  0.5080700000000  0.5816110000000  0.5579340000000 1.0
C      1  0.5921710000000  0.5130960000000  0.5635340000000 1.0
C      1  0.5435320000000  0.4057190000000  0.4747340000000 1.0
C      1  0.5964570000000  0.5088030000000  0.4712580000000 1.0
C      1  0.5149120000000  0.6117490000000  0.4619140000000 1.0
C      1  0.4111580000000  0.5688640000000  0.4732950000000 1.0
C      1  0.4276420000000  0.4169240000000  0.4676460000000 1.0
C      1  0.5366960000000  0.6110260000000  0.4747760000000 1.0
C      1  0.5997180000000  0.4798620000000  0.4683060000000 1.0
C      1  0.5176310000000  0.3927570000000  0.4705790000000 1.0
C      1  0.4108120000000  0.4325310000000  0.4786660000000 1.0
C      1  0.4279140000000  0.5838570000000  0.4615830000000 1.0
C      1  0.5383980000000  0.4333510000000  0.4465880000000 1.0
C      1  0.5760930000000  0.5149800000000  0.4476970000000 1.0
C      1  0.5114620000000  0.5761560000000  0.4440560000000 1.0
C      1  0.4345800000000  0.5315060000000  0.4451580000000 1.0
C      1  0.4502480000000  0.4419520000000  0.4464030000000 1.0
C      1  0.5450300000000  0.5707000000000  0.4452770000000 1.0
C      1  0.5653990000000  0.4824880000000  0.4480440000000 1.0
C      1  0.5072590000000  0.4197110000000  0.4435080000000 1.0
C      1  0.4269350000000  0.4667650000000  0.4465770000000 1.0
C      1  0.4525110000000  0.5598810000000  0.4412600000000 1.0
C      1  0.5799910000000  0.5384020000000  0.4797010000000 1.0
C      1  0.4904240000000  0.5893890000000  0.4677390000000 1.0
C      1  0.4234110000000  0.5182460000000  0.4751000000000 1.0
C      1  0.4608320000000  0.4226950000000  0.4728580000000 1.0
C      1  0.5559800000000  0.4378670000000  0.4756870000000 1.0
C      1  0.5728390000000  0.4634970000000  0.4755450000000 1.0
C      1  0.4904700000000  0.4132680000000  0.4731050000000 1.0
C      1  0.4213920000000  0.4838670000000  0.4761750000000 1.0
C      1  0.4612000000000  0.5802960000000  0.4672920000000 1.0
C      1  0.5609460000000  0.5667560000000  0.4756690000000 1.0
C      1  0.5516780000000  0.5143080000000  0.5246980000000 1.0
C      1  0.4992110000000  0.5423920000000  0.5223650000000 1.0
C      1  0.4500190000000  0.5088070000000  0.5168890000000 1.0
C      1  0.4713290000000  0.4517550000000  0.5231120000000 1.0
C      1  0.5355190000000  0.4618560000000  0.5230090000000 1.0
C      1  0.5571850000000  0.4848760000000  0.5241220000000 1.0
C      1  0.5053860000000  0.4507580000000  0.5194270000000 1.0
C      1  0.4535170000000  0.4766670000000  0.5195590000000 1.0
C      1  0.4665600000000  0.5357570000000  0.5230640000000 1.0
C      1  0.5299370000000  0.5391840000000  0.5186080000000 1.0
C      1  0.5460270000000  0.5157460000000  0.4586140000000 1.0
C      1  0.5003990000000  0.5493900000000  0.4612770000000 1.0
C      1  0.4579520000000  0.5103800000000  0.4566520000000 1.0
C      1  0.4753380000000  0.4580540000000  0.4612520000000 1.0
C      1  0.5307950000000  0.4642570000000  0.4593740000000 1.0
C      1  0.5331910000000  0.4910140000000  0.4445280000000 1.0
C      1  0.5028430000000  0.4496220000000  0.4531910000000 1.0
C      1  0.4548060000000  0.4808560000000  0.4538310000000 1.0
C      1  0.4715690000000  0.5396510000000  0.4575860000000 1.0
C      1  0.5308480000000  0.5424030000000  0.4525970000000 1.0
C      1  0.4674550000000  0.5352710000000  0.3549790000000 1.0
C      1  0.4508800000000  0.4872820000000  0.3578680000000 1.0
C      1  0.4784700000000  0.4666950000000  0.3963190000000 1.0
C      1  0.5145580000000  0.4961150000000  0.4223500000000 1.0
C      1  0.5032710000000  0.5385020000000  0.3919960000000 1.0
C      1  0.4609700000000  0.4700620000000  0.3761020000000 1.0
C      1  0.4532400000000  0.5128990000000  0.3493670000000 1.0
C      1  0.4866690000000  0.5444700000000  0.3716230000000 1.0
C      1  0.5131340000000  0.5211630000000  0.4100380000000 1.0
C      1  0.4975720000000  0.4761060000000  0.4127500000000 1.0
C      1  0.5468020000000  0.5143720000000  0.4925890000000 1.0
C      1  0.5037810000000  0.5544270000000  0.4929140000000 1.0
C      1  0.4610300000000  0.5167750000000  0.4884030000000 1.0
C      1  0.4760650000000  0.4571890000000  0.4931870000000 1.0
C      1  0.5309330000000  0.4654720000000  0.4925150000000 1.0
C      1  0.5243440000000  0.4945180000000  0.4846020000000 1.0
C      1  0.5054140000000  0.4481020000000  0.4854990000000 1.0
C      1  0.4596980000000  0.4843900000000  0.4868730000000 1.0
C      1  0.4744350000000  0.5446840000000  0.4911900000000 1.0
C      1  0.5317260000000  0.5419850000000  0.4849710000000 1.0
C      1  0.4878240000000  0.5833720000000  0.5211800000000 1.0
C      1  0.3925090000000  0.5139250000000  0.5221620000000 1.0
C      1  0.4494050000000  0.4113890000000  0.5234380000000 1.0
C      1  0.5824390000000  0.4339340000000  0.5282650000000 1.0
C      1  0.5956040000000  0.5538310000000  0.5312090000000 1.0
C      1  0.4723490000000  0.3995290000000  0.5287100000000 1.0
C      1  0.3929650000000  0.4896400000000  0.5251270000000 1.0
C      1  0.4638740000000  0.5755930000000  0.5210330000000 1.0
C      1  0.5808580000000  0.5732480000000  0.5289240000000 1.0
C      1  0.5968130000000  0.4564160000000  0.5287750000000 1.0
C      1  0.4207650000000  0.5003060000000  0.4460600000000 1.0
C      1  0.4814520000000  0.5709500000000  0.4334530000000 1.0
C      1  0.5627430000000  0.4528170000000  0.4383810000000 1.0
C      1  0.5701490000000  0.5478670000000  0.4484530000000 1.0
C      1  0.4761450000000  0.4253780000000  0.4360690000000 1.0
C      1  0.5021260000000  0.5017580000000  0.4724360000000 1.0
END
