TITL C-2782240-8521-347 -0.0081542977255725 125000 -158.9845361652 0 0 29 (C1) n - 1
REM
REM in /home/nfs/bkarasulu/CARBON/AIRSS/Generating-Clusters/REBO/Higher-Symm/SD-CG/HFTN-CG
REM
REM
REM
REM
REM
REM ./C.cell (12c818d87b63d06a65506943cc24bca4)
REM
REM compiler GCC version 9.2.1 20190827 (Red Hat 9.2.1-1)
REM options -cpp -mtune=generic -march=x86-64 -g -O0 -fpre-include=/usr/include/finclude/math-vector-fortran.h
REM seed 524616750 1702212195 631430898 -2057397881 2101794388 582940217 1081691914 -379315248 -617113797 219019233 -1419390660 1475792937 584256165 -1143256449 -1484241831 251901020 -1743038159 -439590679 2035975460 -2047248981 984580400 -1541521377 1173890334 488775317 2060150180 1676466123 2085141898 1998108398 190181935 -621498091 1379914412 -1385009148 110139329
REM
CELL 1.54180   50.00000   50.00000   50.00000   90.00000   90.00000   90.00000
LATT -1
SFAC C  
C      1  0.5056000000000  0.4858540000000  0.4483150000000 1.0
C      1  0.4934540000000  0.5130480000000  0.4495770000000 1.0
C      1  0.4844700000000  0.4678500000000  0.4574700000000 1.0
C      1  0.5148110000000  0.5301970000000  0.4597700000000 1.0
C      1  0.4341870000000  0.4707180000000  0.4568920000000 1.0
C      1  0.5650420000000  0.5271930000000  0.4587410000000 1.0
C      1  0.5525830000000  0.4688160000000  0.4457330000000 1.0
C      1  0.4463910000000  0.5300750000000  0.4489280000000 1.0
C      1  0.5344460000000  0.4886230000000  0.4488900000000 1.0
C      1  0.4646110000000  0.5101330000000  0.4502080000000 1.0
C      1  0.4587200000000  0.4817940000000  0.4543230000000 1.0
C      1  0.5404490000000  0.5164680000000  0.4553600000000 1.0
C      1  0.5306220000000  0.5129230000000  0.5300800000000 1.0
C      1  0.4735150000000  0.4846790000000  0.5266520000000 1.0
C      1  0.4721480000000  0.5162290000000  0.5324520000000 1.0
C      1  0.5313960000000  0.4816670000000  0.5371520000000 1.0
C      1  0.5174510000000  0.5297160000000  0.5118510000000 1.0
C      1  0.4889310000000  0.4671980000000  0.5105840000000 1.0
C      1  0.4863510000000  0.5347660000000  0.5157780000000 1.0
C      1  0.5198430000000  0.4624390000000  0.5197220000000 1.0
C      1  0.4904470000000  0.4533410000000  0.4812320000000 1.0
C      1  0.5091720000000  0.5436370000000  0.4844090000000 1.0
C      1  0.5178810000000  0.4460100000000  0.4936540000000 1.0
C      1  0.4800790000000  0.5537460000000  0.4916770000000 1.0
C      1  0.5264970000000  0.4809130000000  0.5683850000000 1.0
C      1  0.4731980000000  0.5181380000000  0.5640060000000 1.0
C      1  0.4737970000000  0.4856780000000  0.5577670000000 1.0
C      1  0.5268170000000  0.5131230000000  0.5609730000000 1.0
C      1  0.4992040000000  0.4996800000000  0.5752680000000 1.0
END
