TITL C-2782225-7408-9 0.00392395514368079 125000 -1005.25970578499 0 0 171 (C1) n - 1
REM
REM in /home/nfs/bkarasulu/CARBON/AIRSS/Generating-Clusters/REBO/Higher-Symm/SD-CG/HFTN-CG
REM
REM
REM
REM
REM
REM ./C.cell (12c818d87b63d06a65506943cc24bca4)
REM
REM compiler GCC version 9.2.1 20190827 (Red Hat 9.2.1-1)
REM options -cpp -mtune=generic -march=x86-64 -g -O0 -fpre-include=/usr/include/finclude/math-vector-fortran.h
REM seed -732207789 -133934675 803980327 -108275900 -919145421 -1105487516 571508811 984339321 703358476 1052577566 -1887339594 1983566249 -1760483276 1472279864 1076419325 -1391041565 -874788767 1174788568 -69834979 1933047341 -1903584330 -1314952248 1002233565 2098502675 -932626695 689288092 2136724739 629644727 -1670351286 1246287228 -1054619559 804095999 -1916444781
REM
CELL 1.54180   50.00000   50.00000   50.00000   90.00000   90.00000   90.00000
LATT -1
SFAC C  
C      1  0.5638440000000  0.5212160000000  0.5572300000000 1.0
C      1  0.4416310000000  0.5174620000000  0.4427620000000 1.0
C      1  0.5520420000000  0.4868740000000  0.4467600000000 1.0
C      1  0.4471310000000  0.4850720000000  0.5566410000000 1.0
C      1  0.4338330000000  0.5341240000000  0.5439640000000 1.0
C      1  0.5648490000000  0.5343690000000  0.4630700000000 1.0
C      1  0.4397600000000  0.4661740000000  0.4529050000000 1.0
C      1  0.5609210000000  0.4673030000000  0.5470580000000 1.0
C      1  0.4818480000000  0.5067490000000  0.4192740000000 1.0
C      1  0.5147950000000  0.5117000000000  0.5800880000000 1.0
C      1  0.4918250000000  0.4953230000000  0.5779980000000 1.0
C      1  0.5056280000000  0.4913040000000  0.4180560000000 1.0
C      1  0.5916530000000  0.5223670000000  0.4360150000000 1.0
C      1  0.4029860000000  0.5242050000000  0.5671720000000 1.0
C      1  0.5949460000000  0.4768090000000  0.5654950000000 1.0
C      1  0.4047700000000  0.4762830000000  0.4368120000000 1.0
C      1  0.5379680000000  0.4225670000000  0.5603720000000 1.0
C      1  0.4602590000000  0.4233680000000  0.4384350000000 1.0
C      1  0.5426240000000  0.5778950000000  0.4362510000000 1.0
C      1  0.4580460000000  0.5786760000000  0.5629700000000 1.0
C      1  0.4634160000000  0.4629720000000  0.4042010000000 1.0
C      1  0.5338760000000  0.4634880000000  0.5922470000000 1.0
C      1  0.4657860000000  0.5374030000000  0.5905870000000 1.0
C      1  0.5318540000000  0.5328310000000  0.4171210000000 1.0
C      1  0.4595050000000  0.4184840000000  0.5561170000000 1.0
C      1  0.5390110000000  0.4170510000000  0.4436700000000 1.0
C      1  0.4642020000000  0.5791090000000  0.4455500000000 1.0
C      1  0.5379800000000  0.5841700000000  0.5541590000000 1.0
C      1  0.5236520000000  0.5008530000000  0.4414700000000 1.0
C      1  0.4696080000000  0.5040530000000  0.5574790000000 1.0
C      1  0.5353910000000  0.5120030000000  0.5556550000000 1.0
C      1  0.4649270000000  0.5023630000000  0.4423560000000 1.0
C      1  0.4855850000000  0.4252430000000  0.4272600000000 1.0
C      1  0.5113010000000  0.4263170000000  0.5672460000000 1.0
C      1  0.4846450000000  0.5766470000000  0.5709740000000 1.0
C      1  0.5159620000000  0.5746750000000  0.4290730000000 1.0
C      1  0.4014790000000  0.5121920000000  0.5061600000000 1.0
C      1  0.5987580000000  0.5124810000000  0.4944030000000 1.0
C      1  0.4028100000000  0.4869980000000  0.4941180000000 1.0
C      1  0.6005050000000  0.4877730000000  0.5084450000000 1.0
C      1  0.5170070000000  0.4688410000000  0.4519890000000 1.0
C      1  0.4818930000000  0.4534640000000  0.5452230000000 1.0
C      1  0.5145820000000  0.5373110000000  0.5495140000000 1.0
C      1  0.4777590000000  0.5415830000000  0.4513780000000 1.0
C      1  0.5392700000000  0.4503260000000  0.4370810000000 1.0
C      1  0.4601500000000  0.4450640000000  0.5703580000000 1.0
C      1  0.5397460000000  0.5521760000000  0.5641000000000 1.0
C      1  0.4538680000000  0.5529460000000  0.4298940000000 1.0
C      1  0.5831960000000  0.4959820000000  0.5811710000000 1.0
C      1  0.4162590000000  0.4955170000000  0.4210620000000 1.0
C      1  0.5807960000000  0.5012240000000  0.4223260000000 1.0
C      1  0.4173620000000  0.5047480000000  0.5807800000000 1.0
C      1  0.5247620000000  0.4180400000000  0.5229500000000 1.0
C      1  0.4810870000000  0.4192710000000  0.4722220000000 1.0
C      1  0.5275050000000  0.5799580000000  0.4731750000000 1.0
C      1  0.4737610000000  0.5785150000000  0.5262250000000 1.0
C      1  0.5047650000000  0.5909860000000  0.5525580000000 1.0
C      1  0.4960790000000  0.5883900000000  0.4465450000000 1.0
C      1  0.5068360000000  0.4104440000000  0.4430410000000 1.0
C      1  0.4906610000000  0.4107620000000  0.5476300000000 1.0
C      1  0.5792540000000  0.5131430000000  0.5338880000000 1.0
C      1  0.4232150000000  0.5114940000000  0.4635090000000 1.0
C      1  0.5640690000000  0.4891880000000  0.4737540000000 1.0
C      1  0.4176230000000  0.4880690000000  0.5432430000000 1.0
C      1  0.5086900000000  0.5502220000000  0.4153560000000 1.0
C      1  0.4898870000000  0.5543610000000  0.5890910000000 1.0
C      1  0.5071610000000  0.4492870000000  0.5858330000000 1.0
C      1  0.4898030000000  0.4470310000000  0.4080800000000 1.0
C      1  0.4867520000000  0.4609510000000  0.4453530000000 1.0
C      1  0.5122410000000  0.4613720000000  0.5481110000000 1.0
C      1  0.4831080000000  0.5352840000000  0.5546650000000 1.0
C      1  0.5101710000000  0.5310900000000  0.4506290000000 1.0
C      1  0.5569280000000  0.5916570000000  0.4638820000000 1.0
C      1  0.4436400000000  0.5896420000000  0.5349210000000 1.0
C      1  0.5539110000000  0.4084100000000  0.5343910000000 1.0
C      1  0.4499020000000  0.4109310000000  0.4686870000000 1.0
C      1  0.4725310000000  0.4161810000000  0.5189160000000 1.0
C      1  0.5208730000000  0.4222250000000  0.4721040000000 1.0
C      1  0.4824790000000  0.5742310000000  0.4739880000000 1.0
C      1  0.5220270000000  0.5790140000000  0.5255530000000 1.0
C      1  0.5700780000000  0.4290470000000  0.5541320000000 1.0
C      1  0.4295840000000  0.4277740000000  0.4485620000000 1.0
C      1  0.5754580000000  0.5743340000000  0.4430630000000 1.0
C      1  0.4256630000000  0.5715240000000  0.5554440000000 1.0
C      1  0.4777780000000  0.5937560000000  0.4965230000000 1.0
C      1  0.5237570000000  0.5975670000000  0.5017620000000 1.0
C      1  0.4757310000000  0.3944550000000  0.4943990000000 1.0
C      1  0.5233080000000  0.4015670000000  0.4945460000000 1.0
C      1  0.4164630000000  0.5137440000000  0.5310690000000 1.0
C      1  0.5723150000000  0.5143590000000  0.4807970000000 1.0
C      1  0.4230800000000  0.4851670000000  0.4718560000000 1.0
C      1  0.5769900000000  0.4853520000000  0.5284580000000 1.0
C      1  0.4252850000000  0.4290670000000  0.5035570000000 1.0
C      1  0.5762590000000  0.4296370000000  0.4958720000000 1.0
C      1  0.4285420000000  0.5679010000000  0.4982240000000 1.0
C      1  0.5772320000000  0.5705370000000  0.5048830000000 1.0
C      1  0.5607090000000  0.5884350000000  0.5290250000000 1.0
C      1  0.4438320000000  0.5838350000000  0.4721090000000 1.0
C      1  0.5597660000000  0.4132140000000  0.4705330000000 1.0
C      1  0.4408700000000  0.4139580000000  0.5294680000000 1.0
C      1  0.4857570000000  0.4693640000000  0.5888180000000 1.0
C      1  0.5131580000000  0.4654200000000  0.4079510000000 1.0
C      1  0.4840420000000  0.5363020000000  0.4096550000000 1.0
C      1  0.5144480000000  0.5397580000000  0.5924800000000 1.0
C      1  0.5547530000000  0.4453190000000  0.4662800000000 1.0
C      1  0.4522640000000  0.4609120000000  0.5347400000000 1.0
C      1  0.5634520000000  0.5571780000000  0.5402120000000 1.0
C      1  0.4502010000000  0.5505270000000  0.4694350000000 1.0
C      1  0.5598620000000  0.5075040000000  0.5945350000000 1.0
C      1  0.4378490000000  0.5059370000000  0.4046490000000 1.0
C      1  0.5581390000000  0.4905110000000  0.4074920000000 1.0
C      1  0.4404630000000  0.4932600000000  0.5951120000000 1.0
C      1  0.5947660000000  0.5396990000000  0.5226190000000 1.0
C      1  0.4135080000000  0.5374670000000  0.4780030000000 1.0
C      1  0.5863800000000  0.4647030000000  0.4796540000000 1.0
C      1  0.4142740000000  0.4619610000000  0.5227040000000 1.0
C      1  0.4249720000000  0.5476470000000  0.4472210000000 1.0
C      1  0.5890470000000  0.5442190000000  0.5560910000000 1.0
C      1  0.4255170000000  0.4577760000000  0.5550360000000 1.0
C      1  0.5760200000000  0.4629480000000  0.4469790000000 1.0
C      1  0.5193940000000  0.4538900000000  0.4824970000000 1.0
C      1  0.4812080000000  0.4459190000000  0.5117740000000 1.0
C      1  0.5161130000000  0.5498490000000  0.5199890000000 1.0
C      1  0.4885740000000  0.5437230000000  0.4827840000000 1.0
C      1  0.5202930000000  0.5513930000000  0.4760780000000 1.0
C      1  0.4846170000000  0.5503030000000  0.5266020000000 1.0
C      1  0.5122690000000  0.4446410000000  0.5208820000000 1.0
C      1  0.4892720000000  0.4467340000000  0.4727600000000 1.0
C      1  0.5950870000000  0.5461990000000  0.4888450000000 1.0
C      1  0.4055000000000  0.5459360000000  0.5103050000000 1.0
C      1  0.5945570000000  0.4540530000000  0.5111360000000 1.0
C      1  0.4067770000000  0.4536050000000  0.4902180000000 1.0
C      1  0.5320800000000  0.4675510000000  0.5107640000000 1.0
C      1  0.4676720000000  0.4657710000000  0.4874570000000 1.0
C      1  0.5360370000000  0.5368880000000  0.5000220000000 1.0
C      1  0.4706550000000  0.5306680000000  0.5061200000000 1.0
C      1  0.5909740000000  0.5504580000000  0.4552570000000 1.0
C      1  0.4046130000000  0.5494730000000  0.5441970000000 1.0
C      1  0.5903920000000  0.4511010000000  0.5436400000000 1.0
C      1  0.4098440000000  0.4502980000000  0.4582120000000 1.0
C      1  0.5059900000000  0.6060880000000  0.4738940000000 1.0
C      1  0.4938310000000  0.6060070000000  0.5239660000000 1.0
C      1  0.5030870000000  0.3932980000000  0.5209680000000 1.0
C      1  0.4976950000000  0.3900360000000  0.4686740000000 1.0
C      1  0.4519340000000  0.5392290000000  0.5636280000000 1.0
C      1  0.5438770000000  0.5350670000000  0.4452040000000 1.0
C      1  0.4612640000000  0.4633450000000  0.4343820000000 1.0
C      1  0.5386830000000  0.4624530000000  0.5629010000000 1.0
C      1  0.4523910000000  0.5306780000000  0.4066800000000 1.0
C      1  0.5465300000000  0.5334450000000  0.5907380000000 1.0
C      1  0.4548540000000  0.4668940000000  0.5912190000000 1.0
C      1  0.5441660000000  0.4648250000000  0.4099440000000 1.0
C      1  0.5436380000000  0.4863640000000  0.6056750000000 1.0
C      1  0.4514580000000  0.4846570000000  0.3908970000000 1.0
C      1  0.5406830000000  0.5120780000000  0.4002050000000 1.0
C      1  0.4575680000000  0.5144390000000  0.6053660000000 1.0
C      1  0.4751670000000  0.4915930000000  0.4680550000000 1.0
C      1  0.5303990000000  0.4905200000000  0.5357880000000 1.0
C      1  0.4778010000000  0.5069670000000  0.5271800000000 1.0
C      1  0.5321780000000  0.5134810000000  0.4764340000000 1.0
C      1  0.5623110000000  0.5410200000000  0.5108930000000 1.0
C      1  0.4421580000000  0.5366520000000  0.4976170000000 1.0
C      1  0.5573460000000  0.4578900000000  0.4971140000000 1.0
C      1  0.4435730000000  0.4575670000000  0.5051790000000 1.0
C      1  0.4422520000000  0.4008870000000  0.4979010000000 1.0
C      1  0.5561040000000  0.4034430000000  0.5029950000000 1.0
C      1  0.4455920000000  0.5956760000000  0.5037730000000 1.0
C      1  0.5567910000000  0.5950500000000  0.4956840000000 1.0
C      1  0.5006660000000  0.5004120000000  0.4738510000000 1.0
C      1  0.5013270000000  0.4934940000000  0.5227370000000 1.0
C      1  0.5156560000000  0.5024820000000  0.5006430000000 1.0
END
