TITL C-2782236-320-174 -0.0047698348664125 125000 -366.951370463632 0 0 62 (C1) n - 1
REM
REM in /home/nfs/bkarasulu/CARBON/AIRSS/Generating-Clusters/REBO/Higher-Symm/SD-CG/HFTN-CG
REM
REM
REM
REM
REM
REM ./C.cell (12c818d87b63d06a65506943cc24bca4)
REM
REM compiler GCC version 9.2.1 20190827 (Red Hat 9.2.1-1)
REM options -cpp -mtune=generic -march=x86-64 -g -O0 -fpre-include=/usr/include/finclude/math-vector-fortran.h
REM seed -636737853 266168232 -389922707 -1970249034 611352823 -1337523777 -908008782 -2125936049 -1422673102 1783532332 -1552102371 -720319730 -985316974 1529147180 1194350022 1410488662 429823683 -427191792 1991664495 1682628089 -1650545808 -978505091 340411892 -647722910 1607506333 244902654 1801732185 1593149636 1596937197 -371266926 -2126066346 -122470492 -1939898874
REM
CELL 1.54180   50.00000   50.00000   50.00000   90.00000   90.00000   90.00000
LATT -1
SFAC C  
C      1  0.4728580000000  0.4313990000000  0.5390090000000 1.0
C      1  0.4804480000000  0.4413420000000  0.4547980000000 1.0
C      1  0.4757010000000  0.5210110000000  0.4293810000000 1.0
C      1  0.4764400000000  0.5789070000000  0.5015740000000 1.0
C      1  0.4771640000000  0.5206080000000  0.5792230000000 1.0
C      1  0.4441470000000  0.4945870000000  0.4568910000000 1.0
C      1  0.4431050000000  0.5460930000000  0.4890470000000 1.0
C      1  0.4448190000000  0.5272520000000  0.5435950000000 1.0
C      1  0.4430870000000  0.4698120000000  0.5388530000000 1.0
C      1  0.4436600000000  0.4664800000000  0.4778420000000 1.0
C      1  0.5102270000000  0.4813080000000  0.4824910000000 1.0
C      1  0.5049820000000  0.5130110000000  0.4784880000000 1.0
C      1  0.5146040000000  0.5293440000000  0.5069060000000 1.0
C      1  0.5110830000000  0.5040800000000  0.5294580000000 1.0
C      1  0.5099560000000  0.4741510000000  0.5143890000000 1.0
C      1  0.5104600000000  0.4624840000000  0.5526250000000 1.0
C      1  0.5122680000000  0.4415580000000  0.4796180000000 1.0
C      1  0.5166430000000  0.5025900000000  0.4329530000000 1.0
C      1  0.5076670000000  0.5638210000000  0.4786110000000 1.0
C      1  0.5137040000000  0.5383450000000  0.5496390000000 1.0
C      1  0.4877810000000  0.5502210000000  0.4636910000000 1.0
C      1  0.4920430000000  0.5507710000000  0.5364740000000 1.0
C      1  0.4907420000000  0.4814860000000  0.5594390000000 1.0
C      1  0.4906750000000  0.4431770000000  0.4980420000000 1.0
C      1  0.4973870000000  0.4813710000000  0.4341600000000 1.0
C      1  0.4538690000000  0.5223330000000  0.4462870000000 1.0
C      1  0.4540980000000  0.5624850000000  0.5099080000000 1.0
C      1  0.4542240000000  0.5105190000000  0.5649860000000 1.0
C      1  0.4524490000000  0.4463340000000  0.5250680000000 1.0
C      1  0.4581330000000  0.4578150000000  0.4509550000000 1.0
C      1  0.5001780000000  0.4442980000000  0.5295360000000 1.0
C      1  0.5066080000000  0.4607570000000  0.4553630000000 1.0
C      1  0.5021560000000  0.5263470000000  0.4469250000000 1.0
C      1  0.5026310000000  0.5614240000000  0.5091380000000 1.0
C      1  0.5028580000000  0.5119500000000  0.5625360000000 1.0
C      1  0.4269070000000  0.5238790000000  0.4964030000000 1.0
C      1  0.4275390000000  0.5148680000000  0.5242900000000 1.0
C      1  0.4241490000000  0.4855810000000  0.5242940000000 1.0
C      1  0.4190630000000  0.4768540000000  0.4968900000000 1.0
C      1  0.4232200000000  0.5007350000000  0.4793730000000 1.0
C      1  0.5478520000000  0.5374880000000  0.5056850000000 1.0
C      1  0.5374910000000  0.5000680000000  0.5477410000000 1.0
C      1  0.5364180000000  0.4539360000000  0.5179110000000 1.0
C      1  0.5413590000000  0.4844900000000  0.4714200000000 1.0
C      1  0.5334420000000  0.5234940000000  0.4715600000000 1.0
C      1  0.4625350000000  0.5482890000000  0.5344150000000 1.0
C      1  0.4614390000000  0.4832210000000  0.5566660000000 1.0
C      1  0.4623910000000  0.4502500000000  0.4977190000000 1.0
C      1  0.4681370000000  0.4822940000000  0.4358720000000 1.0
C      1  0.4592650000000  0.5432840000000  0.4655700000000 1.0
C      1  0.5652760000000  0.5457970000000  0.4774500000000 1.0
C      1  0.5609470000000  0.5132650000000  0.5345670000000 1.0
C      1  0.5594410000000  0.4642240000000  0.5326920000000 1.0
C      1  0.5615440000000  0.4678210000000  0.4903100000000 1.0
C      1  0.5626920000000  0.5214230000000  0.4539880000000 1.0
C      1  0.5338330000000  0.5555880000000  0.4729310000000 1.0
C      1  0.5394330000000  0.5384060000000  0.5373870000000 1.0
C      1  0.5379140000000  0.4717040000000  0.5536310000000 1.0
C      1  0.5392670000000  0.4433760000000  0.4901500000000 1.0
C      1  0.5431110000000  0.4976600000000  0.4429420000000 1.0
C      1  0.5556860000000  0.5071910000000  0.4923130000000 1.0
C      1  0.5719060000000  0.4888740000000  0.5150300000000 1.0
END
