TITL C-2782233-7966-190 -0.00300665453538551 125000 -1075.90127799839 0 0 187 (C1) n - 1
REM
REM in /home/nfs/bkarasulu/CARBON/AIRSS/Generating-Clusters/REBO/Higher-Symm/SD-CG/HFTN-CG
REM
REM
REM
REM
REM
REM ./C.cell (12c818d87b63d06a65506943cc24bca4)
REM
REM compiler GCC version 9.2.1 20190827 (Red Hat 9.2.1-1)
REM options -cpp -mtune=generic -march=x86-64 -g -O0 -fpre-include=/usr/include/finclude/math-vector-fortran.h
REM seed -1930573436 1570564734 -497962569 -1677920709 -335772451 1913406106 -692392888 1320172302 -1082891478 -32153325 -1153375486 -1300824697 -355449187 247316941 710659139 389773571 2043463811 1585633821 819495833 -1682699514 -1482671534 -908375196 -431075310 1423327836 -1298807501 -1620539820 -100256689 -737295851 751503875 306816404 -169925369 1593558005 149053651
REM
CELL 1.54180   50.00000   50.00000   50.00000   90.00000   90.00000   90.00000
LATT -1
SFAC C  
C      1  0.4647180000000  0.4538820000000  0.5974870000000 1.0
C      1  0.4465520000000  0.4805200000000  0.6009140000000 1.0
C      1  0.4427610000000  0.5118880000000  0.6024450000000 1.0
C      1  0.4561770000000  0.5414330000000  0.5994360000000 1.0
C      1  0.4872720000000  0.5506060000000  0.6030520000000 1.0
C      1  0.5212610000000  0.5484120000000  0.6029110000000 1.0
C      1  0.5513120000000  0.5359490000000  0.5993350000000 1.0
C      1  0.5613210000000  0.5050170000000  0.6025800000000 1.0
C      1  0.5540800000000  0.4733220000000  0.5983680000000 1.0
C      1  0.5253670000000  0.4563940000000  0.6012180000000 1.0
C      1  0.4964950000000  0.4455010000000  0.5996320000000 1.0
C      1  0.4195370000000  0.4415620000000  0.5482880000000 1.0
C      1  0.3997030000000  0.4939490000000  0.5478360000000 1.0
C      1  0.4171600000000  0.5456720000000  0.5461760000000 1.0
C      1  0.4630860000000  0.5718400000000  0.5439950000000 1.0
C      1  0.5071660000000  0.5989750000000  0.5408330000000 1.0
C      1  0.5503840000000  0.5701710000000  0.5448500000000 1.0
C      1  0.5860270000000  0.5338030000000  0.5443220000000 1.0
C      1  0.5848050000000  0.4830500000000  0.5420880000000 1.0
C      1  0.5596440000000  0.4379880000000  0.5437170000000 1.0
C      1  0.5186730000000  0.4030680000000  0.5469790000000 1.0
C      1  0.4626210000000  0.4076200000000  0.5492340000000 1.0
C      1  0.4660230000000  0.5698550000000  0.5838000000000 1.0
C      1  0.5051900000000  0.5655250000000  0.5795800000000 1.0
C      1  0.5445350000000  0.5655670000000  0.5841080000000 1.0
C      1  0.5794830000000  0.5261890000000  0.5829390000000 1.0
C      1  0.5807560000000  0.4864760000000  0.5816610000000 1.0
C      1  0.5496430000000  0.4438960000000  0.5818690000000 1.0
C      1  0.5145610000000  0.4237770000000  0.5807780000000 1.0
C      1  0.4747720000000  0.4251910000000  0.5827910000000 1.0
C      1  0.4341170000000  0.4557150000000  0.5825120000000 1.0
C      1  0.4218710000000  0.4944360000000  0.5814740000000 1.0
C      1  0.4275610000000  0.5339830000000  0.5827880000000 1.0
C      1  0.4611770000000  0.4784770000000  0.3710230000000 1.0
C      1  0.4569130000000  0.5052720000000  0.3720210000000 1.0
C      1  0.4681140000000  0.5277150000000  0.3849170000000 1.0
C      1  0.4898350000000  0.5415050000000  0.3731650000000 1.0
C      1  0.5167290000000  0.5417230000000  0.3769360000000 1.0
C      1  0.5364750000000  0.5280340000000  0.3918560000000 1.0
C      1  0.5490980000000  0.5058610000000  0.3799180000000 1.0
C      1  0.5455960000000  0.4811230000000  0.3697060000000 1.0
C      1  0.5280730000000  0.4610440000000  0.3653990000000 1.0
C      1  0.5027100000000  0.4527550000000  0.3698210000000 1.0
C      1  0.4791100000000  0.4604020000000  0.3832760000000 1.0
C      1  0.5434130000000  0.4173200000000  0.5654650000000 1.0
C      1  0.4922590000000  0.4033480000000  0.5654300000000 1.0
C      1  0.4448030000000  0.4280830000000  0.5669210000000 1.0
C      1  0.4097090000000  0.4673840000000  0.5650250000000 1.0
C      1  0.4063580000000  0.5193670000000  0.5643240000000 1.0
C      1  0.4409300000000  0.5590120000000  0.5658800000000 1.0
C      1  0.4864520000000  0.5862800000000  0.5635430000000 1.0
C      1  0.5263810000000  0.5842710000000  0.5634820000000 1.0
C      1  0.5682710000000  0.5518570000000  0.5665880000000 1.0
C      1  0.5966020000000  0.5074270000000  0.5625580000000 1.0
C      1  0.5706350000000  0.4616490000000  0.5639250000000 1.0
C      1  0.5128920000000  0.4510190000000  0.5636120000000 1.0
C      1  0.4905930000000  0.4461170000000  0.5450880000000 1.0
C      1  0.4631690000000  0.4594250000000  0.5390650000000 1.0
C      1  0.4431640000000  0.4798730000000  0.5472180000000 1.0
C      1  0.4473140000000  0.5088750000000  0.5422090000000 1.0
C      1  0.4713280000000  0.5293880000000  0.5448870000000 1.0
C      1  0.4950450000000  0.5483170000000  0.5468880000000 1.0
C      1  0.5232300000000  0.5409650000000  0.5425260000000 1.0
C      1  0.5418240000000  0.5189180000000  0.5539000000000 1.0
C      1  0.5389940000000  0.4947140000000  0.5681790000000 1.0
C      1  0.5313260000000  0.4707130000000  0.5548460000000 1.0
C      1  0.5331580000000  0.5354220000000  0.4791720000000 1.0
C      1  0.5454240000000  0.5141660000000  0.4665010000000 1.0
C      1  0.5462990000000  0.4873890000000  0.4808990000000 1.0
C      1  0.5384730000000  0.4658720000000  0.4582500000000 1.0
C      1  0.5077000000000  0.4562940000000  0.4555060000000 1.0
C      1  0.4856770000000  0.4665360000000  0.4694730000000 1.0
C      1  0.4651020000000  0.4818730000000  0.4576940000000 1.0
C      1  0.4558350000000  0.5116660000000  0.4616280000000 1.0
C      1  0.4650400000000  0.5357930000000  0.4732640000000 1.0
C      1  0.4856700000000  0.5488890000000  0.4583990000000 1.0
C      1  0.5162850000000  0.5510120000000  0.4631640000000 1.0
C      1  0.5481710000000  0.4837990000000  0.4312430000000 1.0
C      1  0.5329530000000  0.4568000000000  0.4249220000000 1.0
C      1  0.5027580000000  0.4506090000000  0.4255080000000 1.0
C      1  0.4794520000000  0.4600380000000  0.4118350000000 1.0
C      1  0.4623970000000  0.4776260000000  0.4266210000000 1.0
C      1  0.4553420000000  0.5082760000000  0.4296290000000 1.0
C      1  0.4663970000000  0.5292410000000  0.4133630000000 1.0
C      1  0.4844360000000  0.5465910000000  0.4270480000000 1.0
C      1  0.5155150000000  0.5475770000000  0.4321050000000 1.0
C      1  0.5355950000000  0.5307100000000  0.4202500000000 1.0
C      1  0.5472920000000  0.5113940000000  0.4380250000000 1.0
C      1  0.5397300000000  0.3923270000000  0.5013280000000 1.0
C      1  0.4769850000000  0.3881540000000  0.5054040000000 1.0
C      1  0.4189230000000  0.4158300000000  0.5077970000000 1.0
C      1  0.3870290000000  0.4726850000000  0.5066520000000 1.0
C      1  0.3930660000000  0.5386340000000  0.5079410000000 1.0
C      1  0.4353230000000  0.5909860000000  0.5052650000000 1.0
C      1  0.4926680000000  0.6160130000000  0.4985140000000 1.0
C      1  0.5568670000000  0.6042390000000  0.5012880000000 1.0
C      1  0.6025480000000  0.5563360000000  0.5005910000000 1.0
C      1  0.6146930000000  0.4900180000000  0.5016610000000 1.0
C      1  0.5892290000000  0.4311740000000  0.4999170000000 1.0
C      1  0.5658390000000  0.4135410000000  0.5077510000000 1.0
C      1  0.5090380000000  0.3959470000000  0.5155620000000 1.0
C      1  0.4497560000000  0.4043160000000  0.5181870000000 1.0
C      1  0.4052290000000  0.4455530000000  0.5176830000000 1.0
C      1  0.3933980000000  0.5048420000000  0.5162820000000 1.0
C      1  0.4127920000000  0.5661230000000  0.5122510000000 1.0
C      1  0.4617930000000  0.6037640000000  0.5071180000000 1.0
C      1  0.5235510000000  0.6114650000000  0.5056990000000 1.0
C      1  0.5802010000000  0.5823010000000  0.5068280000000 1.0
C      1  0.6113150000000  0.5238880000000  0.5068510000000 1.0
C      1  0.6025040000000  0.4622010000000  0.5063820000000 1.0
C      1  0.5316060000000  0.6017870000000  0.4406530000000 1.0
C      1  0.5884220000000  0.5785000000000  0.4385750000000 1.0
C      1  0.6124740000000  0.5202620000000  0.4422450000000 1.0
C      1  0.5949940000000  0.4597600000000  0.4410760000000 1.0
C      1  0.5509060000000  0.4136390000000  0.4416380000000 1.0
C      1  0.4966210000000  0.3847420000000  0.4408230000000 1.0
C      1  0.4365910000000  0.4023730000000  0.4455930000000 1.0
C      1  0.3972350000000  0.4520720000000  0.4467960000000 1.0
C      1  0.3862040000000  0.5147300000000  0.4468030000000 1.0
C      1  0.4166300000000  0.5727320000000  0.4456900000000 1.0
C      1  0.4673750000000  0.6064240000000  0.4378370000000 1.0
C      1  0.4868010000000  0.4186200000000  0.5289410000000 1.0
C      1  0.4456510000000  0.4368660000000  0.5280100000000 1.0
C      1  0.4191850000000  0.4753630000000  0.5270500000000 1.0
C      1  0.4221000000000  0.5200050000000  0.5275690000000 1.0
C      1  0.4420390000000  0.5574950000000  0.5260030000000 1.0
C      1  0.4835210000000  0.5867670000000  0.5239490000000 1.0
C      1  0.5314210000000  0.5838820000000  0.5240410000000 1.0
C      1  0.5728010000000  0.5561780000000  0.5272050000000 1.0
C      1  0.5870070000000  0.5082130000000  0.5239220000000 1.0
C      1  0.5739880000000  0.4584080000000  0.5243290000000 1.0
C      1  0.5381490000000  0.4218900000000  0.5263930000000 1.0
C      1  0.5203250000000  0.4022830000000  0.4513710000000 1.0
C      1  0.4664800000000  0.3945860000000  0.4503360000000 1.0
C      1  0.4184460000000  0.4300590000000  0.4504360000000 1.0
C      1  0.3916020000000  0.4844800000000  0.4514410000000 1.0
C      1  0.3996750000000  0.5453080000000  0.4513240000000 1.0
C      1  0.4469280000000  0.5869290000000  0.4521580000000 1.0
C      1  0.4997850000000  0.6021440000000  0.4452810000000 1.0
C      1  0.5601360000000  0.5855870000000  0.4498570000000 1.0
C      1  0.5990300000000  0.5481900000000  0.4465250000000 1.0
C      1  0.6006620000000  0.4893550000000  0.4462790000000 1.0
C      1  0.5731000000000  0.4353950000000  0.4461700000000 1.0
C      1  0.4228470000000  0.4506160000000  0.4772900000000 1.0
C      1  0.4061960000000  0.4999900000000  0.4779490000000 1.0
C      1  0.4200050000000  0.5492010000000  0.4770850000000 1.0
C      1  0.4641260000000  0.5753090000000  0.4791840000000 1.0
C      1  0.5132660000000  0.5902800000000  0.4736680000000 1.0
C      1  0.5565700000000  0.5677440000000  0.4783510000000 1.0
C      1  0.5902380000000  0.5298010000000  0.4735550000000 1.0
C      1  0.5848420000000  0.4787860000000  0.4746540000000 1.0
C      1  0.5558590000000  0.4342690000000  0.4752910000000 1.0
C      1  0.5101320000000  0.4161010000000  0.4807170000000 1.0
C      1  0.4576560000000  0.4118150000000  0.4778690000000 1.0
C      1  0.4783330000000  0.5333450000000  0.5141060000000 1.0
C      1  0.5012010000000  0.5530500000000  0.5117130000000 1.0
C      1  0.5298080000000  0.5379520000000  0.5088700000000 1.0
C      1  0.5479100000000  0.5165160000000  0.5237990000000 1.0
C      1  0.5481790000000  0.4915800000000  0.5122980000000 1.0
C      1  0.5362200000000  0.4710500000000  0.5264980000000 1.0
C      1  0.5211170000000  0.4549300000000  0.5093970000000 1.0
C      1  0.4943330000000  0.4551480000000  0.5147500000000 1.0
C      1  0.4701010000000  0.4685870000000  0.5060960000000 1.0
C      1  0.4537310000000  0.4888620000000  0.4968760000000 1.0
C      1  0.4577940000000  0.5127290000000  0.5112530000000 1.0
C      1  0.5318630000000  0.5743100000000  0.4936390000000 1.0
C      1  0.5703030000000  0.5452460000000  0.4955910000000 1.0
C      1  0.5796030000000  0.5054930000000  0.4920730000000 1.0
C      1  0.5631140000000  0.4603070000000  0.4924670000000 1.0
C      1  0.5312800000000  0.4308150000000  0.4947520000000 1.0
C      1  0.4828060000000  0.4211900000000  0.4962880000000 1.0
C      1  0.4444140000000  0.4365300000000  0.4952400000000 1.0
C      1  0.4241970000000  0.4795200000000  0.4935650000000 1.0
C      1  0.4218810000000  0.5227020000000  0.4949240000000 1.0
C      1  0.4474680000000  0.5534070000000  0.4942720000000 1.0
C      1  0.4921520000000  0.5766000000000  0.4933290000000 1.0
C      1  0.5441480000000  0.6052360000000  0.4721120000000 1.0
C      1  0.5902060000000  0.5696370000000  0.4715440000000 1.0
C      1  0.6144330000000  0.5054670000000  0.4729060000000 1.0
C      1  0.5936880000000  0.4457090000000  0.4715190000000 1.0
C      1  0.5464030000000  0.4014010000000  0.4726390000000 1.0
C      1  0.4902650000000  0.3890750000000  0.4741110000000 1.0
C      1  0.4234410000000  0.4085610000000  0.4763940000000 1.0
C      1  0.3912040000000  0.4631670000000  0.4780630000000 1.0
C      1  0.3863600000000  0.5280270000000  0.4778150000000 1.0
C      1  0.4248930000000  0.5818450000000  0.4775230000000 1.0
C      1  0.4769240000000  0.6057000000000  0.4706050000000 1.0
END
