TITL C-2782233-7966-1436 -0.00137996211193878 125000 -650.137480801404 0 0 114 (C1) n - 1
REM
REM in /home/nfs/bkarasulu/CARBON/AIRSS/Generating-Clusters/REBO/Higher-Symm/SD-CG/HFTN-CG
REM
REM
REM
REM
REM
REM ./C.cell (12c818d87b63d06a65506943cc24bca4)
REM
REM compiler GCC version 9.2.1 20190827 (Red Hat 9.2.1-1)
REM options -cpp -mtune=generic -march=x86-64 -g -O0 -fpre-include=/usr/include/finclude/math-vector-fortran.h
REM seed 490633970 1438153121 1119970398 884406541 1116385997 1897416187 -639492395 1860715141 960717683 30763758 -2077203259 -1410628165 -2046103608 1690744215 -831227005 -462631532 895509641 837961263 466376245 -1405663 -478546160 -2097780885 1386041853 -1449868171 1090188472 -103770265 -721138945 2128394675 -1687051315 1259547924 404111696 1477806949 -1925517228
REM
CELL 1.54180   50.00000   50.00000   50.00000   90.00000   90.00000   90.00000
LATT -1
SFAC C  
C      1  0.4624460000000  0.5302530000000  0.5575810000000 1.0
C      1  0.5374410000000  0.5256320000000  0.4425880000000 1.0
C      1  0.5371730000000  0.5286500000000  0.5595410000000 1.0
C      1  0.4602540000000  0.5265130000000  0.4421080000000 1.0
C      1  0.4471460000000  0.5539070000000  0.5466070000000 1.0
C      1  0.5499620000000  0.5477010000000  0.4583650000000 1.0
C      1  0.5501850000000  0.5525440000000  0.5448080000000 1.0
C      1  0.4516160000000  0.5542880000000  0.4559760000000 1.0
C      1  0.4532440000000  0.5769820000000  0.4813910000000 1.0
C      1  0.5472760000000  0.5785000000000  0.5222030000000 1.0
C      1  0.5459940000000  0.5682050000000  0.4854070000000 1.0
C      1  0.4515220000000  0.5808000000000  0.5259130000000 1.0
C      1  0.4269690000000  0.4939000000000  0.4701310000000 1.0
C      1  0.5697670000000  0.4973550000000  0.5269130000000 1.0
C      1  0.5748380000000  0.4937070000000  0.4673330000000 1.0
C      1  0.4276220000000  0.4997200000000  0.5283650000000 1.0
C      1  0.4861120000000  0.4039100000000  0.4878400000000 1.0
C      1  0.5171290000000  0.4038600000000  0.5127950000000 1.0
C      1  0.5194910000000  0.4013460000000  0.4818270000000 1.0
C      1  0.4835530000000  0.4037140000000  0.5186920000000 1.0
C      1  0.5134080000000  0.4602290000000  0.5269160000000 1.0
C      1  0.4865760000000  0.4664810000000  0.4751440000000 1.0
C      1  0.4810150000000  0.4625760000000  0.5223140000000 1.0
C      1  0.5195040000000  0.4578770000000  0.4740720000000 1.0
C      1  0.4770320000000  0.5102150000000  0.3954570000000 1.0
C      1  0.5207460000000  0.5136310000000  0.6059730000000 1.0
C      1  0.5107540000000  0.5110630000000  0.3987880000000 1.0
C      1  0.4884540000000  0.5134940000000  0.5994370000000 1.0
C      1  0.5105360000000  0.5667880000000  0.5752720000000 1.0
C      1  0.4739740000000  0.5625460000000  0.4324240000000 1.0
C      1  0.4783850000000  0.5724320000000  0.5780790000000 1.0
C      1  0.5073230000000  0.5637330000000  0.4283760000000 1.0
C      1  0.5153090000000  0.5918310000000  0.5186520000000 1.0
C      1  0.4832560000000  0.5915430000000  0.4890680000000 1.0
C      1  0.4811820000000  0.5972950000000  0.5202910000000 1.0
C      1  0.5171250000000  0.5868030000000  0.4861200000000 1.0
C      1  0.4386620000000  0.5107660000000  0.4267410000000 1.0
C      1  0.5573880000000  0.5090900000000  0.5724770000000 1.0
C      1  0.5557930000000  0.5081710000000  0.4251020000000 1.0
C      1  0.4448150000000  0.5097540000000  0.5724000000000 1.0
C      1  0.4816590000000  0.3929570000000  0.5509960000000 1.0
C      1  0.5204660000000  0.3895930000000  0.4498380000000 1.0
C      1  0.5119050000000  0.3921920000000  0.5444070000000 1.0
C      1  0.4902950000000  0.3920830000000  0.4561250000000 1.0
C      1  0.4765790000000  0.5523410000000  0.4870530000000 1.0
C      1  0.5250720000000  0.5533560000000  0.5160100000000 1.0
C      1  0.5188060000000  0.5472020000000  0.4830440000000 1.0
C      1  0.4760500000000  0.5578890000000  0.5200960000000 1.0
C      1  0.4871400000000  0.5716640000000  0.4617340000000 1.0
C      1  0.5161670000000  0.5701360000000  0.5447480000000 1.0
C      1  0.5187600000000  0.5696520000000  0.4568000000000 1.0
C      1  0.4848960000000  0.5773950000000  0.5467640000000 1.0
C      1  0.5228310000000  0.4652290000000  0.5792390000000 1.0
C      1  0.4951360000000  0.4620410000000  0.4231590000000 1.0
C      1  0.4913460000000  0.4685620000000  0.5720180000000 1.0
C      1  0.5283600000000  0.4638530000000  0.4214380000000 1.0
C      1  0.5720810000000  0.5464220000000  0.4830150000000 1.0
C      1  0.4329380000000  0.5535190000000  0.5170080000000 1.0
C      1  0.4336610000000  0.5490570000000  0.4837070000000 1.0
C      1  0.5669660000000  0.5510150000000  0.5163210000000 1.0
C      1  0.4449530000000  0.4778350000000  0.5151080000000 1.0
C      1  0.5550480000000  0.4747450000000  0.4803040000000 1.0
C      1  0.5511890000000  0.4779520000000  0.5118000000000 1.0
C      1  0.4396030000000  0.4734800000000  0.4845500000000 1.0
C      1  0.4246770000000  0.4977450000000  0.5569510000000 1.0
C      1  0.5760390000000  0.4939780000000  0.4384940000000 1.0
C      1  0.5678180000000  0.4900420000000  0.5545410000000 1.0
C      1  0.4229620000000  0.4930160000000  0.4416270000000 1.0
C      1  0.5728440000000  0.4308780000000  0.4903210000000 1.0
C      1  0.4282310000000  0.4347750000000  0.5105090000000 1.0
C      1  0.4312000000000  0.4345130000000  0.4855050000000 1.0
C      1  0.5713470000000  0.4331870000000  0.5152150000000 1.0
C      1  0.4511160000000  0.4470380000000  0.5283500000000 1.0
C      1  0.5508960000000  0.4435170000000  0.4723850000000 1.0
C      1  0.5466890000000  0.4489040000000  0.5296920000000 1.0
C      1  0.4576920000000  0.4483800000000  0.4726750000000 1.0
C      1  0.5308620000000  0.4198480000000  0.5386000000000 1.0
C      1  0.4743360000000  0.4214680000000  0.4623510000000 1.0
C      1  0.4676580000000  0.4219430000000  0.5418350000000 1.0
C      1  0.5363570000000  0.4178200000000  0.4580500000000 1.0
C      1  0.4842060000000  0.4469540000000  0.5506500000000 1.0
C      1  0.5226770000000  0.4427360000000  0.4443350000000 1.0
C      1  0.5173590000000  0.4432930000000  0.5561230000000 1.0
C      1  0.4902010000000  0.4455690000000  0.4499180000000 1.0
C      1  0.4741250000000  0.4920890000000  0.5140020000000 1.0
C      1  0.5248420000000  0.4891400000000  0.4839910000000 1.0
C      1  0.5212480000000  0.4907170000000  0.5178300000000 1.0
C      1  0.4831970000000  0.4962580000000  0.4839250000000 1.0
C      1  0.5819650000000  0.5156190000000  0.4829160000000 1.0
C      1  0.4247100000000  0.5227380000000  0.5123470000000 1.0
C      1  0.4238050000000  0.5182960000000  0.4831620000000 1.0
C      1  0.5769260000000  0.5199610000000  0.5122730000000 1.0
C      1  0.5442480000000  0.5052880000000  0.4000080000000 1.0
C      1  0.4567010000000  0.5034790000000  0.5965680000000 1.0
C      1  0.4455850000000  0.5082160000000  0.3999990000000 1.0
C      1  0.5509290000000  0.5046860000000  0.5989290000000 1.0
C      1  0.5947520000000  0.4793220000000  0.4252230000000 1.0
C      1  0.4052270000000  0.4821790000000  0.5679160000000 1.0
C      1  0.4070680000000  0.4741620000000  0.4301560000000 1.0
C      1  0.5597400000000  0.4624000000000  0.5572260000000 1.0
C      1  0.5178760000000  0.5060440000000  0.4596310000000 1.0
C      1  0.4812240000000  0.5109820000000  0.5378470000000 1.0
C      1  0.4848120000000  0.5068530000000  0.4514420000000 1.0
C      1  0.5146690000000  0.5087140000000  0.5437320000000 1.0
C      1  0.5182300000000  0.4975410000000  0.5759990000000 1.0
C      1  0.4844610000000  0.4920060000000  0.4219380000000 1.0
C      1  0.4849690000000  0.4992160000000  0.5686560000000 1.0
C      1  0.5177820000000  0.4942370000000  0.4277440000000 1.0
C      1  0.5176130000000  0.5352540000000  0.4208150000000 1.0
C      1  0.4819270000000  0.5397820000000  0.5799910000000 1.0
C      1  0.4841760000000  0.5328600000000  0.4190430000000 1.0
C      1  0.5160490000000  0.5368300000000  0.5826420000000 1.0
C      1  0.4943160000000  0.5250110000000  0.4855570000000 1.0
C      1  0.4987760000000  0.5364950000000  0.5155970000000 1.0
END
