TITL C-2782240-8521-1007 -0.00100641601681443 125000 -207.318504463681 0 0 37 (C1) n - 1
REM
REM in /home/nfs/bkarasulu/CARBON/AIRSS/Generating-Clusters/REBO/Higher-Symm/SD-CG/HFTN-CG
REM
REM
REM
REM
REM
REM ./C.cell (12c818d87b63d06a65506943cc24bca4)
REM
REM compiler GCC version 9.2.1 20190827 (Red Hat 9.2.1-1)
REM options -cpp -mtune=generic -march=x86-64 -g -O0 -fpre-include=/usr/include/finclude/math-vector-fortran.h
REM seed -1705390804 -577672200 -479857328 117416450 1693894341 -1210456477 -513536166 -354646001 -103856447 1511686101 -1110185100 -1714175280 1055517291 -412070579 -860325065 -2080800851 -555893730 -800834818 -896525036 1724018683 -894008353 -1131554912 772706004 -1986074617 -1564360316 2126038516 -237974846 -1111628098 946056793 -864687323 -1332523282 1566352745 1355993520
REM
CELL 1.54180   50.00000   50.00000   50.00000   90.00000   90.00000   90.00000
LATT -1
SFAC C  
C      1  0.5497770000000  0.4692910000000  0.4593690000000 1.0
C      1  0.5472610000000  0.5162260000000  0.5465680000000 1.0
C      1  0.5204750000000  0.4599740000000  0.5078170000000 1.0
C      1  0.4462220000000  0.5040200000000  0.4885940000000 1.0
C      1  0.4489780000000  0.4740370000000  0.4728380000000 1.0
C      1  0.4884750000000  0.5837080000000  0.4955320000000 1.0
C      1  0.4804970000000  0.4717510000000  0.5447610000000 1.0
C      1  0.4906370000000  0.5291330000000  0.4624960000000 1.0
C      1  0.4592030000000  0.4576440000000  0.5238160000000 1.0
C      1  0.5024300000000  0.5354610000000  0.4910460000000 1.0
C      1  0.5187970000000  0.5031800000000  0.5580240000000 1.0
C      1  0.4858180000000  0.4343590000000  0.4852240000000 1.0
C      1  0.5543560000000  0.5382700000000  0.5321330000000 1.0
C      1  0.4567500000000  0.4887370000000  0.5314300000000 1.0
C      1  0.4368750000000  0.5208370000000  0.4634830000000 1.0
C      1  0.4999150000000  0.4804990000000  0.4611420000000 1.0
C      1  0.5435810000000  0.4847100000000  0.5463570000000 1.0
C      1  0.4831750000000  0.5050280000000  0.4521740000000 1.0
C      1  0.5343650000000  0.5102840000000  0.4415040000000 1.0
C      1  0.5130490000000  0.4854390000000  0.4914820000000 1.0
C      1  0.5477900000000  0.5490350000000  0.5081050000000 1.0
C      1  0.5088790000000  0.4358150000000  0.4993610000000 1.0
C      1  0.4555230000000  0.4988860000000  0.4505340000000 1.0
C      1  0.5383680000000  0.4639430000000  0.5289530000000 1.0
C      1  0.5416930000000  0.4923820000000  0.4790420000000 1.0
C      1  0.4639290000000  0.5060210000000  0.5102650000000 1.0
C      1  0.5430800000000  0.5207210000000  0.4684310000000 1.0
C      1  0.4881200000000  0.5579600000000  0.5053770000000 1.0
C      1  0.4784220000000  0.4593880000000  0.4657620000000 1.0
C      1  0.5134010000000  0.5059650000000  0.5851450000000 1.0
C      1  0.4591810000000  0.4508210000000  0.4950660000000 1.0
C      1  0.4751540000000  0.5494540000000  0.5287830000000 1.0
C      1  0.4970270000000  0.5079470000000  0.5064600000000 1.0
C      1  0.4947160000000  0.5009060000000  0.5397660000000 1.0
C      1  0.4756260000000  0.5262640000000  0.5427120000000 1.0
C      1  0.5323820000000  0.5397920000000  0.4866230000000 1.0
C      1  0.5260720000000  0.4821130000000  0.4438240000000 1.0
END
