TITL C-2782234-8014-186 0.000378110613275918 125000 -407.941336370717 0 0 72 (C1) n - 1
REM
REM in /home/nfs/bkarasulu/CARBON/AIRSS/Generating-Clusters/REBO/Higher-Symm/SD-CG/HFTN-CG
REM
REM
REM
REM
REM
REM ./C.cell (12c818d87b63d06a65506943cc24bca4)
REM
REM compiler GCC version 9.2.1 20190827 (Red Hat 9.2.1-1)
REM options -cpp -mtune=generic -march=x86-64 -g -O0 -fpre-include=/usr/include/finclude/math-vector-fortran.h
REM seed -282360536 -77902122 377450826 -964628868 1236809454 -1464477269 -410170076 -328883156 -495568586 -1337667159 -298071499 352316114 -1623055710 -618243938 865590496 -1319631263 417926150 549702301 851411606 -1374648596 972316471 849289651 -781002659 1304134834 1852399610 -167832360 -1535102943 -326531571 70777948 1591300621 -1426747758 152427440 1665481174
REM
CELL 1.54180   50.00000   50.00000   50.00000   90.00000   90.00000   90.00000
LATT -1
SFAC C  
C      1  0.5092220000000  0.4845260000000  0.5259130000000 1.0
C      1  0.4922140000000  0.5120980000000  0.5325010000000 1.0
C      1  0.4296800000000  0.4686140000000  0.5202440000000 1.0
C      1  0.5677100000000  0.5317330000000  0.5201990000000 1.0
C      1  0.4640220000000  0.4930190000000  0.4859910000000 1.0
C      1  0.5364100000000  0.5045090000000  0.4840440000000 1.0
C      1  0.5398460000000  0.4844020000000  0.4306580000000 1.0
C      1  0.4597750000000  0.5183170000000  0.4310990000000 1.0
C      1  0.5134010000000  0.5683230000000  0.4813070000000 1.0
C      1  0.4865810000000  0.4330370000000  0.4817100000000 1.0
C      1  0.5130010000000  0.4855450000000  0.5574940000000 1.0
C      1  0.4859170000000  0.5144280000000  0.5620460000000 1.0
C      1  0.4553900000000  0.4650850000000  0.4588290000000 1.0
C      1  0.5448510000000  0.5363860000000  0.4587810000000 1.0
C      1  0.5086890000000  0.5609930000000  0.5380240000000 1.0
C      1  0.4885160000000  0.4394830000000  0.5397290000000 1.0
C      1  0.5673690000000  0.4908900000000  0.4500310000000 1.0
C      1  0.4329640000000  0.5106430000000  0.4501760000000 1.0
C      1  0.4670820000000  0.5747360000000  0.4599890000000 1.0
C      1  0.5325150000000  0.4234570000000  0.4605080000000 1.0
C      1  0.4452340000000  0.5578600000000  0.4647740000000 1.0
C      1  0.5556800000000  0.4384830000000  0.4652530000000 1.0
C      1  0.4342820000000  0.4912260000000  0.5016580000000 1.0
C      1  0.5648520000000  0.5089270000000  0.5014290000000 1.0
C      1  0.5446270000000  0.4990020000000  0.5376050000000 1.0
C      1  0.4542120000000  0.5017440000000  0.5417460000000 1.0
C      1  0.4713160000000  0.5613670000000  0.5041860000000 1.0
C      1  0.5295300000000  0.4376130000000  0.5041060000000 1.0
C      1  0.4717460000000  0.4932980000000  0.5153030000000 1.0
C      1  0.5263880000000  0.5089450000000  0.5122970000000 1.0
C      1  0.5216710000000  0.4450570000000  0.5337250000000 1.0
C      1  0.4778160000000  0.5563550000000  0.5313150000000 1.0
C      1  0.5543740000000  0.5604000000000  0.5144420000000 1.0
C      1  0.4439880000000  0.4405020000000  0.5151670000000 1.0
C      1  0.5189690000000  0.4667270000000  0.4301130000000 1.0
C      1  0.4808960000000  0.5358020000000  0.4298970000000 1.0
C      1  0.5248660000000  0.5618920000000  0.5081000000000 1.0
C      1  0.4729760000000  0.4367080000000  0.5094210000000 1.0
C      1  0.5132750000000  0.4936090000000  0.4634870000000 1.0
C      1  0.4869870000000  0.5012980000000  0.4640150000000 1.0
C      1  0.4570390000000  0.5349550000000  0.5436160000000 1.0
C      1  0.5445760000000  0.4658750000000  0.5430240000000 1.0
C      1  0.4667820000000  0.4536720000000  0.5592440000000 1.0
C      1  0.5308290000000  0.5471270000000  0.5582620000000 1.0
C      1  0.4288030000000  0.4833440000000  0.4700480000000 1.0
C      1  0.5712170000000  0.5180000000000  0.4701950000000 1.0
C      1  0.5271820000000  0.4579730000000  0.5710450000000 1.0
C      1  0.4738920000000  0.5443200000000  0.5714230000000 1.0
C      1  0.5141810000000  0.4260940000000  0.4826290000000 1.0
C      1  0.4854840000000  0.5738990000000  0.4821940000000 1.0
C      1  0.4039550000000  0.4704930000000  0.4661960000000 1.0
C      1  0.5961390000000  0.5308740000000  0.4672660000000 1.0
C      1  0.4976350000000  0.4593400000000  0.5144480000000 1.0
C      1  0.5094420000000  0.5344270000000  0.5185290000000 1.0
C      1  0.4496280000000  0.5408800000000  0.4932480000000 1.0
C      1  0.5522970000000  0.4574470000000  0.4929610000000 1.0
C      1  0.5272460000000  0.5136520000000  0.5624480000000 1.0
C      1  0.4702830000000  0.4867840000000  0.5662620000000 1.0
C      1  0.4400150000000  0.4507080000000  0.5452110000000 1.0
C      1  0.5579040000000  0.5506360000000  0.5447320000000 1.0
C      1  0.5404740000000  0.4751740000000  0.4695150000000 1.0
C      1  0.4621280000000  0.5221360000000  0.4707950000000 1.0
C      1  0.5596690000000  0.4780480000000  0.5149290000000 1.0
C      1  0.4420180000000  0.5210850000000  0.5160780000000 1.0
C      1  0.4940820000000  0.4642500000000  0.5753280000000 1.0
C      1  0.5062530000000  0.5357860000000  0.5776770000000 1.0
C      1  0.4540320000000  0.4876030000000  0.4394390000000 1.0
C      1  0.5470570000000  0.5146610000000  0.4386430000000 1.0
C      1  0.4777170000000  0.4483990000000  0.4595440000000 1.0
C      1  0.5226800000000  0.5533720000000  0.4589200000000 1.0
C      1  0.4975200000000  0.4536350000000  0.4398350000000 1.0
C      1  0.5030000000000  0.5483100000000  0.4390040000000 1.0
END
