TITL C-2782240-8521-647 -0.000968132918186739 125000 -702.871166178287 0 0 120 (C1) n - 1
REM
REM in /home/nfs/bkarasulu/CARBON/AIRSS/Generating-Clusters/REBO/Higher-Symm/SD-CG/HFTN-CG
REM
REM
REM
REM
REM
REM ./C.cell (12c818d87b63d06a65506943cc24bca4)
REM
REM compiler GCC version 9.2.1 20190827 (Red Hat 9.2.1-1)
REM options -cpp -mtune=generic -march=x86-64 -g -O0 -fpre-include=/usr/include/finclude/math-vector-fortran.h
REM seed 1292193065 801461966 -1867269712 -786275376 1068575209 -1611829061 -1172300566 284890453 473348852 1501170315 -732371989 1966753642 -1655909735 -1580637791 -1914568766 811319957 1720960629 -1273095801 1138247512 1223419656 -96373696 1764471241 1746733735 -717587243 -157570508 -123390499 -1886689103 89021935 1648023661 1744139416 590890189 -1024189725 1159892027
REM
CELL 1.54180   50.00000   50.00000   50.00000   90.00000   90.00000   90.00000
LATT -1
SFAC C  
C      1  0.4938020000000  0.4508400000000  0.6234970000000 1.0
C      1  0.4731790000000  0.5146770000000  0.6285750000000 1.0
C      1  0.5089980000000  0.4493730000000  0.4116280000000 1.0
C      1  0.4842960000000  0.5489100000000  0.4075970000000 1.0
C      1  0.4484490000000  0.4953030000000  0.6249300000000 1.0
C      1  0.5128390000000  0.4758100000000  0.6273120000000 1.0
C      1  0.4487970000000  0.5080810000000  0.4120940000000 1.0
C      1  0.5435630000000  0.4965280000000  0.4112590000000 1.0
C      1  0.4283290000000  0.5228640000000  0.4741790000000 1.0
C      1  0.5800820000000  0.4761050000000  0.4780190000000 1.0
C      1  0.5799020000000  0.5294260000000  0.5114460000000 1.0
C      1  0.4271470000000  0.4788020000000  0.5237270000000 1.0
C      1  0.5229500000000  0.4323290000000  0.4736690000000 1.0
C      1  0.4763140000000  0.5691430000000  0.4701980000000 1.0
C      1  0.5274340000000  0.5693280000000  0.5160270000000 1.0
C      1  0.4758880000000  0.4339050000000  0.5230760000000 1.0
C      1  0.4817840000000  0.5587940000000  0.5081180000000 1.0
C      1  0.5253380000000  0.4441460000000  0.5116080000000 1.0
C      1  0.5247120000000  0.5576030000000  0.4781290000000 1.0
C      1  0.4779340000000  0.4434320000000  0.4845820000000 1.0
C      1  0.5653150000000  0.4765810000000  0.5148230000000 1.0
C      1  0.4425340000000  0.5249510000000  0.5158670000000 1.0
C      1  0.5666130000000  0.5233110000000  0.4742520000000 1.0
C      1  0.4384440000000  0.4777760000000  0.4855590000000 1.0
C      1  0.6030160000000  0.5123680000000  0.5027800000000 1.0
C      1  0.4059360000000  0.4940010000000  0.5088870000000 1.0
C      1  0.4070360000000  0.5067560000000  0.4879490000000 1.0
C      1  0.6026530000000  0.4910020000000  0.4905740000000 1.0
C      1  0.5082650000000  0.5882430000000  0.5025540000000 1.0
C      1  0.4933780000000  0.4126590000000  0.5114670000000 1.0
C      1  0.5081570000000  0.4137190000000  0.4921600000000 1.0
C      1  0.4932220000000  0.5901530000000  0.4833430000000 1.0
C      1  0.4540810000000  0.5132210000000  0.5429130000000 1.0
C      1  0.5600510000000  0.4925180000000  0.5411910000000 1.0
C      1  0.5578630000000  0.5100310000000  0.4459970000000 1.0
C      1  0.4489880000000  0.4910010000000  0.4604790000000 1.0
C      1  0.5139950000000  0.4506360000000  0.5420540000000 1.0
C      1  0.4970110000000  0.5481660000000  0.5307540000000 1.0
C      1  0.5103740000000  0.5517220000000  0.4500860000000 1.0
C      1  0.4903780000000  0.4521790000000  0.4586780000000 1.0
C      1  0.5752630000000  0.5513390000000  0.4783940000000 1.0
C      1  0.4300160000000  0.4504050000000  0.4945700000000 1.0
C      1  0.4338430000000  0.5514600000000  0.5029790000000 1.0
C      1  0.5751860000000  0.4496200000000  0.5073960000000 1.0
C      1  0.5518330000000  0.5700150000000  0.4843920000000 1.0
C      1  0.4526670000000  0.4301430000000  0.4907590000000 1.0
C      1  0.5518370000000  0.4317630000000  0.5011270000000 1.0
C      1  0.4561590000000  0.5720940000000  0.5045720000000 1.0
C      1  0.5339910000000  0.5001690000000  0.5226220000000 1.0
C      1  0.4806660000000  0.4992200000000  0.5283000000000 1.0
C      1  0.4784140000000  0.5024580000000  0.4680220000000 1.0
C      1  0.5319060000000  0.4998610000000  0.4649020000000 1.0
C      1  0.5055760000000  0.5187710000000  0.5244350000000 1.0
C      1  0.5079520000000  0.4789770000000  0.5250540000000 1.0
C      1  0.5028450000000  0.4818290000000  0.4649360000000 1.0
C      1  0.5063880000000  0.5216120000000  0.4654680000000 1.0
C      1  0.4413540000000  0.4646470000000  0.5781180000000 1.0
C      1  0.5829260000000  0.5654230000000  0.5634740000000 1.0
C      1  0.5524620000000  0.4629990000000  0.4523840000000 1.0
C      1  0.4210340000000  0.5556590000000  0.4209570000000 1.0
C      1  0.4620620000000  0.4448500000000  0.5770530000000 1.0
C      1  0.5621120000000  0.5791620000000  0.5669100000000 1.0
C      1  0.4380630000000  0.5742670000000  0.4208230000000 1.0
C      1  0.5402930000000  0.4457760000000  0.4402290000000 1.0
C      1  0.5790700000000  0.4425870000000  0.4739560000000 1.0
C      1  0.4201370000000  0.5544890000000  0.4722840000000 1.0
C      1  0.4192540000000  0.4464740000000  0.5265730000000 1.0
C      1  0.5810770000000  0.5622520000000  0.5103800000000 1.0
C      1  0.4440260000000  0.5754220000000  0.4727670000000 1.0
C      1  0.5541880000000  0.4214720000000  0.4687220000000 1.0
C      1  0.4432690000000  0.4263300000000  0.5234330000000 1.0
C      1  0.5572130000000  0.5825300000000  0.5155450000000 1.0
C      1  0.4621710000000  0.4252590000000  0.5513170000000 1.0
C      1  0.5406920000000  0.5798370000000  0.5452550000000 1.0
C      1  0.5295940000000  0.4153390000000  0.4454050000000 1.0
C      1  0.4596890000000  0.5764030000000  0.4424670000000 1.0
C      1  0.4202520000000  0.4661340000000  0.5533110000000 1.0
C      1  0.5861950000000  0.5462250000000  0.5400650000000 1.0
C      1  0.4201270000000  0.5355990000000  0.4441470000000 1.0
C      1  0.5852960000000  0.4651850000000  0.4483240000000 1.0
C      1  0.4914060000000  0.4412020000000  0.5590860000000 1.0
C      1  0.5129230000000  0.5667140000000  0.5530750000000 1.0
C      1  0.5030220000000  0.4339480000000  0.4352160000000 1.0
C      1  0.4867100000000  0.5616520000000  0.4326930000000 1.0
C      1  0.4391280000000  0.4937740000000  0.5599020000000 1.0
C      1  0.5784220000000  0.5157760000000  0.5487960000000 1.0
C      1  0.4363040000000  0.5087240000000  0.4376280000000 1.0
C      1  0.5722480000000  0.4867060000000  0.4275980000000 1.0
C      1  0.5377690000000  0.4544810000000  0.5614460000000 1.0
C      1  0.4845730000000  0.5518050000000  0.5601490000000 1.0
C      1  0.4686830000000  0.4539910000000  0.4348140000000 1.0
C      1  0.5332220000000  0.5501590000000  0.4290680000000 1.0
C      1  0.4626520000000  0.5365190000000  0.5628640000000 1.0
C      1  0.5542180000000  0.4729430000000  0.5637000000000 1.0
C      1  0.4503350000000  0.4711060000000  0.4356570000000 1.0
C      1  0.5509330000000  0.5330610000000  0.4268630000000 1.0
C      1  0.4945890000000  0.5160370000000  0.6469910000000 1.0
C      1  0.4695200000000  0.4513110000000  0.6382520000000 1.0
C      1  0.4596860000000  0.5513030000000  0.3931630000000 1.0
C      1  0.5356190000000  0.4478230000000  0.4006170000000 1.0
C      1  0.5143730000000  0.4966510000000  0.6463590000000 1.0
C      1  0.4498430000000  0.4705910000000  0.6389040000000 1.0
C      1  0.5548400000000  0.4677920000000  0.4053150000000 1.0
C      1  0.4420500000000  0.5299180000000  0.3945540000000 1.0
C      1  0.4964250000000  0.5232960000000  0.4055690000000 1.0
C      1  0.4967620000000  0.4749830000000  0.4088600000000 1.0
C      1  0.4786810000000  0.5017270000000  0.6001880000000 1.0
C      1  0.4910810000000  0.4512970000000  0.5908080000000 1.0
C      1  0.5161430000000  0.5001110000000  0.4077650000000 1.0
C      1  0.4763610000000  0.4988230000000  0.4088040000000 1.0
C      1  0.4988920000000  0.4819350000000  0.5995240000000 1.0
C      1  0.4479320000000  0.4935120000000  0.5921870000000 1.0
C      1  0.4821790000000  0.4631740000000  0.5112950000000 1.0
C      1  0.5259800000000  0.5381280000000  0.5053290000000 1.0
C      1  0.5230480000000  0.4632790000000  0.4835140000000 1.0
C      1  0.4831250000000  0.5397190000000  0.4812830000000 1.0
C      1  0.4564810000000  0.4833730000000  0.5125430000000 1.0
C      1  0.5514100000000  0.5191290000000  0.5026130000000 1.0
C      1  0.4569640000000  0.5203110000000  0.4863180000000 1.0
C      1  0.5493210000000  0.4827600000000  0.4868230000000 1.0
END
