TITL C-2782226-7400-680 0.00214034296269398 125000 -606.226421340103 0 0 102 (C1) n - 1
REM
REM in /home/nfs/bkarasulu/CARBON/AIRSS/Generating-Clusters/REBO/Higher-Symm/SD-CG/HFTN-CG
REM
REM
REM
REM
REM
REM ./C.cell (12c818d87b63d06a65506943cc24bca4)
REM
REM compiler GCC version 9.2.1 20190827 (Red Hat 9.2.1-1)
REM options -cpp -mtune=generic -march=x86-64 -g -O0 -fpre-include=/usr/include/finclude/math-vector-fortran.h
REM seed 64591240 412805924 1578550848 17353527 1295144242 634297523 -1119213129 -1542966699 1239518589 -673697024 -91927721 -2104681910 -378911487 1260720294 -2064459691 835667911 624847004 2067254930 1001014537 -919691588 -16879407 -1985024688 -563290542 157347408 323051902 -509975114 -380569327 -1331701479 -216703864 -289859691 1951682738 -99487248 297675433
REM
CELL 1.54180   50.00000   50.00000   50.00000   90.00000   90.00000   90.00000
LATT -1
SFAC C  
C      1  0.5304430000000  0.4446320000000  0.4417340000000 1.0
C      1  0.4790380000000  0.4455640000000  0.4380010000000 1.0
C      1  0.4527990000000  0.4869660000000  0.4357760000000 1.0
C      1  0.4645390000000  0.5378690000000  0.4365700000000 1.0
C      1  0.5098310000000  0.5591670000000  0.4367960000000 1.0
C      1  0.5559490000000  0.5345110000000  0.4420360000000 1.0
C      1  0.5639260000000  0.4836940000000  0.4436250000000 1.0
C      1  0.5054840000000  0.4398220000000  0.4288980000000 1.0
C      1  0.4617870000000  0.4626880000000  0.4223290000000 1.0
C      1  0.4631120000000  0.5111790000000  0.4246660000000 1.0
C      1  0.4863660000000  0.5518340000000  0.4216390000000 1.0
C      1  0.5356440000000  0.5497450000000  0.4290760000000 1.0
C      1  0.5651660000000  0.5095720000000  0.4317820000000 1.0
C      1  0.5508680000000  0.4615350000000  0.4313820000000 1.0
C      1  0.5091260000000  0.5449590000000  0.6031970000000 1.0
C      1  0.5282580000000  0.5261750000000  0.5977380000000 1.0
C      1  0.5214930000000  0.4945340000000  0.6030130000000 1.0
C      1  0.4999090000000  0.4685850000000  0.5968370000000 1.0
C      1  0.4671350000000  0.4783410000000  0.5983780000000 1.0
C      1  0.4681420000000  0.5126770000000  0.5988640000000 1.0
C      1  0.4838040000000  0.5410380000000  0.5936250000000 1.0
C      1  0.4635190000000  0.4599280000000  0.5369080000000 1.0
C      1  0.4484930000000  0.5037640000000  0.5370700000000 1.0
C      1  0.4701320000000  0.5461750000000  0.5378170000000 1.0
C      1  0.5170830000000  0.5537660000000  0.5414620000000 1.0
C      1  0.5507330000000  0.5205570000000  0.5433160000000 1.0
C      1  0.5450490000000  0.4734550000000  0.5438230000000 1.0
C      1  0.5091000000000  0.4447180000000  0.5390660000000 1.0
C      1  0.5288700000000  0.5131110000000  0.5685340000000 1.0
C      1  0.5273150000000  0.4825900000000  0.5715480000000 1.0
C      1  0.5040750000000  0.4635360000000  0.5649740000000 1.0
C      1  0.4750580000000  0.4728380000000  0.5658560000000 1.0
C      1  0.4653330000000  0.5020700000000  0.5665330000000 1.0
C      1  0.4812350000000  0.5281290000000  0.5645240000000 1.0
C      1  0.5073130000000  0.5234940000000  0.5494260000000 1.0
C      1  0.4664950000000  0.4654250000000  0.3939090000000 1.0
C      1  0.4813300000000  0.5104180000000  0.4022800000000 1.0
C      1  0.4894140000000  0.5377150000000  0.3953260000000 1.0
C      1  0.4857270000000  0.5420330000000  0.3674340000000 1.0
C      1  0.4718270000000  0.5234000000000  0.3524920000000 1.0
C      1  0.4598150000000  0.4990160000000  0.3542330000000 1.0
C      1  0.4546640000000  0.4759670000000  0.3681340000000 1.0
C      1  0.5328390000000  0.5217120000000  0.4832730000000 1.0
C      1  0.5379950000000  0.4910750000000  0.4852140000000 1.0
C      1  0.5183840000000  0.4671060000000  0.4840930000000 1.0
C      1  0.4875260000000  0.4685410000000  0.4816020000000 1.0
C      1  0.4701630000000  0.4940590000000  0.4809860000000 1.0
C      1  0.4778960000000  0.5242220000000  0.4807550000000 1.0
C      1  0.5059150000000  0.5377850000000  0.4814960000000 1.0
C      1  0.5374030000000  0.5157860000000  0.5165490000000 1.0
C      1  0.5328740000000  0.4826330000000  0.5179170000000 1.0
C      1  0.5076360000000  0.4620480000000  0.5153440000000 1.0
C      1  0.4769740000000  0.4723220000000  0.5137210000000 1.0
C      1  0.4672840000000  0.5038340000000  0.5134060000000 1.0
C      1  0.4814550000000  0.5340510000000  0.5128420000000 1.0
C      1  0.5140210000000  0.5395010000000  0.5135130000000 1.0
C      1  0.4226140000000  0.4559420000000  0.4900310000000 1.0
C      1  0.4178020000000  0.5336480000000  0.4887110000000 1.0
C      1  0.4782630000000  0.5778350000000  0.5030630000000 1.0
C      1  0.5565350000000  0.5661400000000  0.5072590000000 1.0
C      1  0.5950350000000  0.5001030000000  0.5040330000000 1.0
C      1  0.5617480000000  0.4289320000000  0.5021580000000 1.0
C      1  0.4856180000000  0.4100830000000  0.4965350000000 1.0
C      1  0.4586220000000  0.5398240000000  0.4642150000000 1.0
C      1  0.5074040000000  0.5664170000000  0.4643800000000 1.0
C      1  0.5558800000000  0.5362160000000  0.4707080000000 1.0
C      1  0.5640390000000  0.4833840000000  0.4724440000000 1.0
C      1  0.5297300000000  0.4431350000000  0.4703970000000 1.0
C      1  0.4758030000000  0.4455760000000  0.4664880000000 1.0
C      1  0.4465200000000  0.4878320000000  0.4636380000000 1.0
C      1  0.4110350000000  0.5069390000000  0.4884710000000 1.0
C      1  0.4519580000000  0.5707600000000  0.4991000000000 1.0
C      1  0.5305820000000  0.5753590000000  0.5072290000000 1.0
C      1  0.5900490000000  0.5272180000000  0.5032730000000 1.0
C      1  0.5796680000000  0.4499590000000  0.5026830000000 1.0
C      1  0.5131470000000  0.4087830000000  0.4985960000000 1.0
C      1  0.4384850000000  0.4335150000000  0.4928230000000 1.0
C      1  0.5490720000000  0.4495200000000  0.5675560000000 1.0
C      1  0.4920860000000  0.4258160000000  0.5617320000000 1.0
C      1  0.4385840000000  0.4585480000000  0.5595680000000 1.0
C      1  0.4311710000000  0.5212390000000  0.5602590000000 1.0
C      1  0.4733740000000  0.5670460000000  0.5644090000000 1.0
C      1  0.5349140000000  0.5594210000000  0.5691220000000 1.0
C      1  0.5684260000000  0.5083420000000  0.5697570000000 1.0
C      1  0.4291770000000  0.4870600000000  0.5595720000000 1.0
C      1  0.4460370000000  0.5466560000000  0.5618800000000 1.0
C      1  0.5023890000000  0.5695200000000  0.5670330000000 1.0
C      1  0.5573870000000  0.5407020000000  0.5698230000000 1.0
C      1  0.5666900000000  0.4788480000000  0.5691560000000 1.0
C      1  0.5259100000000  0.4304470000000  0.5648920000000 1.0
C      1  0.4637000000000  0.4352110000000  0.5602100000000 1.0
C      1  0.4391970000000  0.5514700000000  0.4820930000000 1.0
C      1  0.5052060000000  0.5756280000000  0.4939710000000 1.0
C      1  0.5717020000000  0.5465230000000  0.4926650000000 1.0
C      1  0.5835120000000  0.4765070000000  0.4925400000000 1.0
C      1  0.5365210000000  0.4229700000000  0.4898030000000 1.0
C      1  0.4649200000000  0.4260140000000  0.4846300000000 1.0
C      1  0.4230690000000  0.4825570000000  0.4794980000000 1.0
C      1  0.5027120000000  0.5038870000000  0.5272760000000 1.0
C      1  0.4906720000000  0.4946770000000  0.6168050000000 1.0
C      1  0.5067260000000  0.4835580000000  0.3694250000000 1.0
C      1  0.4874690000000  0.4867990000000  0.3882200000000 1.0
END
