TITL C-2782228-2999-149 0.000479472492040733 125000 -218.643114192597 0 0 41 (C2) n - 1
REM
REM in /home/nfs/bkarasulu/CARBON/AIRSS/Generating-Clusters/REBO/Higher-Symm/SD-CG/HFTN-CG
REM
REM
REM
REM
REM
REM ./C.cell (12c818d87b63d06a65506943cc24bca4)
REM
REM compiler GCC version 9.2.1 20190827 (Red Hat 9.2.1-1)
REM options -cpp -mtune=generic -march=x86-64 -g -O0 -fpre-include=/usr/include/finclude/math-vector-fortran.h
REM seed -605276859 166050620 -1752588750 -1287936005 153252846 -1711253953 982383062 1346524839 -64007435 -1253202512 -1098514053 -1829934142 -1692301633 -1123702412 -1137095566 -207939631 -586204997 1128939428 -1110158633 -287902951 -1973928760 532868186 -1623078614 2091950084 -2064739630 -1844102463 479376331 1678909119 2044322284 -1731139014 1978039677 2048910855 772116839
REM
CELL 1.54180   50.00000   50.00000   50.00000   90.00000   90.00000   90.00000
LATT -1
SFAC C  
C      1  0.5586170000000  0.4884620000000  0.5127120000000 1.0
C      1  0.5586180000000  0.5098370000000  0.4859490000000 1.0
C      1  0.5074970000000  0.5555150000000  0.4960550000000 1.0
C      1  0.5074990000000  0.4427820000000  0.5025980000000 1.0
C      1  0.5183070000000  0.5208490000000  0.5224840000000 1.0
C      1  0.5183120000000  0.4774480000000  0.4761710000000 1.0
C      1  0.4774310000000  0.5441260000000  0.5409600000000 1.0
C      1  0.4774400000000  0.4541700000000  0.4576870000000 1.0
C      1  0.5378040000000  0.4707460000000  0.5334370000000 1.0
C      1  0.5378090000000  0.5275520000000  0.4652210000000 1.0
C      1  0.5461590000000  0.5093120000000  0.5340550000000 1.0
C      1  0.5461660000000  0.4889870000000  0.4646050000000 1.0
C      1  0.5134870000000  0.5089930000000  0.5685370000000 1.0
C      1  0.5134990000000  0.4893040000000  0.4301170000000 1.0
C      1  0.5036640000000  0.4697710000000  0.5332130000000 1.0
C      1  0.5036690000000  0.5285250000000  0.4654390000000 1.0
C      1  0.4968940000000  0.4433290000000  0.5478850000000 1.0
C      1  0.4969000000000  0.5549670000000  0.4507660000000 1.0
C      1  0.4753950000000  0.4867490000000  0.5319940000000 1.0
C      1  0.4754000000000  0.5115460000000  0.4666530000000 1.0
C      1  0.5358760000000  0.4933820000000  0.5589870000000 1.0
C      1  0.5358860000000  0.5049160000000  0.4396710000000 1.0
C      1  0.4525810000000  0.4717580000000  0.5182250000000 1.0
C      1  0.4525830000000  0.5265360000000  0.4804180000000 1.0
C      1  0.5035970000000  0.5261310000000  0.5491930000000 1.0
C      1  0.5036060000000  0.4721650000000  0.4494590000000 1.0
C      1  0.4785810000000  0.5174090000000  0.5193360000000 1.0
C      1  0.4785850000000  0.4808860000000  0.4793120000000 1.0
C      1  0.4661190000000  0.5134500000000  0.5509160000000 1.0
C      1  0.4661290000000  0.4848450000000  0.4477290000000 1.0
C      1  0.4803500000000  0.5570220000000  0.5107920000000 1.0
C      1  0.4803550000000  0.4412740000000  0.4878560000000 1.0
C      1  0.4323740000000  0.4881940000000  0.5074240000000 1.0
C      1  0.4323750000000  0.5101000000000  0.4912160000000 1.0
C      1  0.4977510000000  0.4745520000000  0.5013280000000 1.0
C      1  0.4977510000000  0.5237440000000  0.4973230000000 1.0
C      1  0.5289130000000  0.5564520000000  0.4788530000000 1.0
C      1  0.5289120000000  0.4418460000000  0.5198040000000 1.0
C      1  0.4586990000000  0.5508700000000  0.4933830000000 1.0
C      1  0.4587000000000  0.4474250000000  0.5052620000000 1.0
C      1  0.5291860000000  0.4991490000000  0.4993280000000 1.0
END
