TITL C-2782226-7400-1468 0.000289829673811217 125000 -516.969800682247 0 0 82 (C1) n - 1
REM
REM in /home/nfs/bkarasulu/CARBON/AIRSS/Generating-Clusters/REBO/Higher-Symm/SD-CG/HFTN-CG
REM
REM
REM
REM
REM
REM ./C.cell (12c818d87b63d06a65506943cc24bca4)
REM
REM compiler GCC version 9.2.1 20190827 (Red Hat 9.2.1-1)
REM options -cpp -mtune=generic -march=x86-64 -g -O0 -fpre-include=/usr/include/finclude/math-vector-fortran.h
REM seed -1811671045 -902528677 1345622150 1771606056 -2076062422 -2058229856 664797032 1233150477 -1749042696 2084734734 -576650039 1366330607 -1356185038 921216290 -160031820 -519536123 1692277289 -1320336071 -1769007184 -127314605 -177277779 392082433 -1943519502 -782560612 914050021 130083552 54988574 1992779794 1258466751 541003372 1497456753 1520306191 -1591743367
REM
CELL 1.54180   50.00000   50.00000   50.00000   90.00000   90.00000   90.00000
LATT -1
SFAC C  
C      1  0.5165230000000  0.5751370000000  0.4747600000000 1.0
C      1  0.4357210000000  0.5377010000000  0.4756240000000 1.0
C      1  0.4452260000000  0.4502170000000  0.4765260000000 1.0
C      1  0.5312120000000  0.4304060000000  0.4752330000000 1.0
C      1  0.5773010000000  0.5078600000000  0.4738860000000 1.0
C      1  0.5158650000000  0.5732760000000  0.5262760000000 1.0
C      1  0.4337250000000  0.5385170000000  0.5271010000000 1.0
C      1  0.4426390000000  0.4481680000000  0.5279160000000 1.0
C      1  0.5310630000000  0.4303830000000  0.5266890000000 1.0
C      1  0.5742300000000  0.5074160000000  0.5253280000000 1.0
C      1  0.4488930000000  0.4945950000000  0.4529400000000 1.0
C      1  0.4893950000000  0.4479300000000  0.4531230000000 1.0
C      1  0.5482370000000  0.4721660000000  0.4508680000000 1.0
C      1  0.5418130000000  0.5372620000000  0.4505260000000 1.0
C      1  0.4788950000000  0.5497160000000  0.4519670000000 1.0
C      1  0.4449400000000  0.4942330000000  0.5512600000000 1.0
C      1  0.4886150000000  0.4458950000000  0.5510300000000 1.0
C      1  0.5463220000000  0.4729320000000  0.5489170000000 1.0
C      1  0.5395750000000  0.5351020000000  0.5483980000000 1.0
C      1  0.4776570000000  0.5495290000000  0.5501490000000 1.0
C      1  0.5084650000000  0.4163200000000  0.5154850000000 1.0
C      1  0.5817110000000  0.4818850000000  0.5147480000000 1.0
C      1  0.5424460000000  0.5718570000000  0.5152480000000 1.0
C      1  0.4443900000000  0.5628740000000  0.5154490000000 1.0
C      1  0.4232840000000  0.4662820000000  0.5157760000000 1.0
C      1  0.5085960000000  0.4164320000000  0.4865910000000 1.0
C      1  0.5825200000000  0.4818090000000  0.4858930000000 1.0
C      1  0.5429450000000  0.5725080000000  0.4863830000000 1.0
C      1  0.4449610000000  0.5626160000000  0.4865690000000 1.0
C      1  0.4242790000000  0.4666630000000  0.4869270000000 1.0
C      1  0.4829400000000  0.4831270000000  0.4878700000000 1.0
C      1  0.5144170000000  0.4766860000000  0.4844880000000 1.0
C      1  0.5303020000000  0.5037100000000  0.4810380000000 1.0
C      1  0.5091670000000  0.5271440000000  0.4831620000000 1.0
C      1  0.4797650000000  0.5150630000000  0.4857060000000 1.0
C      1  0.4771780000000  0.4802000000000  0.5208650000000 1.0
C      1  0.5079740000000  0.4738730000000  0.5175870000000 1.0
C      1  0.5243530000000  0.5015210000000  0.5141670000000 1.0
C      1  0.5028580000000  0.5253520000000  0.5165430000000 1.0
C      1  0.4741300000000  0.5116940000000  0.5190680000000 1.0
C      1  0.5246890000000  0.4853730000000  0.5685710000000 1.0
C      1  0.5212020000000  0.5189520000000  0.5686310000000 1.0
C      1  0.4882010000000  0.5260360000000  0.5687400000000 1.0
C      1  0.4712900000000  0.4968090000000  0.5688180000000 1.0
C      1  0.4938450000000  0.4717280000000  0.5687390000000 1.0
C      1  0.5254680000000  0.4856690000000  0.4334310000000 1.0
C      1  0.5219400000000  0.5195630000000  0.4332700000000 1.0
C      1  0.4883750000000  0.5252990000000  0.4341230000000 1.0
C      1  0.4706690000000  0.4970540000000  0.4295720000000 1.0
C      1  0.4938240000000  0.4731400000000  0.4344600000000 1.0
C      1  0.5676630000000  0.4607820000000  0.5286120000000 1.0
C      1  0.5580030000000  0.5516040000000  0.5285420000000 1.0
C      1  0.4684130000000  0.5715000000000  0.5289710000000 1.0
C      1  0.4221590000000  0.4919110000000  0.5291540000000 1.0
C      1  0.4838760000000  0.4230980000000  0.5292980000000 1.0
C      1  0.5683150000000  0.4604370000000  0.4725790000000 1.0
C      1  0.5588740000000  0.5525320000000  0.4726070000000 1.0
C      1  0.4688330000000  0.5715890000000  0.4728930000000 1.0
C      1  0.4237960000000  0.4919870000000  0.4731070000000 1.0
C      1  0.4841160000000  0.4237880000000  0.4732700000000 1.0
C      1  0.5568190000000  0.4376820000000  0.4864250000000 1.0
C      1  0.5770550000000  0.5343880000000  0.4859510000000 1.0
C      1  0.4913390000000  0.5836340000000  0.4863940000000 1.0
C      1  0.4189810000000  0.5170230000000  0.4865050000000 1.0
C      1  0.4590290000000  0.4274970000000  0.4870910000000 1.0
C      1  0.5566200000000  0.4377170000000  0.5153140000000 1.0
C      1  0.5762310000000  0.5339710000000  0.5147930000000 1.0
C      1  0.4911470000000  0.5830680000000  0.5152790000000 1.0
C      1  0.4180630000000  0.5171040000000  0.5153770000000 1.0
C      1  0.4584990000000  0.4268330000000  0.5159460000000 1.0
C      1  0.4665170000000  0.4692490000000  0.4646490000000 1.0
C      1  0.5204230000000  0.4561000000000  0.4615430000000 1.0
C      1  0.5507830000000  0.5052430000000  0.4574280000000 1.0
C      1  0.5112370000000  0.5482860000000  0.4600630000000 1.0
C      1  0.4603540000000  0.5239400000000  0.4628130000000 1.0
C      1  0.4623490000000  0.4659720000000  0.5444680000000 1.0
C      1  0.5192870000000  0.4556080000000  0.5404770000000 1.0
C      1  0.5458220000000  0.5042690000000  0.5374430000000 1.0
C      1  0.5093700000000  0.5458260000000  0.5394430000000 1.0
C      1  0.4570700000000  0.5244970000000  0.5420850000000 1.0
C      1  0.4997470000000  0.4997880000000  0.5473780000000 1.0
C      1  0.5021200000000  0.5004980000000  0.4528960000000 1.0
END
