TITL C-2782227-3064-1483 0.00390997651943942 125000 -470.354690477855 0 0 81 (C1) n - 1
REM
REM in /home/nfs/bkarasulu/CARBON/AIRSS/Generating-Clusters/REBO/Higher-Symm/SD-CG/HFTN-CG
REM
REM
REM
REM
REM
REM ./C.cell (12c818d87b63d06a65506943cc24bca4)
REM
REM compiler GCC version 9.2.1 20190827 (Red Hat 9.2.1-1)
REM options -cpp -mtune=generic -march=x86-64 -g -O0 -fpre-include=/usr/include/finclude/math-vector-fortran.h
REM seed 2137304017 726958138 -135592029 -1813942971 765373168 1243220961 2106709460 -2045858497 1915391246 -608897579 2004036014 995567836 1605520421 -165941265 -899769798 84615273 -925495931 175376512 100203619 -920833468 -1099457874 1999319710 1932895402 -1684864039 1061402938 1547771930 -445841767 -1476120355 -1373516000 -1965530905 725020071 -2117448089 -758293052
REM
CELL 1.54180   50.00000   50.00000   50.00000   90.00000   90.00000   90.00000
LATT -1
SFAC C  
C      1  0.5114490000000  0.4702040000000  0.5385050000000 1.0
C      1  0.5204840000000  0.5246190000000  0.5763550000000 1.0
C      1  0.5533470000000  0.4622700000000  0.4835170000000 1.0
C      1  0.5039640000000  0.4616270000000  0.4744620000000 1.0
C      1  0.5256400000000  0.5371850000000  0.5388970000000 1.0
C      1  0.5419460000000  0.5386290000000  0.4425860000000 1.0
C      1  0.4326040000000  0.4854520000000  0.4465650000000 1.0
C      1  0.5641040000000  0.5281840000000  0.4941820000000 1.0
C      1  0.4441490000000  0.5286780000000  0.5373420000000 1.0
C      1  0.5479820000000  0.5230060000000  0.5561940000000 1.0
C      1  0.5249000000000  0.4420760000000  0.5523790000000 1.0
C      1  0.4623820000000  0.4493770000000  0.5151980000000 1.0
C      1  0.5152670000000  0.5499620000000  0.4583390000000 1.0
C      1  0.4842530000000  0.4337460000000  0.5219040000000 1.0
C      1  0.4765120000000  0.5075910000000  0.4955800000000 1.0
C      1  0.5415380000000  0.4702070000000  0.5620240000000 1.0
C      1  0.4411340000000  0.5439280000000  0.5104070000000 1.0
C      1  0.4700640000000  0.5309990000000  0.5537630000000 1.0
C      1  0.4871650000000  0.5578960000000  0.5491800000000 1.0
C      1  0.5117990000000  0.4572080000000  0.4355690000000 1.0
C      1  0.4909360000000  0.4811430000000  0.5763900000000 1.0
C      1  0.5008170000000  0.5212680000000  0.5417810000000 1.0
C      1  0.5616110000000  0.5532410000000  0.4309550000000 1.0
C      1  0.4571460000000  0.4615080000000  0.4880410000000 1.0
C      1  0.5484250000000  0.4893300000000  0.4430850000000 1.0
C      1  0.5046370000000  0.5835370000000  0.4984270000000 1.0
C      1  0.4810570000000  0.4564100000000  0.5670210000000 1.0
C      1  0.4987160000000  0.4959870000000  0.5266260000000 1.0
C      1  0.5150060000000  0.4979940000000  0.4989070000000 1.0
C      1  0.4381100000000  0.5204260000000  0.4638350000000 1.0
C      1  0.4523680000000  0.4390290000000  0.4653570000000 1.0
C      1  0.4259900000000  0.4725270000000  0.4837890000000 1.0
C      1  0.5120670000000  0.4653630000000  0.5049940000000 1.0
C      1  0.4955720000000  0.4786310000000  0.4264380000000 1.0
C      1  0.4334700000000  0.5013140000000  0.5357490000000 1.0
C      1  0.4227530000000  0.4716180000000  0.5341070000000 1.0
C      1  0.5049690000000  0.5058830000000  0.4290770000000 1.0
C      1  0.3898440000000  0.5065530000000  0.4762780000000 1.0
C      1  0.5857670000000  0.5025380000000  0.5283020000000 1.0
C      1  0.4882340000000  0.5130210000000  0.5759680000000 1.0
C      1  0.4832110000000  0.5233120000000  0.4368730000000 1.0
C      1  0.5508600000000  0.5517750000000  0.4964600000000 1.0
C      1  0.5103780000000  0.5564880000000  0.5699140000000 1.0
C      1  0.5326630000000  0.5100590000000  0.4334070000000 1.0
C      1  0.4536330000000  0.4677170000000  0.5345360000000 1.0
C      1  0.5752260000000  0.4915980000000  0.4523930000000 1.0
C      1  0.4662880000000  0.4967410000000  0.5262580000000 1.0
C      1  0.5239670000000  0.4373520000000  0.5207630000000 1.0
C      1  0.4127980000000  0.4582790000000  0.5105280000000 1.0
C      1  0.4928620000000  0.4368220000000  0.5489520000000 1.0
C      1  0.5563430000000  0.4938810000000  0.5435520000000 1.0
C      1  0.5279050000000  0.5859540000000  0.5196310000000 1.0
C      1  0.5797710000000  0.5256390000000  0.5469830000000 1.0
C      1  0.4564100000000  0.5086210000000  0.4390990000000 1.0
C      1  0.4689660000000  0.5591400000000  0.4701870000000 1.0
C      1  0.5528220000000  0.5794750000000  0.5061430000000 1.0
C      1  0.5206550000000  0.4904670000000  0.5759550000000 1.0
C      1  0.5186880000000  0.5524570000000  0.5000250000000 1.0
C      1  0.4154930000000  0.4982400000000  0.4711140000000 1.0
C      1  0.4845720000000  0.4336380000000  0.4695690000000 1.0
C      1  0.5027510000000  0.4277270000000  0.4955320000000 1.0
C      1  0.4468660000000  0.4579360000000  0.4411860000000 1.0
C      1  0.4911950000000  0.5532190000000  0.5200660000000 1.0
C      1  0.4798010000000  0.5816150000000  0.4848210000000 1.0
C      1  0.5248620000000  0.5687680000000  0.5429290000000 1.0
C      1  0.4249960000000  0.4383380000000  0.4857610000000 1.0
C      1  0.5351590000000  0.4368860000000  0.4894310000000 1.0
C      1  0.5795500000000  0.4836810000000  0.4801600000000 1.0
C      1  0.5453800000000  0.5004380000000  0.4923350000000 1.0
C      1  0.4997920000000  0.4334770000000  0.4417960000000 1.0
C      1  0.5319560000000  0.5229870000000  0.4712080000000 1.0
C      1  0.5574440000000  0.4783620000000  0.5129310000000 1.0
C      1  0.5031710000000  0.5261800000000  0.4880010000000 1.0
C      1  0.4457880000000  0.5432780000000  0.4789030000000 1.0
C      1  0.5328520000000  0.4667940000000  0.4572830000000 1.0
C      1  0.4788030000000  0.4810680000000  0.4805550000000 1.0
C      1  0.4675370000000  0.4777370000000  0.4301960000000 1.0
C      1  0.5841840000000  0.5051490000000  0.4997000000000 1.0
C      1  0.5571100000000  0.4555870000000  0.5350460000000 1.0
C      1  0.4879970000000  0.5461250000000  0.4527020000000 1.0
C      1  0.4711180000000  0.5368300000000  0.5090450000000 1.0
END
