TITL C-2782237-5345-969 -0.00262630120747662 125000 -406.46037038741 0 0 70 (C2) n - 1
REM
REM in /home/nfs/bkarasulu/CARBON/AIRSS/Generating-Clusters/REBO/Higher-Symm/SD-CG/HFTN-CG
REM
REM
REM
REM
REM
REM ./C.cell (12c818d87b63d06a65506943cc24bca4)
REM
REM compiler GCC version 9.2.1 20190827 (Red Hat 9.2.1-1)
REM options -cpp -mtune=generic -march=x86-64 -g -O0 -fpre-include=/usr/include/finclude/math-vector-fortran.h
REM seed -957368058 1750395057 -1630007747 121869156 -1748936862 -1125220126 -923095454 -888387588 -517545612 859016980 -1724731801 -1933196160 1581803774 947652606 777133294 1837535346 1679262287 -1804743809 -578168066 -284969383 -815363772 2110840498 -123019999 1686169548 1593676406 -1285238386 -1952135853 -1536427558 2052028497 -904925937 -948160093 -982860170 2066431164
REM
CELL 1.54180   50.00000   50.00000   50.00000   90.00000   90.00000   90.00000
LATT -1
SFAC C  
C      1  0.5072510000000  0.5235420000000  0.5752960000000 1.0
C      1  0.4927510000000  0.5234920000000  0.4246880000000 1.0
C      1  0.4563750000000  0.4814580000000  0.4279520000000 1.0
C      1  0.5436240000000  0.4815030000000  0.5720600000000 1.0
C      1  0.5032170000000  0.5298780000000  0.4832770000000 1.0
C      1  0.4967850000000  0.5298890000000  0.5167030000000 1.0
C      1  0.4559050000000  0.5606910000000  0.5088390000000 1.0
C      1  0.5440980000000  0.5606820000000  0.4911210000000 1.0
C      1  0.4801370000000  0.4239700000000  0.5022890000000 1.0
C      1  0.5198590000000  0.4239680000000  0.4977610000000 1.0
C      1  0.4955140000000  0.5431310000000  0.4521020000000 1.0
C      1  0.5044890000000  0.5431620000000  0.5478690000000 1.0
C      1  0.4845410000000  0.5604110000000  0.5181240000000 1.0
C      1  0.5154620000000  0.5603980000000  0.4818360000000 1.0
C      1  0.5349570000000  0.5088360000000  0.5718420000000 1.0
C      1  0.4650430000000  0.5087910000000  0.4281530000000 1.0
C      1  0.5391610000000  0.5232190000000  0.5430210000000 1.0
C      1  0.4608400000000  0.5231930000000  0.4569630000000 1.0
C      1  0.4580340000000  0.4561120000000  0.5452770000000 1.0
C      1  0.5419630000000  0.4560790000000  0.4547520000000 1.0
C      1  0.5188090000000  0.5013950000000  0.4222120000000 1.0
C      1  0.4811910000000  0.5014470000000  0.5777870000000 1.0
C      1  0.4529850000000  0.5055920000000  0.4818190000000 1.0
C      1  0.5470150000000  0.5056020000000  0.5181780000000 1.0
C      1  0.4308790000000  0.4923460000000  0.5190420000000 1.0
C      1  0.5691200000000  0.4923300000000  0.4809630000000 1.0
C      1  0.4841470000000  0.4891000000000  0.5264130000000 1.0
C      1  0.5158530000000  0.4890820000000  0.4735940000000 1.0
C      1  0.4659450000000  0.5539760000000  0.4602110000000 1.0
C      1  0.5340580000000  0.5540000000000  0.5397530000000 1.0
C      1  0.5454470000000  0.5268490000000  0.4565680000000 1.0
C      1  0.4545550000000  0.5268800000000  0.5434140000000 1.0
C      1  0.4661420000000  0.4736260000000  0.5652940000000 1.0
C      1  0.5338560000000  0.4735810000000  0.4347230000000 1.0
C      1  0.4721630000000  0.5051930000000  0.5010730000000 1.0
C      1  0.5278370000000  0.5051910000000  0.4989240000000 1.0
C      1  0.5598310000000  0.5404440000000  0.4781870000000 1.0
C      1  0.4401710000000  0.5404620000000  0.5217860000000 1.0
C      1  0.5449770000000  0.4989250000000  0.4635320000000 1.0
C      1  0.4550230000000  0.4989520000000  0.5364690000000 1.0
C      1  0.4963590000000  0.4865550000000  0.4390010000000 1.0
C      1  0.5036410000000  0.4865950000000  0.5610080000000 1.0
C      1  0.4811860000000  0.4359100000000  0.5318940000000 1.0
C      1  0.5188110000000  0.4358880000000  0.4681480000000 1.0
C      1  0.4763040000000  0.5317210000000  0.5630300000000 1.0
C      1  0.5236970000000  0.5316780000000  0.4369490000000 1.0
C      1  0.5062050000000  0.5817660000000  0.5143520000000 1.0
C      1  0.4937990000000  0.5817570000000  0.4855940000000 1.0
C      1  0.5213910000000  0.4592870000000  0.5639580000000 1.0
C      1  0.4786060000000  0.4592460000000  0.4360690000000 1.0
C      1  0.5585860000000  0.4524560000000  0.5331820000000 1.0
C      1  0.4414110000000  0.4524370000000  0.4668490000000 1.0
C      1  0.4864330000000  0.4296610000000  0.4765800000000 1.0
C      1  0.5135630000000  0.4296760000000  0.5234660000000 1.0
C      1  0.5333770000000  0.5714320000000  0.5175810000000 1.0
C      1  0.4666270000000  0.5714220000000  0.4823710000000 1.0
C      1  0.4229900000000  0.5193710000000  0.5100540000000 1.0
C      1  0.5770110000000  0.5193600000000  0.4899330000000 1.0
C      1  0.5029470000000  0.4619920000000  0.4600350000000 1.0
C      1  0.4970510000000  0.4620190000000  0.5399900000000 1.0
C      1  0.4360040000000  0.4837670000000  0.4757190000000 1.0
C      1  0.5639950000000  0.4837790000000  0.5242920000000 1.0
C      1  0.4675600000000  0.4420350000000  0.4603580000000 1.0
C      1  0.5324360000000  0.4420590000000  0.5396800000000 1.0
C      1  0.5113700000000  0.5059400000000  0.5360460000000 1.0
C      1  0.4886300000000  0.5059160000000  0.4639500000000 1.0
C      1  0.4366500000000  0.4643980000000  0.5282230000000 1.0
C      1  0.5633480000000  0.4643760000000  0.4718010000000 1.0
C      1  0.4330740000000  0.4750460000000  0.4446110000000 1.0
C      1  0.5669250000000  0.4750790000000  0.5554060000000 1.0
END
