TITL C-2782228-2999-687 -0.00251479425981856 125000 -1101.61446401379 0 0 194 (C1) n - 1
REM
REM in /home/nfs/bkarasulu/CARBON/AIRSS/Generating-Clusters/REBO/Higher-Symm/SD-CG/HFTN-CG
REM
REM
REM
REM
REM
REM ./C.cell (12c818d87b63d06a65506943cc24bca4)
REM
REM compiler GCC version 9.2.1 20190827 (Red Hat 9.2.1-1)
REM options -cpp -mtune=generic -march=x86-64 -g -O0 -fpre-include=/usr/include/finclude/math-vector-fortran.h
REM seed -1320166401 -927513844 -343481019 -1291828603 1223006379 683650574 261615281 -1644437457 -1595295306 125074585 -2116580924 1690799588 -277739988 2065500439 -1586584301 23966131 -1042465131 1411746323 -1470530698 -168576013 -923826495 1701872934 1525814087 92100822 -401379955 -1039668998 -969976893 -1367696418 1217228899 -1196451008 7464833 -541905106 1650105860
REM
CELL 1.54180   50.00000   50.00000   50.00000   90.00000   90.00000   90.00000
LATT -1
SFAC C  
C      1  0.4225400000000  0.4563740000000  0.5571550000000 1.0
C      1  0.4246100000000  0.5431210000000  0.5574620000000 1.0
C      1  0.4980700000000  0.4147760000000  0.5515390000000 1.0
C      1  0.5061940000000  0.5765230000000  0.5515640000000 1.0
C      1  0.4731870000000  0.5387570000000  0.5301020000000 1.0
C      1  0.4711290000000  0.4561750000000  0.5283590000000 1.0
C      1  0.4411350000000  0.5598920000000  0.4640560000000 1.0
C      1  0.4356950000000  0.4371820000000  0.4639290000000 1.0
C      1  0.4339970000000  0.5482080000000  0.5897640000000 1.0
C      1  0.4351980000000  0.4532940000000  0.5887800000000 1.0
C      1  0.4588510000000  0.4279990000000  0.4869010000000 1.0
C      1  0.4659110000000  0.5663040000000  0.4864430000000 1.0
C      1  0.3840800000000  0.5549800000000  0.4947250000000 1.0
C      1  0.3793390000000  0.4473480000000  0.4943170000000 1.0
C      1  0.4936140000000  0.5442460000000  0.4190230000000 1.0
C      1  0.4871940000000  0.4507690000000  0.4184610000000 1.0
C      1  0.5508130000000  0.4508680000000  0.4229110000000 1.0
C      1  0.5538000000000  0.5388490000000  0.4288970000000 1.0
C      1  0.5320000000000  0.5690320000000  0.5111510000000 1.0
C      1  0.5196080000000  0.4195630000000  0.5111990000000 1.0
C      1  0.5145550000000  0.4381180000000  0.4575250000000 1.0
C      1  0.5205920000000  0.5516980000000  0.4553100000000 1.0
C      1  0.4524790000000  0.5688220000000  0.5697260000000 1.0
C      1  0.4471370000000  0.4277680000000  0.5701700000000 1.0
C      1  0.5556390000000  0.5200590000000  0.5579040000000 1.0
C      1  0.5589720000000  0.4609160000000  0.5557080000000 1.0
C      1  0.4903310000000  0.5722580000000  0.4395410000000 1.0
C      1  0.4830150000000  0.4226100000000  0.4387160000000 1.0
C      1  0.4095470000000  0.5286020000000  0.5324710000000 1.0
C      1  0.4087160000000  0.4705800000000  0.5312370000000 1.0
C      1  0.4794430000000  0.4114560000000  0.4695500000000 1.0
C      1  0.4886640000000  0.5808200000000  0.4706620000000 1.0
C      1  0.5426150000000  0.4519790000000  0.5086480000000 1.0
C      1  0.5389380000000  0.5278670000000  0.5178390000000 1.0
C      1  0.5230780000000  0.5220110000000  0.5473440000000 1.0
C      1  0.5321710000000  0.4593580000000  0.5360740000000 1.0
C      1  0.4313040000000  0.4279920000000  0.5399780000000 1.0
C      1  0.4383280000000  0.5681650000000  0.5386010000000 1.0
C      1  0.5313160000000  0.4617600000000  0.4717690000000 1.0
C      1  0.5324110000000  0.5282600000000  0.4744400000000 1.0
C      1  0.4803530000000  0.4526530000000  0.4969750000000 1.0
C      1  0.4834360000000  0.5401810000000  0.4999150000000 1.0
C      1  0.5104470000000  0.5878130000000  0.4929560000000 1.0
C      1  0.5004170000000  0.4008250000000  0.4907780000000 1.0
C      1  0.4021960000000  0.4563060000000  0.5032890000000 1.0
C      1  0.4057940000000  0.5438020000000  0.5041640000000 1.0
C      1  0.4347840000000  0.5454630000000  0.4357190000000 1.0
C      1  0.4339420000000  0.4483140000000  0.4362280000000 1.0
C      1  0.5694160000000  0.5248100000000  0.5040880000000 1.0
C      1  0.5743110000000  0.4601690000000  0.4993430000000 1.0
C      1  0.4764040000000  0.5668410000000  0.5490450000000 1.0
C      1  0.4700760000000  0.4282110000000  0.5479920000000 1.0
C      1  0.4409850000000  0.5386350000000  0.5217360000000 1.0
C      1  0.4378650000000  0.4546280000000  0.5207170000000 1.0
C      1  0.4506280000000  0.4735880000000  0.5658540000000 1.0
C      1  0.4536220000000  0.5288690000000  0.5685640000000 1.0
C      1  0.5190470000000  0.5263310000000  0.5937620000000 1.0
C      1  0.5204340000000  0.4675500000000  0.5901500000000 1.0
C      1  0.5107750000000  0.4487290000000  0.4958190000000 1.0
C      1  0.5149230000000  0.5422110000000  0.4989790000000 1.0
C      1  0.5311550000000  0.5754750000000  0.4717130000000 1.0
C      1  0.5256220000000  0.4129040000000  0.4725910000000 1.0
C      1  0.4632390000000  0.5318560000000  0.4229900000000 1.0
C      1  0.4571530000000  0.4647000000000  0.4244180000000 1.0
C      1  0.4712130000000  0.5469810000000  0.4518970000000 1.0
C      1  0.4696140000000  0.4477300000000  0.4540240000000 1.0
C      1  0.5386410000000  0.5413910000000  0.5783670000000 1.0
C      1  0.5356360000000  0.4472800000000  0.5739590000000 1.0
C      1  0.5200870000000  0.5644290000000  0.4248710000000 1.0
C      1  0.5133010000000  0.4303210000000  0.4262680000000 1.0
C      1  0.4945780000000  0.4654620000000  0.4620220000000 1.0
C      1  0.4978200000000  0.5284740000000  0.4555390000000 1.0
C      1  0.5586790000000  0.4174080000000  0.4656420000000 1.0
C      1  0.5576140000000  0.5696100000000  0.4806030000000 1.0
C      1  0.4969040000000  0.4567570000000  0.5742790000000 1.0
C      1  0.4939130000000  0.5352580000000  0.5823470000000 1.0
C      1  0.5947960000000  0.5464450000000  0.4971980000000 1.0
C      1  0.5924180000000  0.4353060000000  0.4882360000000 1.0
C      1  0.5011030000000  0.4560770000000  0.5453240000000 1.0
C      1  0.4961760000000  0.5328920000000  0.5537280000000 1.0
C      1  0.5654290000000  0.4339350000000  0.5360330000000 1.0
C      1  0.5686440000000  0.5438420000000  0.5411540000000 1.0
C      1  0.4966700000000  0.5865000000000  0.5217420000000 1.0
C      1  0.4862980000000  0.4038310000000  0.5215700000000 1.0
C      1  0.5611090000000  0.5395240000000  0.4768860000000 1.0
C      1  0.5593700000000  0.4510590000000  0.4722010000000 1.0
C      1  0.5400860000000  0.4202020000000  0.5355620000000 1.0
C      1  0.5476530000000  0.5628070000000  0.5378430000000 1.0
C      1  0.5936940000000  0.4351910000000  0.4594830000000 1.0
C      1  0.5986980000000  0.5511170000000  0.4705050000000 1.0
C      1  0.4681030000000  0.5484590000000  0.5924320000000 1.0
C      1  0.4691050000000  0.4515770000000  0.5821230000000 1.0
C      1  0.5490460000000  0.4212690000000  0.4966730000000 1.0
C      1  0.5639630000000  0.5809810000000  0.5066450000000 1.0
C      1  0.5192870000000  0.4629860000000  0.4190730000000 1.0
C      1  0.5249220000000  0.5305240000000  0.4218100000000 1.0
C      1  0.4575480000000  0.4679820000000  0.4765360000000 1.0
C      1  0.4607180000000  0.5277290000000  0.4774380000000 1.0
C      1  0.5300030000000  0.5637230000000  0.5601970000000 1.0
C      1  0.5237510000000  0.4249820000000  0.5588250000000 1.0
C      1  0.5925530000000  0.5478710000000  0.5270010000000 1.0
C      1  0.5856290000000  0.4264840000000  0.5172200000000 1.0
C      1  0.4306390000000  0.4560810000000  0.4897170000000 1.0
C      1  0.4345240000000  0.5419000000000  0.4906320000000 1.0
C      1  0.5701430000000  0.4461270000000  0.4415450000000 1.0
C      1  0.5773700000000  0.5348880000000  0.4501980000000 1.0
C      1  0.4645350000000  0.5758010000000  0.5179850000000 1.0
C      1  0.4560830000000  0.4191280000000  0.5180200000000 1.0
C      1  0.4569310000000  0.4982380000000  0.4301140000000 1.0
C      1  0.3582800000000  0.4874380000000  0.4429360000000 1.0
C      1  0.4369930000000  0.5005360000000  0.5909020000000 1.0
C      1  0.5334290000000  0.4958010000000  0.5198920000000 1.0
C      1  0.4275290000000  0.4854910000000  0.3523250000000 1.0
C      1  0.6188280000000  0.5019840000000  0.3747180000000 1.0
C      1  0.4729220000000  0.5151790000000  0.3662570000000 1.0
C      1  0.6048200000000  0.5288300000000  0.6081730000000 1.0
C      1  0.4362030000000  0.4991730000000  0.5343130000000 1.0
C      1  0.3714500000000  0.5041370000000  0.5715800000000 1.0
C      1  0.5046710000000  0.5145600000000  0.6547610000000 1.0
C      1  0.4638930000000  0.4994620000000  0.6067850000000 1.0
C      1  0.3788870000000  0.5095950000000  0.6032570000000 1.0
C      1  0.4924520000000  0.4967780000000  0.4579920000000 1.0
C      1  0.5749690000000  0.4957670000000  0.4207450000000 1.0
C      1  0.5632310000000  0.4985850000000  0.5905960000000 1.0
C      1  0.4924660000000  0.4959840000000  0.5891160000000 1.0
C      1  0.4374410000000  0.5029460000000  0.3799790000000 1.0
C      1  0.4286500000000  0.5135640000000  0.6373300000000 1.0
C      1  0.3596890000000  0.4893190000000  0.4995600000000 1.0
C      1  0.6319470000000  0.5094520000000  0.4874040000000 1.0
C      1  0.4909120000000  0.5410350000000  0.3542280000000 1.0
C      1  0.4687430000000  0.4888750000000  0.5313010000000 1.0
C      1  0.5329330000000  0.4988510000000  0.3916800000000 1.0
C      1  0.3494880000000  0.4925540000000  0.5257330000000 1.0
C      1  0.5291250000000  0.4886090000000  0.5525230000000 1.0
C      1  0.4410560000000  0.4990230000000  0.5043390000000 1.0
C      1  0.6277330000000  0.5091900000000  0.5151690000000 1.0
C      1  0.5684530000000  0.4888810000000  0.5595390000000 1.0
C      1  0.4475860000000  0.5096030000000  0.3477320000000 1.0
C      1  0.4072470000000  0.5024820000000  0.4477710000000 1.0
C      1  0.3826090000000  0.4934360000000  0.4673050000000 1.0
C      1  0.3689800000000  0.4996920000000  0.5449020000000 1.0
C      1  0.6405660000000  0.5217050000000  0.5382820000000 1.0
C      1  0.4558740000000  0.5090440000000  0.6359030000000 1.0
C      1  0.5012850000000  0.4951160000000  0.4901610000000 1.0
C      1  0.5182520000000  0.5441650000000  0.3435680000000 1.0
C      1  0.3817700000000  0.4955880000000  0.4275680000000 1.0
C      1  0.3964990000000  0.5006330000000  0.5303570000000 1.0
C      1  0.6322450000000  0.5215460000000  0.5661720000000 1.0
C      1  0.4986600000000  0.5001710000000  0.3928430000000 1.0
C      1  0.4020020000000  0.5132220000000  0.5786850000000 1.0
C      1  0.5975760000000  0.4948350000000  0.4002170000000 1.0
C      1  0.4647950000000  0.5016360000000  0.3961210000000 1.0
C      1  0.6043600000000  0.4950800000000  0.5231840000000 1.0
C      1  0.6279310000000  0.5378700000000  0.5913620000000 1.0
C      1  0.6289000000000  0.5048380000000  0.4060170000000 1.0
C      1  0.3899180000000  0.5011470000000  0.4009650000000 1.0
C      1  0.5593130000000  0.4981330000000  0.3905450000000 1.0
C      1  0.5300110000000  0.4957140000000  0.4710250000000 1.0
C      1  0.5359710000000  0.5202570000000  0.3506480000000 1.0
C      1  0.6160840000000  0.5050710000000  0.4572850000000 1.0
C      1  0.4205410000000  0.4983790000000  0.4787320000000 1.0
C      1  0.4708670000000  0.4972980000000  0.4993120000000 1.0
C      1  0.3490660000000  0.4855470000000  0.4724890000000 1.0
C      1  0.5605580000000  0.5112180000000  0.3527820000000 1.0
C      1  0.5825690000000  0.4931920000000  0.5027840000000 1.0
C      1  0.6373810000000  0.5078100000000  0.4311580000000 1.0
C      1  0.4646790000000  0.5025390000000  0.5621100000000 1.0
C      1  0.5016360000000  0.4939470000000  0.5244610000000 1.0
C      1  0.4775730000000  0.5132350000000  0.6531010000000 1.0
C      1  0.3928940000000  0.4948570000000  0.4984000000000 1.0
C      1  0.4974070000000  0.4935000000000  0.5586170000000 1.0
C      1  0.6495430000000  0.5120770000000  0.4605930000000 1.0
C      1  0.4963710000000  0.5009390000000  0.6182680000000 1.0
C      1  0.5831080000000  0.5393330000000  0.6277480000000 1.0
C      1  0.5258710000000  0.5107410000000  0.6300480000000 1.0
C      1  0.4120130000000  0.5101010000000  0.6111930000000 1.0
C      1  0.5235520000000  0.4964460000000  0.4237050000000 1.0
C      1  0.5970420000000  0.4914450000000  0.5495180000000 1.0
C      1  0.5068570000000  0.5118820000000  0.3638700000000 1.0
C      1  0.5874900000000  0.5058850000000  0.4493920000000 1.0
C      1  0.4248170000000  0.5030320000000  0.5591700000000 1.0
C      1  0.5499750000000  0.4938560000000  0.4430650000000 1.0
C      1  0.5853380000000  0.5001560000000  0.3688940000000 1.0
C      1  0.4159550000000  0.5097500000000  0.3992670000000 1.0
C      1  0.5482470000000  0.4897630000000  0.4968340000000 1.0
C      1  0.4519080000000  0.4978820000000  0.4641860000000 1.0
C      1  0.6122080000000  0.5004750000000  0.5711010000000 1.0
C      1  0.5963000000000  0.5045370000000  0.5945360000000 1.0
C      1  0.5649700000000  0.5272540000000  0.6038380000000 1.0
C      1  0.4269420000000  0.5145380000000  0.4277080000000 1.0
C      1  0.5314020000000  0.4951730000000  0.6000730000000 1.0
C      1  0.4908930000000  0.5001240000000  0.4260690000000 1.0
C      1  0.5512200000000  0.5282100000000  0.6321580000000 1.0
C      1  0.5696340000000  0.4908390000000  0.4703130000000 1.0
END
