TITL C-2782225-7408-1134 0.00416901667523318 125000 -340.286873314257 0 0 60 (C1) n - 1
REM
REM in /home/nfs/bkarasulu/CARBON/AIRSS/Generating-Clusters/REBO/Higher-Symm/SD-CG/HFTN-CG
REM
REM
REM
REM
REM
REM ./C.cell (12c818d87b63d06a65506943cc24bca4)
REM
REM compiler GCC version 9.2.1 20190827 (Red Hat 9.2.1-1)
REM options -cpp -mtune=generic -march=x86-64 -g -O0 -fpre-include=/usr/include/finclude/math-vector-fortran.h
REM seed -1409480475 2115150273 1395270286 2127577704 936417958 1286892617 -235495370 -1632360826 978785109 -2070388721 240518216 -214784358 -266114253 -586006508 -523503271 1456345478 -1060917589 -178744657 587756007 -1496123402 -1569152523 1458094539 -972385712 -453253810 -1171430259 1128847765 1778564429 1162095746 1738000078 -1957435470 1005930472 1801178108 -361955412
REM
CELL 1.54180   50.00000   50.00000   50.00000   90.00000   90.00000   90.00000
LATT -1
SFAC C  
C      1  0.4394720000000  0.5261030000000  0.4748440000000 1.0
C      1  0.5610090000000  0.5269960000000  0.4715350000000 1.0
C      1  0.4846520000000  0.4639910000000  0.4772030000000 1.0
C      1  0.5139030000000  0.4604700000000  0.4822310000000 1.0
C      1  0.4769730000000  0.5114450000000  0.5793020000000 1.0
C      1  0.5093840000000  0.5119620000000  0.5775270000000 1.0
C      1  0.5516510000000  0.5071820000000  0.5109970000000 1.0
C      1  0.4547170000000  0.5036850000000  0.5101880000000 1.0
C      1  0.4888530000000  0.4801220000000  0.5063940000000 1.0
C      1  0.5261010000000  0.4674410000000  0.5110940000000 1.0
C      1  0.4655560000000  0.4821600000000  0.5547600000000 1.0
C      1  0.5374450000000  0.4835970000000  0.5537560000000 1.0
C      1  0.4700050000000  0.5358210000000  0.4626650000000 1.0
C      1  0.5293960000000  0.5342130000000  0.4606220000000 1.0
C      1  0.5472370000000  0.5434030000000  0.4947810000000 1.0
C      1  0.4529790000000  0.5415740000000  0.4978640000000 1.0
C      1  0.4574920000000  0.5206810000000  0.5615460000000 1.0
C      1  0.5216910000000  0.5213980000000  0.5543250000000 1.0
C      1  0.5387900000000  0.4991080000000  0.4252920000000 1.0
C      1  0.4520040000000  0.5037540000000  0.4289300000000 1.0
C      1  0.4507350000000  0.5263480000000  0.5347390000000 1.0
C      1  0.5456290000000  0.5276030000000  0.5376900000000 1.0
C      1  0.5531850000000  0.4518410000000  0.5189140000000 1.0
C      1  0.4448990000000  0.4534230000000  0.5181590000000 1.0
C      1  0.4578130000000  0.5539690000000  0.5240330000000 1.0
C      1  0.5428700000000  0.5524740000000  0.5214690000000 1.0
C      1  0.4491870000000  0.4755960000000  0.4457360000000 1.0
C      1  0.5401930000000  0.4834670000000  0.4510490000000 1.0
C      1  0.4721430000000  0.4377420000000  0.5316200000000 1.0
C      1  0.5243770000000  0.4379940000000  0.5375010000000 1.0
C      1  0.4781630000000  0.4975490000000  0.5314050000000 1.0
C      1  0.5269860000000  0.4943150000000  0.5257190000000 1.0
C      1  0.5719610000000  0.5024400000000  0.4770370000000 1.0
C      1  0.4286920000000  0.5016350000000  0.4799870000000 1.0
C      1  0.5165030000000  0.5661220000000  0.5247450000000 1.0
C      1  0.4848330000000  0.5627510000000  0.5255120000000 1.0
C      1  0.4531860000000  0.4587800000000  0.5486590000000 1.0
C      1  0.5464170000000  0.4574840000000  0.5503820000000 1.0
C      1  0.4419750000000  0.4759850000000  0.4976920000000 1.0
C      1  0.5623570000000  0.4774640000000  0.4981470000000 1.0
C      1  0.5417150000000  0.4687320000000  0.4743150000000 1.0
C      1  0.4573850000000  0.4674090000000  0.4711880000000 1.0
C      1  0.4706140000000  0.5248450000000  0.4347930000000 1.0
C      1  0.5253600000000  0.5240780000000  0.4325870000000 1.0
C      1  0.5215990000000  0.4837940000000  0.4072060000000 1.0
C      1  0.4675600000000  0.4770500000000  0.4189650000000 1.0
C      1  0.5271200000000  0.5156370000000  0.4888840000000 1.0
C      1  0.4754600000000  0.5161780000000  0.4886230000000 1.0
C      1  0.4939120000000  0.4834540000000  0.5829170000000 1.0
C      1  0.4947680000000  0.4568370000000  0.5750850000000 1.0
C      1  0.5075130000000  0.4924760000000  0.4492790000000 1.0
C      1  0.4955100000000  0.4786520000000  0.4205790000000 1.0
C      1  0.4988450000000  0.4495400000000  0.5174880000000 1.0
C      1  0.5035470000000  0.5148590000000  0.5269960000000 1.0
C      1  0.4968190000000  0.4380050000000  0.5551150000000 1.0
C      1  0.5018760000000  0.5398530000000  0.5081030000000 1.0
C      1  0.4966290000000  0.5177780000000  0.4286900000000 1.0
C      1  0.5008260000000  0.5756190000000  0.4707170000000 1.0
C      1  0.5018330000000  0.4996990000000  0.4817840000000 1.0
C      1  0.5005170000000  0.5444720000000  0.4758330000000 1.0
END
