TITL C-2782232-2968-1356 -0.00604117932759914 125000 -444.548939204566 0 0 78 (C1) n - 1
REM
REM in /home/nfs/bkarasulu/CARBON/AIRSS/Generating-Clusters/REBO/Higher-Symm/SD-CG/HFTN-CG
REM
REM
REM
REM
REM
REM ./C.cell (12c818d87b63d06a65506943cc24bca4)
REM
REM compiler GCC version 9.2.1 20190827 (Red Hat 9.2.1-1)
REM options -cpp -mtune=generic -march=x86-64 -g -O0 -fpre-include=/usr/include/finclude/math-vector-fortran.h
REM seed -28826769 1890822235 -468952756 158939853 1286961937 -1213035741 1564548111 1304365771 -1256014840 -1034133760 -986848746 352582858 -1086666224 109197500 810843142 1301917118 -820848405 -1681393378 -276690662 -1901818865 1965887381 -1053551890 1887455041 620155867 -2134659330 289267872 1684951038 -1516670641 62153425 1445481624 -1708407495 -1643899465 888928643
REM
CELL 1.54180   50.00000   50.00000   50.00000   90.00000   90.00000   90.00000
LATT -1
SFAC C  
C      1  0.4581860000000  0.4868810000000  0.4433200000000 1.0
C      1  0.5405910000000  0.5157490000000  0.5585340000000 1.0
C      1  0.5208020000000  0.5493220000000  0.4905490000000 1.0
C      1  0.4780460000000  0.4492310000000  0.5071420000000 1.0
C      1  0.4982510000000  0.5546120000000  0.5367670000000 1.0
C      1  0.4988560000000  0.4462400000000  0.4613120000000 1.0
C      1  0.4663930000000  0.5256840000000  0.4840230000000 1.0
C      1  0.5307120000000  0.4768070000000  0.5216610000000 1.0
C      1  0.5543760000000  0.4692310000000  0.4903080000000 1.0
C      1  0.4425860000000  0.5255140000000  0.5139470000000 1.0
C      1  0.4931130000000  0.5087470000000  0.5084760000000 1.0
C      1  0.5058410000000  0.4905540000000  0.4936200000000 1.0
C      1  0.4546010000000  0.4805910000000  0.4967010000000 1.0
C      1  0.5443390000000  0.5200200000000  0.5041030000000 1.0
C      1  0.4989630000000  0.5108660000000  0.5818370000000 1.0
C      1  0.5006320000000  0.4899240000000  0.4202110000000 1.0
C      1  0.4829740000000  0.4655990000000  0.5775990000000 1.0
C      1  0.5198340000000  0.5346420000000  0.4194200000000 1.0
C      1  0.5273410000000  0.5089960000000  0.5290630000000 1.0
C      1  0.4716990000000  0.4937570000000  0.4731650000000 1.0
C      1  0.4561220000000  0.5285740000000  0.5450180000000 1.0
C      1  0.5430150000000  0.4694570000000  0.4580120000000 1.0
C      1  0.4281010000000  0.4600580000000  0.5177360000000 1.0
C      1  0.5713430000000  0.5406820000000  0.4837410000000 1.0
C      1  0.4989210000000  0.4258380000000  0.5203540000000 1.0
C      1  0.5046830000000  0.5758710000000  0.4763350000000 1.0
C      1  0.5638370000000  0.5710260000000  0.4972180000000 1.0
C      1  0.4408130000000  0.4303470000000  0.5068150000000 1.0
C      1  0.4460310000000  0.5162820000000  0.4515320000000 1.0
C      1  0.5546790000000  0.4866130000000  0.5503770000000 1.0
C      1  0.4971800000000  0.5475330000000  0.4496910000000 1.0
C      1  0.5067930000000  0.4554740000000  0.5455290000000 1.0
C      1  0.5433720000000  0.5775810000000  0.5245040000000 1.0
C      1  0.4564440000000  0.4227280000000  0.4767780000000 1.0
C      1  0.4434390000000  0.4521490000000  0.4820650000000 1.0
C      1  0.5564140000000  0.5477920000000  0.5197080000000 1.0
C      1  0.5347660000000  0.5528430000000  0.4374000000000 1.0
C      1  0.4705450000000  0.4466330000000  0.5598570000000 1.0
C      1  0.4551500000000  0.5685430000000  0.5178220000000 1.0
C      1  0.5397230000000  0.4255150000000  0.4782350000000 1.0
C      1  0.5139860000000  0.5748640000000  0.4439650000000 1.0
C      1  0.4923780000000  0.4265050000000  0.5526070000000 1.0
C      1  0.5319890000000  0.4778400000000  0.5679580000000 1.0
C      1  0.4690820000000  0.5241630000000  0.4337850000000 1.0
C      1  0.5347350000000  0.4959630000000  0.4866340000000 1.0
C      1  0.4650410000000  0.5018520000000  0.5166690000000 1.0
C      1  0.5267040000000  0.4448970000000  0.5215690000000 1.0
C      1  0.4780100000000  0.5549530000000  0.4725220000000 1.0
C      1  0.5649550000000  0.5230070000000  0.5381600000000 1.0
C      1  0.4342650000000  0.4762410000000  0.4626320000000 1.0
C      1  0.5438700000000  0.5394100000000  0.4675150000000 1.0
C      1  0.4578710000000  0.4597190000000  0.5309840000000 1.0
C      1  0.5202160000000  0.5287630000000  0.5753720000000 1.0
C      1  0.4776410000000  0.4736760000000  0.4254230000000 1.0
C      1  0.5140100000000  0.5260650000000  0.4579730000000 1.0
C      1  0.4874960000000  0.4752400000000  0.5381410000000 1.0
C      1  0.4544020000000  0.5566380000000  0.4936380000000 1.0
C      1  0.5475120000000  0.4404310000000  0.4999620000000 1.0
C      1  0.4825830000000  0.4474890000000  0.4329890000000 1.0
C      1  0.5135020000000  0.5540700000000  0.5662220000000 1.0
C      1  0.5222160000000  0.5765840000000  0.5449820000000 1.0
C      1  0.4750330000000  0.4242610000000  0.4540080000000 1.0
C      1  0.5058520000000  0.4828510000000  0.5791270000000 1.0
C      1  0.4954420000000  0.5185580000000  0.4219100000000 1.0
C      1  0.4891930000000  0.4657770000000  0.4835570000000 1.0
C      1  0.5092190000000  0.5348760000000  0.5157350000000 1.0
C      1  0.5256480000000  0.4825580000000  0.4316840000000 1.0
C      1  0.4730130000000  0.5161470000000  0.5717950000000 1.0
C      1  0.4346540000000  0.5126110000000  0.4834290000000 1.0
C      1  0.5630790000000  0.4874850000000  0.5174350000000 1.0
C      1  0.4684710000000  0.5557220000000  0.5377860000000 1.0
C      1  0.5281250000000  0.4418230000000  0.4593910000000 1.0
C      1  0.4714650000000  0.4153780000000  0.5056130000000 1.0
C      1  0.5316370000000  0.5816710000000  0.4938790000000 1.0
C      1  0.4640960000000  0.4955010000000  0.5481350000000 1.0
C      1  0.5344400000000  0.5023710000000  0.4558250000000 1.0
C      1  0.4211350000000  0.4830050000000  0.4935240000000 1.0
C      1  0.5775310000000  0.5165330000000  0.5069810000000 1.0
END
