TITL C-2782230-7391-1425 -0.000281613908580564 125000 -854.503450870076 0 0 147 (C1) n - 1
REM
REM in /home/nfs/bkarasulu/CARBON/AIRSS/Generating-Clusters/REBO/Higher-Symm/SD-CG/HFTN-CG
REM
REM
REM
REM
REM
REM ./C.cell (12c818d87b63d06a65506943cc24bca4)
REM
REM compiler GCC version 9.2.1 20190827 (Red Hat 9.2.1-1)
REM options -cpp -mtune=generic -march=x86-64 -g -O0 -fpre-include=/usr/include/finclude/math-vector-fortran.h
REM seed -2014808311 772919389 -1952547084 -1083313996 -1527200329 -314259831 -1510832032 -948090353 -2053020957 -1489614117 -645955100 734176618 -920187022 -44188899 -1091096990 -97092847 537454235 -1773678808 908716687 128475574 -750803358 -1640337136 -2012489392 921217345 1077109133 58717523 -421936728 -235056472 670483931 1141033066 -148130309 1346942407 1405758920
REM
CELL 1.54180   50.00000   50.00000   50.00000   90.00000   90.00000   90.00000
LATT -1
SFAC C  
C      1  0.5719190000000  0.5813410000000  0.5240650000000 1.0
C      1  0.3890040000000  0.5334110000000  0.5225450000000 1.0
C      1  0.5476660000000  0.3977650000000  0.5286710000000 1.0
C      1  0.4344230000000  0.5802660000000  0.4733290000000 1.0
C      1  0.6042150000000  0.5184930000000  0.4682190000000 1.0
C      1  0.4714640000000  0.4021250000000  0.4682810000000 1.0
C      1  0.4802740000000  0.4761430000000  0.5542610000000 1.0
C      1  0.5293680000000  0.5022130000000  0.5435360000000 1.0
C      1  0.4838250000000  0.5318230000000  0.5540220000000 1.0
C      1  0.5143090000000  0.4707640000000  0.4503320000000 1.0
C      1  0.4691660000000  0.5033770000000  0.4495680000000 1.0
C      1  0.5150340000000  0.5238910000000  0.4508180000000 1.0
C      1  0.5030030000000  0.4572570000000  0.5869030000000 1.0
C      1  0.5349570000000  0.5117440000000  0.5745450000000 1.0
C      1  0.4628480000000  0.5072110000000  0.5930750000000 1.0
C      1  0.5118910000000  0.4678420000000  0.4173490000000 1.0
C      1  0.4643400000000  0.5104840000000  0.4188530000000 1.0
C      1  0.5351160000000  0.5257480000000  0.4161580000000 1.0
C      1  0.4727940000000  0.4673710000000  0.5045210000000 1.0
C      1  0.5412970000000  0.4988020000000  0.5024650000000 1.0
C      1  0.4823980000000  0.5355600000000  0.5115520000000 1.0
C      1  0.5280110000000  0.4694790000000  0.4981970000000 1.0
C      1  0.4536180000000  0.4952460000000  0.5033750000000 1.0
C      1  0.5077710000000  0.5332080000000  0.4926670000000 1.0
C      1  0.5488880000000  0.4545230000000  0.5652100000000 1.0
C      1  0.5357450000000  0.5644040000000  0.5595340000000 1.0
C      1  0.4175110000000  0.4947000000000  0.5608130000000 1.0
C      1  0.4536460000000  0.4561390000000  0.4323090000000 1.0
C      1  0.4787150000000  0.5602040000000  0.4289520000000 1.0
C      1  0.5699160000000  0.4841710000000  0.4354420000000 1.0
C      1  0.4930530000000  0.5652570000000  0.5110830000000 1.0
C      1  0.4440790000000  0.4602150000000  0.5191660000000 1.0
C      1  0.5650200000000  0.4775190000000  0.5100050000000 1.0
C      1  0.5058560000000  0.5610170000000  0.4796290000000 1.0
C      1  0.5528360000000  0.4625700000000  0.4817490000000 1.0
C      1  0.4367080000000  0.4736120000000  0.4884460000000 1.0
C      1  0.4147130000000  0.4456520000000  0.4708950000000 1.0
C      1  0.5858730000000  0.4423690000000  0.4718360000000 1.0
C      1  0.5027230000000  0.5986780000000  0.4673900000000 1.0
C      1  0.5855500000000  0.4478640000000  0.5271060000000 1.0
C      1  0.4076800000000  0.4495740000000  0.5300890000000 1.0
C      1  0.4985790000000  0.6005730000000  0.5273970000000 1.0
C      1  0.4031410000000  0.4742690000000  0.5122010000000 1.0
C      1  0.5670830000000  0.4311920000000  0.5134190000000 1.0
C      1  0.5235140000000  0.5926250000000  0.5105350000000 1.0
C      1  0.5940800000000  0.4719020000000  0.4827190000000 1.0
C      1  0.4344610000000  0.4337050000000  0.4888270000000 1.0
C      1  0.4746330000000  0.5864610000000  0.4799320000000 1.0
C      1  0.4325300000000  0.4288270000000  0.5196420000000 1.0
C      1  0.5985970000000  0.4745190000000  0.5135090000000 1.0
C      1  0.4713210000000  0.5909700000000  0.5111630000000 1.0
C      1  0.5688660000000  0.4252670000000  0.4861840000000 1.0
C      1  0.4033750000000  0.4751530000000  0.4809830000000 1.0
C      1  0.5264180000000  0.5953580000000  0.4824940000000 1.0
C      1  0.4729900000000  0.4226370000000  0.5587740000000 1.0
C      1  0.5837800000000  0.5059610000000  0.5565070000000 1.0
C      1  0.4437700000000  0.5678660000000  0.5465120000000 1.0
C      1  0.5354520000000  0.4379410000000  0.4429760000000 1.0
C      1  0.4181060000000  0.5101410000000  0.4387410000000 1.0
C      1  0.5354410000000  0.5593050000000  0.4416590000000 1.0
C      1  0.4769550000000  0.4051360000000  0.4983330000000 1.0
C      1  0.5979260000000  0.5230890000000  0.4967550000000 1.0
C      1  0.4255020000000  0.5778870000000  0.5010220000000 1.0
C      1  0.5324560000000  0.4034050000000  0.5003170000000 1.0
C      1  0.4055580000000  0.5260680000000  0.4932270000000 1.0
C      1  0.5686200000000  0.5718360000000  0.4962490000000 1.0
C      1  0.4549890000000  0.5402380000000  0.4199540000000 1.0
C      1  0.4860300000000  0.4524350000000  0.4290240000000 1.0
C      1  0.5497500000000  0.5068620000000  0.4405840000000 1.0
C      1  0.5473450000000  0.5401160000000  0.5696450000000 1.0
C      1  0.5204970000000  0.4413250000000  0.5728190000000 1.0
C      1  0.4392110000000  0.5137400000000  0.5726800000000 1.0
C      1  0.5447830000000  0.5727530000000  0.4720420000000 1.0
C      1  0.4096950000000  0.5052990000000  0.4715590000000 1.0
C      1  0.5401860000000  0.4228050000000  0.4735140000000 1.0
C      1  0.4441540000000  0.5840860000000  0.5223990000000 1.0
C      1  0.5914090000000  0.5044210000000  0.5230800000000 1.0
C      1  0.4630670000000  0.4196220000000  0.5259050000000 1.0
C      1  0.4615180000000  0.4294230000000  0.4502120000000 1.0
C      1  0.5973650000000  0.4891020000000  0.4550030000000 1.0
C      1  0.4597330000000  0.5797360000000  0.4499130000000 1.0
C      1  0.5520160000000  0.4243060000000  0.5497720000000 1.0
C      1  0.3935760000000  0.5101010000000  0.5472880000000 1.0
C      1  0.5553030000000  0.5839890000000  0.5496070000000 1.0
C      1  0.5449190000000  0.4642500000000  0.4232710000000 1.0
C      1  0.5103230000000  0.5492740000000  0.4209360000000 1.0
C      1  0.4405930000000  0.4872850000000  0.4271010000000 1.0
C      1  0.4720450000000  0.4517330000000  0.5765470000000 1.0
C      1  0.4861840000000  0.5225400000000  0.5842610000000 1.0
C      1  0.5572710000000  0.4876720000000  0.5681640000000 1.0
C      1  0.4261730000000  0.4718070000000  0.5458840000000 1.0
C      1  0.5683400000000  0.4700640000000  0.5426550000000 1.0
C      1  0.5092210000000  0.5707890000000  0.5406940000000 1.0
C      1  0.5670340000000  0.4603940000000  0.4558630000000 1.0
C      1  0.4328060000000  0.4687990000000  0.4547960000000 1.0
C      1  0.4987280000000  0.5716140000000  0.4518440000000 1.0
C      1  0.5870660000000  0.5391820000000  0.4533110000000 1.0
C      1  0.4295360000000  0.5548530000000  0.4580810000000 1.0
C      1  0.4934230000000  0.4056460000000  0.4472100000000 1.0
C      1  0.4123330000000  0.5444000000000  0.5443420000000 1.0
C      1  0.5831850000000  0.5565930000000  0.5413570000000 1.0
C      1  0.5188240000000  0.4052300000000  0.5384880000000 1.0
C      1  0.4644960000000  0.5122200000000  0.5252810000000 1.0
C      1  0.5104070000000  0.4630080000000  0.5173260000000 1.0
C      1  0.5310820000000  0.5274600000000  0.5126740000000 1.0
C      1  0.5134080000000  0.5041920000000  0.4854580000000 1.0
C      1  0.4869620000000  0.4873760000000  0.4830290000000 1.0
C      1  0.4712100000000  0.5182680000000  0.4864770000000 1.0
C      1  0.4538700000000  0.5391850000000  0.5387320000000 1.0
C      1  0.4801890000000  0.4468560000000  0.5377370000000 1.0
C      1  0.5600870000000  0.5120370000000  0.5347620000000 1.0
C      1  0.5389330000000  0.5394030000000  0.4685160000000 1.0
C      1  0.5143710000000  0.4447420000000  0.4700880000000 1.0
C      1  0.4418880000000  0.5069370000000  0.4619160000000 1.0
C      1  0.5062300000000  0.4324310000000  0.5229640000000 1.0
C      1  0.5569650000000  0.5441900000000  0.5244840000000 1.0
C      1  0.4280870000000  0.5271600000000  0.5194260000000 1.0
C      1  0.4896190000000  0.4450690000000  0.4876720000000 1.0
C      1  0.4421800000000  0.5346530000000  0.4793260000000 1.0
C      1  0.5650070000000  0.5246770000000  0.4727150000000 1.0
C      1  0.5030290000000  0.4831170000000  0.6016750000000 1.0
C      1  0.5105250000000  0.5091540000000  0.5917250000000 1.0
C      1  0.4715210000000  0.4793040000000  0.5969300000000 1.0
C      1  0.5082040000000  0.4965550000000  0.4046100000000 1.0
C      1  0.4964810000000  0.5181360000000  0.4222040000000 1.0
C      1  0.5397580000000  0.4932740000000  0.4051110000000 1.0
C      1  0.5749770000000  0.5370700000000  0.5621660000000 1.0
C      1  0.4300110000000  0.5461330000000  0.5691810000000 1.0
C      1  0.5065310000000  0.4197170000000  0.5608640000000 1.0
C      1  0.4292250000000  0.5405830000000  0.4335640000000 1.0
C      1  0.5608680000000  0.5376750000000  0.4351840000000 1.0
C      1  0.5045610000000  0.4276510000000  0.4354380000000 1.0
C      1  0.4821830000000  0.4757060000000  0.4535750000000 1.0
C      1  0.5281550000000  0.4953340000000  0.4590300000000 1.0
C      1  0.4863290000000  0.5293930000000  0.4591350000000 1.0
C      1  0.5081440000000  0.4796980000000  0.5398360000000 1.0
C      1  0.4648890000000  0.5014080000000  0.5539210000000 1.0
C      1  0.5099160000000  0.5288100000000  0.5392350000000 1.0
C      1  0.4096560000000  0.4993070000000  0.5221420000000 1.0
C      1  0.5389130000000  0.4358200000000  0.5227720000000 1.0
C      1  0.5352830000000  0.5663630000000  0.5198470000000 1.0
C      1  0.5716660000000  0.4971350000000  0.4763770000000 1.0
C      1  0.4610220000000  0.4387030000000  0.4793950000000 1.0
C      1  0.4676390000000  0.5545260000000  0.4701920000000 1.0
C      1  0.4064160000000  0.5577310000000  0.5058650000000 1.0
C      1  0.5856180000000  0.5487640000000  0.4969610000000 1.0
C      1  0.5044730000000  0.3984650000000  0.5019540000000 1.0
END
