TITL C-2782236-320-691 -0.00120437916729635 125000 -409.464504004414 0 0 73 (C1) n - 1
REM
REM in /home/nfs/bkarasulu/CARBON/AIRSS/Generating-Clusters/REBO/Higher-Symm/SD-CG/HFTN-CG
REM
REM
REM
REM
REM
REM ./C.cell (12c818d87b63d06a65506943cc24bca4)
REM
REM compiler GCC version 9.2.1 20190827 (Red Hat 9.2.1-1)
REM options -cpp -mtune=generic -march=x86-64 -g -O0 -fpre-include=/usr/include/finclude/math-vector-fortran.h
REM seed -893756314 -1248950807 -287669771 -959852125 1449733218 1304859842 -2109201287 1635923404 377785928 -674812391 -341227854 1057461766 1181252233 -1963778354 1928218025 -1300421735 1846204080 -640187742 -1578810599 -550546607 -1489772925 948131619 -101807557 -2033583290 -601581579 -412371741 -1301653378 880398009 -557841837 1986949209 -1317839113 -1919023629 726111076
REM
CELL 1.54180   50.00000   50.00000   50.00000   90.00000   90.00000   90.00000
LATT -1
SFAC C  
C      1  0.5134110000000  0.5786700000000  0.4567990000000 1.0
C      1  0.4820900000000  0.4240800000000  0.4526970000000 1.0
C      1  0.5135490000000  0.5803570000000  0.5474340000000 1.0
C      1  0.4881080000000  0.4217100000000  0.5422760000000 1.0
C      1  0.4768650000000  0.4559320000000  0.5595410000000 1.0
C      1  0.5244870000000  0.5452140000000  0.5628990000000 1.0
C      1  0.4724490000000  0.4562140000000  0.4309700000000 1.0
C      1  0.5242410000000  0.5442490000000  0.4396590000000 1.0
C      1  0.5016200000000  0.4573370000000  0.5796320000000 1.0
C      1  0.4997000000000  0.5425830000000  0.5826050000000 1.0
C      1  0.5013860000000  0.4584900000000  0.4156470000000 1.0
C      1  0.4993730000000  0.5429670000000  0.4197950000000 1.0
C      1  0.5317550000000  0.4467180000000  0.5675410000000 1.0
C      1  0.4696970000000  0.5544020000000  0.5716840000000 1.0
C      1  0.5295330000000  0.4452780000000  0.4288350000000 1.0
C      1  0.4693500000000  0.5537070000000  0.4319940000000 1.0
C      1  0.4760150000000  0.5723710000000  0.4790850000000 1.0
C      1  0.5250440000000  0.4294200000000  0.4930970000000 1.0
C      1  0.4764500000000  0.5712390000000  0.5067580000000 1.0
C      1  0.5255970000000  0.4284460000000  0.5207830000000 1.0
C      1  0.5494220000000  0.5325270000000  0.5182030000000 1.0
C      1  0.4520400000000  0.4697100000000  0.5148180000000 1.0
C      1  0.5498800000000  0.5309870000000  0.4839920000000 1.0
C      1  0.4532240000000  0.4687390000000  0.4805700000000 1.0
C      1  0.5205650000000  0.4598840000000  0.4831760000000 1.0
C      1  0.4808990000000  0.5388480000000  0.4839580000000 1.0
C      1  0.5205740000000  0.4619340000000  0.5157090000000 1.0
C      1  0.4808720000000  0.5407470000000  0.5166120000000 1.0
C      1  0.4902700000000  0.5192150000000  0.4504350000000 1.0
C      1  0.5114760000000  0.4789390000000  0.4483130000000 1.0
C      1  0.4897210000000  0.5212700000000  0.5504570000000 1.0
C      1  0.5110350000000  0.4813350000000  0.5492950000000 1.0
C      1  0.5476220000000  0.4640930000000  0.4398290000000 1.0
C      1  0.4524000000000  0.5336610000000  0.4427810000000 1.0
C      1  0.5487550000000  0.4668140000000  0.5569390000000 1.0
C      1  0.4526330000000  0.5354130000000  0.5596480000000 1.0
C      1  0.5106720000000  0.4889460000000  0.5818750000000 1.0
C      1  0.4897240000000  0.5109870000000  0.5822090000000 1.0
C      1  0.5113700000000  0.4897180000000  0.4167920000000 1.0
C      1  0.4902420000000  0.5115090000000  0.4179110000000 1.0
C      1  0.5206680000000  0.4986820000000  0.4739910000000 1.0
C      1  0.4808490000000  0.4975990000000  0.4739760000000 1.0
C      1  0.5199340000000  0.5026070000000  0.5248670000000 1.0
C      1  0.4801310000000  0.5017160000000  0.5247800000000 1.0
C      1  0.4408990000000  0.5014680000000  0.5178690000000 1.0
C      1  0.5572120000000  0.5022950000000  0.5107050000000 1.0
C      1  0.4437230000000  0.4983420000000  0.4883670000000 1.0
C      1  0.5598300000000  0.4989140000000  0.4813410000000 1.0
C      1  0.5444960000000  0.4791870000000  0.5278100000000 1.0
C      1  0.4560830000000  0.5257790000000  0.5297420000000 1.0
C      1  0.5448820000000  0.4746180000000  0.4694770000000 1.0
C      1  0.4568860000000  0.5217490000000  0.4720030000000 1.0
C      1  0.5303230000000  0.5573820000000  0.5315040000000 1.0
C      1  0.4714960000000  0.4453200000000  0.5276330000000 1.0
C      1  0.5300760000000  0.5550790000000  0.4713910000000 1.0
C      1  0.4727320000000  0.4435990000000  0.4689140000000 1.0
C      1  0.4629370000000  0.5034600000000  0.5621570000000 1.0
C      1  0.5377490000000  0.4974650000000  0.5627400000000 1.0
C      1  0.4634710000000  0.5027760000000  0.4374440000000 1.0
C      1  0.5383600000000  0.4966680000000  0.4368100000000 1.0
C      1  0.4588360000000  0.4771260000000  0.5477210000000 1.0
C      1  0.5416490000000  0.5243340000000  0.5504240000000 1.0
C      1  0.4598610000000  0.4747520000000  0.4476350000000 1.0
C      1  0.5424370000000  0.5231210000000  0.4513320000000 1.0
C      1  0.5018820000000  0.4292700000000  0.4334110000000 1.0
C      1  0.4951660000000  0.5716300000000  0.4380450000000 1.0
C      1  0.5060810000000  0.4287210000000  0.5613100000000 1.0
C      1  0.4954610000000  0.5724560000000  0.5660950000000 1.0
C      1  0.4921500000000  0.4677720000000  0.4714920000000 1.0
C      1  0.5098940000000  0.5297200000000  0.4739930000000 1.0
C      1  0.4915140000000  0.4709040000000  0.5255270000000 1.0
C      1  0.5096420000000  0.5328540000000  0.5279450000000 1.0
C      1  0.5005470000000  0.4997910000000  0.4994250000000 1.0
END
