TITL C-2782226-7400-374 -0.00706816161016488 125000 -524.569684070828 0 0 88 (C1) n - 1
REM
REM in /home/nfs/bkarasulu/CARBON/AIRSS/Generating-Clusters/REBO/Higher-Symm/SD-CG/HFTN-CG
REM
REM
REM
REM
REM
REM ./C.cell (12c818d87b63d06a65506943cc24bca4)
REM
REM compiler GCC version 9.2.1 20190827 (Red Hat 9.2.1-1)
REM options -cpp -mtune=generic -march=x86-64 -g -O0 -fpre-include=/usr/include/finclude/math-vector-fortran.h
REM seed -350277515 431102792 -830071466 594331967 -1927073072 -1371200878 -1388767513 -1270989322 1720413862 -306780889 830234541 1218755357 -1911463414 -14385093 -78877977 -1055000089 182262275 -1322983628 704307166 -1638852322 -1611709895 -307789297 103568630 1369608823 -730973359 -6807267 -1006932191 1731432142 -2025942821 900501555 -549361159 -716845562 493986396
REM
CELL 1.54180   50.00000   50.00000   50.00000   90.00000   90.00000   90.00000
LATT -1
SFAC C  
C      1  0.4934610000000  0.5777470000000  0.4723210000000 1.0
C      1  0.5786840000000  0.5421610000000  0.4727060000000 1.0
C      1  0.5515180000000  0.4402750000000  0.4712090000000 1.0
C      1  0.4613400000000  0.4323900000000  0.4701650000000 1.0
C      1  0.4242010000000  0.5141760000000  0.4714850000000 1.0
C      1  0.4918810000000  0.4225940000000  0.5287210000000 1.0
C      1  0.5723090000000  0.4629970000000  0.5296410000000 1.0
C      1  0.5507130000000  0.5611450000000  0.5293400000000 1.0
C      1  0.4622340000000  0.5666010000000  0.5304250000000 1.0
C      1  0.4257730000000  0.4834290000000  0.5293650000000 1.0
C      1  0.4795530000000  0.4867620000000  0.5908460000000 1.0
C      1  0.4826330000000  0.5173710000000  0.5864200000000 1.0
C      1  0.5120300000000  0.5219190000000  0.5827490000000 1.0
C      1  0.5248850000000  0.4959550000000  0.5804460000000 1.0
C      1  0.5059650000000  0.4740310000000  0.5846770000000 1.0
C      1  0.4765900000000  0.5144650000000  0.4164120000000 1.0
C      1  0.4682660000000  0.4900940000000  0.4049320000000 1.0
C      1  0.4915890000000  0.4694240000000  0.4051960000000 1.0
C      1  0.5164750000000  0.4897870000000  0.4119800000000 1.0
C      1  0.5060070000000  0.5189950000000  0.4191750000000 1.0
C      1  0.5449450000000  0.4934920000000  0.5585850000000 1.0
C      1  0.5093170000000  0.4493200000000  0.5683210000000 1.0
C      1  0.4577410000000  0.4757530000000  0.5695050000000 1.0
C      1  0.4641640000000  0.5340510000000  0.5693960000000 1.0
C      1  0.5228470000000  0.5449930000000  0.5685840000000 1.0
C      1  0.5554140000000  0.5102010000000  0.4463460000000 1.0
C      1  0.5124070000000  0.5459420000000  0.4340850000000 1.0
C      1  0.4625500000000  0.5211630000000  0.4413260000000 1.0
C      1  0.4637730000000  0.4631100000000  0.4249730000000 1.0
C      1  0.5205870000000  0.4630270000000  0.4329710000000 1.0
C      1  0.5629320000000  0.4811080000000  0.4516960000000 1.0
C      1  0.5015040000000  0.4399480000000  0.4465910000000 1.0
C      1  0.4463000000000  0.4769320000000  0.4489370000000 1.0
C      1  0.4649210000000  0.5516940000000  0.4482170000000 1.0
C      1  0.5405350000000  0.5543720000000  0.4455110000000 1.0
C      1  0.5603820000000  0.5192860000000  0.5491390000000 1.0
C      1  0.5029690000000  0.5601850000000  0.5537580000000 1.0
C      1  0.4442740000000  0.5210680000000  0.5521160000000 1.0
C      1  0.4629760000000  0.4506130000000  0.5527920000000 1.0
C      1  0.5327560000000  0.4482550000000  0.5511040000000 1.0
C      1  0.5126530000000  0.4757990000000  0.5171280000000 1.0
C      1  0.4787960000000  0.4793980000000  0.5185290000000 1.0
C      1  0.4773280000000  0.5135750000000  0.5170230000000 1.0
C      1  0.5087960000000  0.5266510000000  0.5213520000000 1.0
C      1  0.5311480000000  0.5019810000000  0.5284620000000 1.0
C      1  0.5124640000000  0.5257320000000  0.4694410000000 1.0
C      1  0.4828130000000  0.5171320000000  0.4685430000000 1.0
C      1  0.4830160000000  0.4866700000000  0.4796140000000 1.0
C      1  0.5142180000000  0.4729180000000  0.4774360000000 1.0
C      1  0.5323470000000  0.4995050000000  0.4696580000000 1.0
C      1  0.4488410000000  0.4419310000000  0.5001190000000 1.0
C      1  0.4298950000000  0.5299200000000  0.5011330000000 1.0
C      1  0.5071690000000  0.5747610000000  0.5018900000000 1.0
C      1  0.5752250000000  0.5261490000000  0.5003990000000 1.0
C      1  0.5379090000000  0.4320350000000  0.5007530000000 1.0
C      1  0.4491600000000  0.5570170000000  0.5005930000000 1.0
C      1  0.4339380000000  0.4706350000000  0.4988770000000 1.0
C      1  0.5066030000000  0.4246420000000  0.4980700000000 1.0
C      1  0.5741910000000  0.4777390000000  0.5014380000000 1.0
C      1  0.5369640000000  0.5652860000000  0.4984290000000 1.0
C      1  0.4591510000000  0.5396280000000  0.4763990000000 1.0
C      1  0.5248440000000  0.5519880000000  0.4715870000000 1.0
C      1  0.5638260000000  0.4929330000000  0.4812610000000 1.0
C      1  0.5118960000000  0.4445030000000  0.4732980000000 1.0
C      1  0.4566720000000  0.4723490000000  0.4757700000000 1.0
C      1  0.4607750000000  0.4579780000000  0.5252990000000 1.0
C      1  0.5242480000000  0.4493130000000  0.5236190000000 1.0
C      1  0.5627420000000  0.5114390000000  0.5195330000000 1.0
C      1  0.5103120000000  0.5554850000000  0.5263940000000 1.0
C      1  0.4513730000000  0.5255750000000  0.5245380000000 1.0
C      1  0.5473420000000  0.4578570000000  0.4490480000000 1.0
C      1  0.4732840000000  0.4405890000000  0.4456170000000 1.0
C      1  0.4382740000000  0.5046630000000  0.4485190000000 1.0
C      1  0.4911390000000  0.5628390000000  0.4480480000000 1.0
C      1  0.5635330000000  0.5370510000000  0.4489840000000 1.0
C      1  0.5479450000000  0.5447150000000  0.5526440000000 1.0
C      1  0.4741830000000  0.5582110000000  0.5552850000000 1.0
C      1  0.4361410000000  0.4935570000000  0.5540930000000 1.0
C      1  0.4872020000000  0.4354700000000  0.5543090000000 1.0
C      1  0.5557940000000  0.4655170000000  0.5523890000000 1.0
C      1  0.4177410000000  0.4990000000000  0.5005090000000 1.0
C      1  0.5686650000000  0.5584170000000  0.5005750000000 1.0
C      1  0.4743100000000  0.4208900000000  0.4995290000000 1.0
C      1  0.5678640000000  0.4454080000000  0.5006960000000 1.0
C      1  0.4746190000000  0.5783790000000  0.5008550000000 1.0
C      1  0.4759670000000  0.4968810000000  0.5527890000000 1.0
C      1  0.4950010000000  0.4792430000000  0.4434570000000 1.0
C      1  0.5037650000000  0.5033350000000  0.4996770000000 1.0
END
