TITL C-2782234-8014-201 -0.00413959780161272 125000 -655.529074240356 0 0 109 (C1) n - 1
REM
REM in /home/nfs/bkarasulu/CARBON/AIRSS/Generating-Clusters/REBO/Higher-Symm/SD-CG/HFTN-CG
REM
REM
REM
REM
REM
REM ./C.cell (12c818d87b63d06a65506943cc24bca4)
REM
REM compiler GCC version 9.2.1 20190827 (Red Hat 9.2.1-1)
REM options -cpp -mtune=generic -march=x86-64 -g -O0 -fpre-include=/usr/include/finclude/math-vector-fortran.h
REM seed -112896554 1635654005 -539370666 -1364821950 1699656617 -1907041397 1607313007 1115735607 -2125866321 154560992 -1837242539 -1180203058 -1413974960 31118399 1262675997 -1131309561 -433159911 1708082066 -1381668401 -585894839 -1587621413 1569724452 1646322760 -1506346597 -844586766 346465247 1984012620 -1182122434 -1034217433 -1427176459 -122404297 -68217919 1159951786
REM
CELL 1.54180   50.00000   50.00000   50.00000   90.00000   90.00000   90.00000
LATT -1
SFAC C  
C      1  0.4626210000000  0.5714100000000  0.5036270000000 1.0
C      1  0.4958640000000  0.5761980000000  0.4658270000000 1.0
C      1  0.5259310000000  0.5810000000000  0.4925230000000 1.0
C      1  0.5018160000000  0.5860140000000  0.5317010000000 1.0
C      1  0.4751820000000  0.6008170000000  0.5510500000000 1.0
C      1  0.5185820000000  0.4256380000000  0.4902460000000 1.0
C      1  0.4948670000000  0.4302530000000  0.4746350000000 1.0
C      1  0.4693090000000  0.4308900000000  0.4866760000000 1.0
C      1  0.4841300000000  0.4084190000000  0.5262450000000 1.0
C      1  0.5196160000000  0.4214930000000  0.5433880000000 1.0
C      1  0.4872630000000  0.4619620000000  0.5810510000000 1.0
C      1  0.4112760000000  0.4792680000000  0.4975350000000 1.0
C      1  0.4725290000000  0.4723110000000  0.4181110000000 1.0
C      1  0.5636700000000  0.4708400000000  0.4498640000000 1.0
C      1  0.5736500000000  0.4716010000000  0.5457250000000 1.0
C      1  0.5235230000000  0.5258280000000  0.5769380000000 1.0
C      1  0.5839440000000  0.5296420000000  0.4991570000000 1.0
C      1  0.5280660000000  0.5286900000000  0.4180110000000 1.0
C      1  0.4393150000000  0.5305960000000  0.4460850000000 1.0
C      1  0.4311760000000  0.5371590000000  0.5418230000000 1.0
C      1  0.5438720000000  0.4370780000000  0.4830690000000 1.0
C      1  0.5460020000000  0.4284970000000  0.5461080000000 1.0
C      1  0.4772010000000  0.4174350000000  0.5485160000000 1.0
C      1  0.4455920000000  0.4400620000000  0.4954610000000 1.0
C      1  0.4960270000000  0.4387760000000  0.4477250000000 1.0
C      1  0.4684540000000  0.5672070000000  0.4729220000000 1.0
C      1  0.4522180000000  0.5880890000000  0.5520770000000 1.0
C      1  0.5180770000000  0.5698340000000  0.5472250000000 1.0
C      1  0.5506810000000  0.5707190000000  0.4905030000000 1.0
C      1  0.5041720000000  0.5665490000000  0.4407370000000 1.0
C      1  0.5658410000000  0.4471230000000  0.5049360000000 1.0
C      1  0.5236840000000  0.4494370000000  0.5714150000000 1.0
C      1  0.4303750000000  0.4623110000000  0.5365400000000 1.0
C      1  0.4485760000000  0.4510270000000  0.4511590000000 1.0
C      1  0.5240880000000  0.4476560000000  0.4379060000000 1.0
C      1  0.4367760000000  0.5513420000000  0.5049370000000 1.0
C      1  0.4832320000000  0.5432920000000  0.5660630000000 1.0
C      1  0.5597050000000  0.5499970000000  0.5319590000000 1.0
C      1  0.5502350000000  0.5512280000000  0.4513740000000 1.0
C      1  0.4794660000000  0.5529150000000  0.4282470000000 1.0
C      1  0.4265870000000  0.4563560000000  0.5081110000000 1.0
C      1  0.4725570000000  0.4488990000000  0.4353120000000 1.0
C      1  0.5478160000000  0.4479230000000  0.4572020000000 1.0
C      1  0.5645680000000  0.4463200000000  0.5355080000000 1.0
C      1  0.4974030000000  0.4329740000000  0.5667290000000 1.0
C      1  0.5681140000000  0.5536990000000  0.5046960000000 1.0
C      1  0.5283880000000  0.5540370000000  0.4329950000000 1.0
C      1  0.4573390000000  0.5520060000000  0.4516980000000 1.0
C      1  0.4446410000000  0.5666260000000  0.5323320000000 1.0
C      1  0.5114260000000  0.5492480000000  0.5653610000000 1.0
C      1  0.5073200000000  0.4803420000000  0.5907540000000 1.0
C      1  0.4041060000000  0.4968280000000  0.5209700000000 1.0
C      1  0.4470060000000  0.4870610000000  0.4214650000000 1.0
C      1  0.5532750000000  0.4846130000000  0.4260210000000 1.0
C      1  0.5893100000000  0.4858960000000  0.5256790000000 1.0
C      1  0.5021560000000  0.5086780000000  0.5883500000000 1.0
C      1  0.5888520000000  0.5146670000000  0.5242870000000 1.0
C      1  0.5529530000000  0.5134110000000  0.4237020000000 1.0
C      1  0.4475620000000  0.5157800000000  0.4221630000000 1.0
C      1  0.4122360000000  0.5248560000000  0.5220600000000 1.0
C      1  0.4764650000000  0.5172470000000  0.5470110000000 1.0
C      1  0.4455090000000  0.5223470000000  0.4954610000000 1.0
C      1  0.4853000000000  0.5240680000000  0.4456040000000 1.0
C      1  0.5452960000000  0.5263230000000  0.4719700000000 1.0
C      1  0.5397800000000  0.5243740000000  0.5348370000000 1.0
C      1  0.5251250000000  0.4746720000000  0.5509490000000 1.0
C      1  0.5516430000000  0.4748050000000  0.4936750000000 1.0
C      1  0.5097710000000  0.4763370000000  0.4472720000000 1.0
C      1  0.4508620000000  0.4755620000000  0.4721350000000 1.0
C      1  0.4573520000000  0.4754310000000  0.5413310000000 1.0
C      1  0.4859530000000  0.4711700000000  0.5246380000000 1.0
C      1  0.4695750000000  0.4743470000000  0.4975920000000 1.0
C      1  0.4908070000000  0.4750670000000  0.4731210000000 1.0
C      1  0.5207220000000  0.4759570000000  0.4857010000000 1.0
C      1  0.5185180000000  0.4714010000000  0.5182870000000 1.0
C      1  0.5095360000000  0.5213380000000  0.5252810000000 1.0
C      1  0.5263410000000  0.5230970000000  0.4972560000000 1.0
C      1  0.5053270000000  0.5261740000000  0.4715250000000 1.0
C      1  0.4760230000000  0.5249480000000  0.4844430000000 1.0
C      1  0.4793770000000  0.5249540000000  0.5160820000000 1.0
C      1  0.5762220000000  0.4856150000000  0.4741710000000 1.0
C      1  0.5532640000000  0.4855270000000  0.5643720000000 1.0
C      1  0.4645210000000  0.4728730000000  0.5709300000000 1.0
C      1  0.4208140000000  0.4887510000000  0.4696660000000 1.0
C      1  0.5005940000000  0.4855880000000  0.4169840000000 1.0
C      1  0.4247990000000  0.5188070000000  0.4701860000000 1.0
C      1  0.4484500000000  0.5243240000000  0.5615340000000 1.0
C      1  0.5512310000000  0.5152570000000  0.5641650000000 1.0
C      1  0.5764190000000  0.5153270000000  0.4727480000000 1.0
C      1  0.5003150000000  0.5156050000000  0.4167840000000 1.0
C      1  0.4278530000000  0.4732770000000  0.4401170000000 1.0
C      1  0.5304230000000  0.4701330000000  0.4141560000000 1.0
C      1  0.5902250000000  0.4705370000000  0.5005090000000 1.0
C      1  0.5367430000000  0.4719520000000  0.5889560000000 1.0
C      1  0.4088610000000  0.4801800000000  0.5445100000000 1.0
C      1  0.5711220000000  0.5286990000000  0.4421130000000 1.0
C      1  0.4703100000000  0.5283400000000  0.4090290000000 1.0
C      1  0.4090810000000  0.5375970000000  0.4937960000000 1.0
C      1  0.4718020000000  0.5201630000000  0.5862030000000 1.0
C      1  0.5769790000000  0.5291010000000  0.5477870000000 1.0
C      1  0.4583430000000  0.4988220000000  0.5165270000000 1.0
C      1  0.4994420000000  0.4950400000000  0.5438740000000 1.0
C      1  0.5393730000000  0.4977250000000  0.5135770000000 1.0
C      1  0.4719820000000  0.4999960000000  0.4636840000000 1.0
C      1  0.5244330000000  0.5006500000000  0.4642970000000 1.0
C      1  0.5137830000000  0.4076310000000  0.5146370000000 1.0
C      1  0.4927940000000  0.5871250000000  0.4989300000000 1.0
C      1  0.4868070000000  0.6161500000000  0.4948060000000 1.0
C      1  0.5246550000000  0.3818600000000  0.5116200000000 1.0
END
