TITL C-2782231-7322-12 8.90688645614778e-05 125000 -513.379607697542 0 0 90 (C1) n - 1
REM
REM in /home/nfs/bkarasulu/CARBON/AIRSS/Generating-Clusters/REBO/Higher-Symm/SD-CG/HFTN-CG
REM
REM
REM
REM
REM
REM ./C.cell (12c818d87b63d06a65506943cc24bca4)
REM
REM compiler GCC version 9.2.1 20190827 (Red Hat 9.2.1-1)
REM options -cpp -mtune=generic -march=x86-64 -g -O0 -fpre-include=/usr/include/finclude/math-vector-fortran.h
REM seed -1087891577 998911217 676994701 1048427731 223601608 474001661 496149729 1558944737 1519225772 -1557586188 1865243040 389759924 -255463718 188877849 10714365 -315648141 1147567942 131896391 1149985798 1753674692 790253231 -1542795096 -1731892348 1496746050 -907334007 246650551 57014736 -1609115669 -1035225215 1189459555 -511046155 -651249741 -1263694053
REM
CELL 1.54180   50.00000   50.00000   50.00000   90.00000   90.00000   90.00000
LATT -1
SFAC C  
C      1  0.5587550000000  0.5480710000000  0.5044470000000 1.0
C      1  0.4264240000000  0.5202950000000  0.5050810000000 1.0
C      1  0.5159570000000  0.4275280000000  0.5046050000000 1.0
C      1  0.4508390000000  0.4700370000000  0.5640540000000 1.0
C      1  0.5441990000000  0.4715260000000  0.5786900000000 1.0
C      1  0.5003350000000  0.5519340000000  0.5714720000000 1.0
C      1  0.4651730000000  0.4947830000000  0.5536190000000 1.0
C      1  0.5147080000000  0.4678660000000  0.5646330000000 1.0
C      1  0.5206450000000  0.5345530000000  0.5550150000000 1.0
C      1  0.5563160000000  0.5230380000000  0.4486350000000 1.0
C      1  0.4449100000000  0.5450780000000  0.4468550000000 1.0
C      1  0.4909670000000  0.4336710000000  0.4436040000000 1.0
C      1  0.5210630000000  0.4213450000000  0.4536530000000 1.0
C      1  0.5695080000000  0.5516380000000  0.4554420000000 1.0
C      1  0.4210340000000  0.5243270000000  0.4550300000000 1.0
C      1  0.5000000000000  0.5314880000000  0.4460720000000 1.0
C      1  0.4638630000000  0.4897670000000  0.4438090000000 1.0
C      1  0.5355860000000  0.4719110000000  0.4377650000000 1.0
C      1  0.5022680000000  0.4663690000000  0.5114810000000 1.0
C      1  0.5275110000000  0.5135280000000  0.5219470000000 1.0
C      1  0.4741160000000  0.5123250000000  0.5151100000000 1.0
C      1  0.5492710000000  0.4120530000000  0.4585860000000 1.0
C      1  0.5521500000000  0.5740250000000  0.4549930000000 1.0
C      1  0.4065790000000  0.4991360000000  0.4564720000000 1.0
C      1  0.5423950000000  0.5486170000000  0.5339070000000 1.0
C      1  0.4334700000000  0.5077480000000  0.5331000000000 1.0
C      1  0.5220160000000  0.4358240000000  0.5349910000000 1.0
C      1  0.5074520000000  0.5396580000000  0.5146230000000 1.0
C      1  0.4624590000000  0.4822670000000  0.5159590000000 1.0
C      1  0.5320090000000  0.4721740000000  0.5182000000000 1.0
C      1  0.5626840000000  0.4906910000000  0.4471370000000 1.0
C      1  0.4758830000000  0.5537710000000  0.4531850000000 1.0
C      1  0.4667790000000  0.4560930000000  0.4491390000000 1.0
C      1  0.4422150000000  0.5696480000000  0.5249050000000 1.0
C      1  0.4726320000000  0.4147590000000  0.5197220000000 1.0
C      1  0.5926700000000  0.5074000000000  0.5247320000000 1.0
C      1  0.4801530000000  0.4662180000000  0.5374720000000 1.0
C      1  0.5333210000000  0.4893020000000  0.5452250000000 1.0
C      1  0.4897580000000  0.5298490000000  0.5403350000000 1.0
C      1  0.4566270000000  0.5165080000000  0.4611750000000 1.0
C      1  0.5135060000000  0.4543930000000  0.4569640000000 1.0
C      1  0.5284850000000  0.5270220000000  0.4604420000000 1.0
C      1  0.5302900000000  0.5736780000000  0.4731780000000 1.0
C      1  0.4181540000000  0.4816990000000  0.4745150000000 1.0
C      1  0.5605470000000  0.4164420000000  0.4831260000000 1.0
C      1  0.4883980000000  0.4145480000000  0.5387830000000 1.0
C      1  0.5836250000000  0.5206780000000  0.5437380000000 1.0
C      1  0.4353330000000  0.5527430000000  0.5418460000000 1.0
C      1  0.4253330000000  0.4772290000000  0.5283400000000 1.0
C      1  0.5538330000000  0.4420830000000  0.5318490000000 1.0
C      1  0.5211830000000  0.5742660000000  0.5262710000000 1.0
C      1  0.4302150000000  0.5369140000000  0.4829850000000 1.0
C      1  0.5023740000000  0.4241050000000  0.4805860000000 1.0
C      1  0.5721130000000  0.5369340000000  0.4823870000000 1.0
C      1  0.5474600000000  0.4266570000000  0.5058660000000 1.0
C      1  0.5376540000000  0.5700430000000  0.5006220000000 1.0
C      1  0.4168120000000  0.4903760000000  0.5015750000000 1.0
C      1  0.4984440000000  0.4390070000000  0.5590030000000 1.0
C      1  0.5527530000000  0.5229970000000  0.5539190000000 1.0
C      1  0.4521420000000  0.5261830000000  0.5524350000000 1.0
C      1  0.4885520000000  0.5669070000000  0.5265310000000 1.0
C      1  0.4452230000000  0.4526190000000  0.5260970000000 1.0
C      1  0.5653680000000  0.4724920000000  0.5290540000000 1.0
C      1  0.4769990000000  0.5202280000000  0.4840870000000 1.0
C      1  0.4974830000000  0.4697980000000  0.4797840000000 1.0
C      1  0.5281690000000  0.5160010000000  0.4900740000000 1.0
C      1  0.4717490000000  0.4308030000000  0.4716130000000 1.0
C      1  0.5747900000000  0.5060020000000  0.4752370000000 1.0
C      1  0.4527630000000  0.5596190000000  0.4770030000000 1.0
C      1  0.5376920000000  0.4839810000000  0.4685040000000 1.0
C      1  0.5057530000000  0.5594620000000  0.4655700000000 1.0
C      1  0.4452650000000  0.4735170000000  0.4668100000000 1.0
C      1  0.5779600000000  0.4900550000000  0.5027060000000 1.0
C      1  0.4652740000000  0.5701960000000  0.5033580000000 1.0
C      1  0.4581150000000  0.4348000000000  0.5001160000000 1.0
C      1  0.5622780000000  0.4902290000000  0.5581380000000 1.0
C      1  0.4732440000000  0.5533800000000  0.5541830000000 1.0
C      1  0.4645920000000  0.4431480000000  0.5532170000000 1.0
C      1  0.4887160000000  0.5491410000000  0.4907510000000 1.0
C      1  0.4656180000000  0.4657620000000  0.4896300000000 1.0
C      1  0.5461860000000  0.4885890000000  0.4969330000000 1.0
C      1  0.5014040000000  0.5135810000000  0.5829350000000 1.0
C      1  0.4966770000000  0.4951880000000  0.5586230000000 1.0
C      1  0.5021090000000  0.5025240000000  0.4777950000000 1.0
C      1  0.4886810000000  0.5046760000000  0.4307170000000 1.0
C      1  0.5052890000000  0.5283450000000  0.6033890000000 1.0
C      1  0.5007640000000  0.4962560000000  0.5242060000000 1.0
C      1  0.4894650000000  0.5050970000000  0.4005900000000 1.0
C      1  0.4901280000000  0.5054540000000  0.3750820000000 1.0
C      1  0.5111690000000  0.4931720000000  0.4484430000000 1.0
END
