TITL C-2782238-9940-40 -0.0020970200539239 125000 -366.024768290903 0 0 64 (C1) n - 1
REM
REM in /home/nfs/bkarasulu/CARBON/AIRSS/Generating-Clusters/REBO/Higher-Symm/SD-CG/HFTN-CG
REM
REM
REM
REM
REM
REM ./C.cell (12c818d87b63d06a65506943cc24bca4)
REM
REM compiler GCC version 9.2.1 20190827 (Red Hat 9.2.1-1)
REM options -cpp -mtune=generic -march=x86-64 -g -O0 -fpre-include=/usr/include/finclude/math-vector-fortran.h
REM seed -356449664 313040183 -394122896 -127334761 -532609249 -974755567 670300986 1222969003 1526304852 -535303840 1451601029 -1251004014 1340456982 -1627643732 1821202112 1121390252 -2027314875 642216840 1220685918 -1476114783 -912467935 -121243095 -981412278 -975773256 1793123742 1344597941 1715268539 1183992444 -2059055899 -526184379 2094614598 -271216723 -418018577
REM
CELL 1.54180   50.00000   50.00000   50.00000   90.00000   90.00000   90.00000
LATT -1
SFAC C  
C      1  0.5244590000000  0.4476300000000  0.5081240000000 1.0
C      1  0.5022930000000  0.3885370000000  0.5473340000000 1.0
C      1  0.5344840000000  0.5108960000000  0.5455640000000 1.0
C      1  0.4863770000000  0.5868270000000  0.5879990000000 1.0
C      1  0.5082720000000  0.5927110000000  0.5084780000000 1.0
C      1  0.4910370000000  0.5843870000000  0.4290940000000 1.0
C      1  0.4325430000000  0.5605440000000  0.3755670000000 1.0
C      1  0.4883920000000  0.5004530000000  0.3866850000000 1.0
C      1  0.5013610000000  0.4290460000000  0.4254960000000 1.0
C      1  0.5816880000000  0.4783390000000  0.5527180000000 1.0
C      1  0.5963800000000  0.5033910000000  0.5587700000000 1.0
C      1  0.6189530000000  0.5209710000000  0.5475070000000 1.0
C      1  0.6371270000000  0.5184910000000  0.5218780000000 1.0
C      1  0.6477910000000  0.4965930000000  0.5073250000000 1.0
C      1  0.6304780000000  0.4787030000000  0.4930900000000 1.0
C      1  0.6249720000000  0.4528780000000  0.5041450000000 1.0
C      1  0.5989220000000  0.4459080000000  0.5125670000000 1.0
C      1  0.5787290000000  0.4545760000000  0.5343360000000 1.0
C      1  0.4494180000000  0.5072410000000  0.4233310000000 1.0
C      1  0.4678880000000  0.4443620000000  0.4649260000000 1.0
C      1  0.4722480000000  0.4329720000000  0.4932160000000 1.0
C      1  0.4737840000000  0.4295270000000  0.5270420000000 1.0
C      1  0.4830030000000  0.5216810000000  0.5538880000000 1.0
C      1  0.4677760000000  0.5484700000000  0.5514830000000 1.0
C      1  0.4685340000000  0.5589860000000  0.5224310000000 1.0
C      1  0.4507640000000  0.5529690000000  0.4464060000000 1.0
C      1  0.4358410000000  0.5351950000000  0.4255970000000 1.0
C      1  0.5757450000000  0.4567290000000  0.4949100000000 1.0
C      1  0.5505460000000  0.4600480000000  0.5156180000000 1.0
C      1  0.5527150000000  0.4846230000000  0.5359030000000 1.0
C      1  0.5672450000000  0.5144810000000  0.5441560000000 1.0
C      1  0.5907600000000  0.5328420000000  0.5329440000000 1.0
C      1  0.6107120000000  0.5300340000000  0.5096170000000 1.0
C      1  0.6044780000000  0.5190100000000  0.4840590000000 1.0
C      1  0.6080580000000  0.4910760000000  0.4789320000000 1.0
C      1  0.5849280000000  0.4746110000000  0.4749920000000 1.0
C      1  0.4595360000000  0.4489840000000  0.5418610000000 1.0
C      1  0.4680470000000  0.4975800000000  0.5571240000000 1.0
C      1  0.4383230000000  0.5394890000000  0.5576670000000 1.0
C      1  0.4491170000000  0.5501140000000  0.5043430000000 1.0
C      1  0.4436120000000  0.5502050000000  0.4731520000000 1.0
C      1  0.4073570000000  0.5298220000000  0.4378180000000 1.0
C      1  0.4418850000000  0.4879120000000  0.4419060000000 1.0
C      1  0.4478630000000  0.4637070000000  0.4614260000000 1.0
C      1  0.4413480000000  0.4304450000000  0.5038890000000 1.0
C      1  0.4289290000000  0.4561960000000  0.5082080000000 1.0
C      1  0.4398150000000  0.4678780000000  0.5323570000000 1.0
C      1  0.4426980000000  0.4941530000000  0.5431380000000 1.0
C      1  0.4289860000000  0.5193350000000  0.5395260000000 1.0
C      1  0.4259010000000  0.5297860000000  0.5133780000000 1.0
C      1  0.4197700000000  0.5330580000000  0.4837060000000 1.0
C      1  0.4078350000000  0.5170690000000  0.4634070000000 1.0
C      1  0.4188630000000  0.4908360000000  0.4626890000000 1.0
C      1  0.4254090000000  0.4698510000000  0.4837870000000 1.0
C      1  0.4694510000000  0.5037520000000  0.4044950000000 1.0
C      1  0.4850990000000  0.4364880000000  0.4446530000000 1.0
C      1  0.5028880000000  0.4389690000000  0.5015070000000 1.0
C      1  0.4884300000000  0.4084690000000  0.5374670000000 1.0
C      1  0.5105040000000  0.5194560000000  0.5506140000000 1.0
C      1  0.4779200000000  0.5693880000000  0.5713970000000 1.0
C      1  0.4889700000000  0.5763300000000  0.5152550000000 1.0
C      1  0.4714680000000  0.5691200000000  0.4375060000000 1.0
C      1  0.4340410000000  0.5490300000000  0.3982920000000 1.0
C      1  0.4794310000000  0.4760240000000  0.5694290000000 1.0
END
