TITL C-2782237-5345-981 -0.038032729372643 125000 -892.812295903773 0 0 152 (C1) n - 1
REM
REM in /home/nfs/bkarasulu/CARBON/AIRSS/Generating-Clusters/REBO/Higher-Symm/SD-CG/HFTN-CG
REM
REM
REM
REM
REM
REM ./C.cell (12c818d87b63d06a65506943cc24bca4)
REM
REM compiler GCC version 9.2.1 20190827 (Red Hat 9.2.1-1)
REM options -cpp -mtune=generic -march=x86-64 -g -O0 -fpre-include=/usr/include/finclude/math-vector-fortran.h
REM seed 1020573802 1110224143 865692048 -305441362 1629493840 1249577759 -799593636 880058349 -1401648075 -824102793 2146423975 482453922 571845113 1261818015 357968353 429612380 -911988927 2044274710 -961955594 1324911824 1671069586 387086024 -1086258707 -878662686 -1041297794 -1059779026 -612678763 -721897085 297811693 170835444 -1073011351 1621943160 -119919994
REM
CELL 1.54180   50.00000   50.00000   50.00000   90.00000   90.00000   90.00000
LATT -1
SFAC C  
C      1  0.5807840000000  0.4804580000000  0.5419620000000 1.0
C      1  0.5155720000000  0.5805130000000  0.5436390000000 1.0
C      1  0.4172420000000  0.5209220000000  0.5436230000000 1.0
C      1  0.4816700000000  0.4209130000000  0.5416720000000 1.0
C      1  0.5866670000000  0.5141210000000  0.5389020000000 1.0
C      1  0.5147520000000  0.4125090000000  0.5381490000000 1.0
C      1  0.4159890000000  0.4873960000000  0.5369900000000 1.0
C      1  0.4828180000000  0.5889150000000  0.5379610000000 1.0
C      1  0.5209750000000  0.3966260000000  0.4729880000000 1.0
C      1  0.6014900000000  0.5204840000000  0.4735490000000 1.0
C      1  0.4784910000000  0.6018070000000  0.4721600000000 1.0
C      1  0.3978280000000  0.4799170000000  0.4729230000000 1.0
C      1  0.5094500000000  0.5919460000000  0.4797090000000 1.0
C      1  0.5922090000000  0.4890890000000  0.4799360000000 1.0
C      1  0.4896720000000  0.4063220000000  0.4791560000000 1.0
C      1  0.4063940000000  0.5117430000000  0.4789700000000 1.0
C      1  0.4545620000000  0.5740020000000  0.5526680000000 1.0
C      1  0.4312540000000  0.4603410000000  0.5529940000000 1.0
C      1  0.5422360000000  0.4281860000000  0.5534790000000 1.0
C      1  0.5685530000000  0.5397930000000  0.5549250000000 1.0
C      1  0.4521890000000  0.4366790000000  0.5526660000000 1.0
C      1  0.4325380000000  0.5509870000000  0.5537510000000 1.0
C      1  0.5443210000000  0.5637620000000  0.5551490000000 1.0
C      1  0.5659620000000  0.4502810000000  0.5521580000000 1.0
C      1  0.4851370000000  0.5562940000000  0.5152070000000 1.0
C      1  0.4471430000000  0.4879220000000  0.5119320000000 1.0
C      1  0.5153790000000  0.4469630000000  0.5189520000000 1.0
C      1  0.5537400000000  0.5142400000000  0.5169330000000 1.0
C      1  0.4823170000000  0.4491800000000  0.5129850000000 1.0
C      1  0.4477570000000  0.5215250000000  0.5184270000000 1.0
C      1  0.5186960000000  0.5494040000000  0.5190890000000 1.0
C      1  0.5531890000000  0.4804390000000  0.5113960000000 1.0
C      1  0.6001270000000  0.5169680000000  0.5074690000000 1.0
C      1  0.4812460000000  0.6016370000000  0.5061960000000 1.0
C      1  0.4004110000000  0.4838280000000  0.5067040000000 1.0
C      1  0.5173900000000  0.3986330000000  0.5068670000000 1.0
C      1  0.5954400000000  0.4845370000000  0.5123130000000 1.0
C      1  0.4855580000000  0.4047790000000  0.5119880000000 1.0
C      1  0.4037820000000  0.5163540000000  0.5125520000000 1.0
C      1  0.5130710000000  0.5951630000000  0.5128930000000 1.0
C      1  0.4587050000000  0.5693460000000  0.5131990000000 1.0
C      1  0.4342700000000  0.4613160000000  0.5131920000000 1.0
C      1  0.5415790000000  0.4327790000000  0.5138650000000 1.0
C      1  0.5672650000000  0.5397120000000  0.5151340000000 1.0
C      1  0.4546640000000  0.4375070000000  0.5127990000000 1.0
C      1  0.4350840000000  0.5485870000000  0.5139360000000 1.0
C      1  0.5461270000000  0.5626340000000  0.5152620000000 1.0
C      1  0.5652710000000  0.4533560000000  0.5106680000000 1.0
C      1  0.4566040000000  0.5787300000000  0.4654050000000 1.0
C      1  0.4211700000000  0.4585500000000  0.4650160000000 1.0
C      1  0.5438580000000  0.4186280000000  0.4656980000000 1.0
C      1  0.5782960000000  0.5421340000000  0.4672800000000 1.0
C      1  0.4632570000000  0.4210610000000  0.4657140000000 1.0
C      1  0.4194590000000  0.5386640000000  0.4659740000000 1.0
C      1  0.5359870000000  0.5767130000000  0.4680850000000 1.0
C      1  0.5775270000000  0.4624870000000  0.4666950000000 1.0
C      1  0.4773520000000  0.5984270000000  0.4379990000000 1.0
C      1  0.3989650000000  0.4781290000000  0.4386660000000 1.0
C      1  0.5230980000000  0.3982690000000  0.4387770000000 1.0
C      1  0.5987060000000  0.5227050000000  0.4394010000000 1.0
C      1  0.4952470000000  0.4096010000000  0.4457430000000 1.0
C      1  0.4113880000000  0.5055030000000  0.4458790000000 1.0
C      1  0.5045320000000  0.5865680000000  0.4464270000000 1.0
C      1  0.5880270000000  0.4946870000000  0.4466080000000 1.0
C      1  0.4382820000000  0.5795840000000  0.4889250000000 1.0
C      1  0.4225140000000  0.4413030000000  0.4893720000000 1.0
C      1  0.5613930000000  0.4197060000000  0.4895940000000 1.0
C      1  0.5779250000000  0.5599010000000  0.4911790000000 1.0
C      1  0.4427190000000  0.4181980000000  0.4870110000000 1.0
C      1  0.4157750000000  0.5589920000000  0.4871980000000 1.0
C      1  0.5563830000000  0.5817130000000  0.4890390000000 1.0
C      1  0.5846710000000  0.4400780000000  0.4861580000000 1.0
C      1  0.5915440000000  0.4402830000000  0.5399930000000 1.0
C      1  0.5544960000000  0.5896420000000  0.5435540000000 1.0
C      1  0.4061570000000  0.5592670000000  0.5419250000000 1.0
C      1  0.4423540000000  0.4108600000000  0.5411870000000 1.0
C      1  0.5941140000000  0.5529340000000  0.5446630000000 1.0
C      1  0.5529480000000  0.4018750000000  0.5432670000000 1.0
C      1  0.4046160000000  0.4496190000000  0.5435580000000 1.0
C      1  0.4434650000000  0.5994250000000  0.5411310000000 1.0
C      1  0.5514080000000  0.4842190000000  0.4625520000000 1.0
C      1  0.5143080000000  0.5504540000000  0.4652390000000 1.0
C      1  0.4453990000000  0.5166330000000  0.4656450000000 1.0
C      1  0.4858110000000  0.4463580000000  0.4610350000000 1.0
C      1  0.5576310000000  0.5165160000000  0.4655800000000 1.0
C      1  0.5177580000000  0.4386690000000  0.4640920000000 1.0
C      1  0.4425960000000  0.4838020000000  0.4600830000000 1.0
C      1  0.4815020000000  0.5571550000000  0.4644250000000 1.0
C      1  0.4341070000000  0.5242320000000  0.5724610000000 1.0
C      1  0.4779630000000  0.4347030000000  0.5718280000000 1.0
C      1  0.5694390000000  0.4756900000000  0.5726060000000 1.0
C      1  0.5164580000000  0.5665900000000  0.5742670000000 1.0
C      1  0.4379710000000  0.4922960000000  0.5625870000000 1.0
C      1  0.4840530000000  0.5720320000000  0.5671640000000 1.0
C      1  0.5710050000000  0.5086460000000  0.5686720000000 1.0
C      1  0.5111450000000  0.4309940000000  0.5667140000000 1.0
C      1  0.5167210000000  0.5313950000000  0.4915280000000 1.0
C      1  0.4642160000000  0.5177860000000  0.4916800000000 1.0
C      1  0.4822160000000  0.4656560000000  0.4856200000000 1.0
C      1  0.5320280000000  0.4801360000000  0.4874170000000 1.0
C      1  0.5129120000000  0.4583110000000  0.4889600000000 1.0
C      1  0.4624370000000  0.4860120000000  0.4844230000000 1.0
C      1  0.4852580000000  0.5383020000000  0.4896470000000 1.0
C      1  0.5382270000000  0.5111020000000  0.4902910000000 1.0
C      1  0.4339630000000  0.5133980000000  0.4237380000000 1.0
C      1  0.4862370000000  0.4317680000000  0.4232280000000 1.0
C      1  0.5656270000000  0.4850910000000  0.4243370000000 1.0
C      1  0.5136890000000  0.5636050000000  0.4245560000000 1.0
C      1  0.4276020000000  0.4800250000000  0.4200090000000 1.0
C      1  0.4802190000000  0.5691250000000  0.4203830000000 1.0
C      1  0.5700400000000  0.5189230000000  0.4209530000000 1.0
C      1  0.5200190000000  0.4267960000000  0.4200290000000 1.0
C      1  0.4866710000000  0.5399740000000  0.5753480000000 1.0
C      1  0.4705510000000  0.4877420000000  0.5686490000000 1.0
C      1  0.5201340000000  0.4611750000000  0.5799210000000 1.0
C      1  0.5395650000000  0.5176390000000  0.5782950000000 1.0
C      1  0.4893120000000  0.4638810000000  0.5728520000000 1.0
C      1  0.4645650000000  0.5177610000000  0.5808370000000 1.0
C      1  0.5170990000000  0.5361040000000  0.5848840000000 1.0
C      1  0.5389740000000  0.4852440000000  0.5734290000000 1.0
C      1  0.5642630000000  0.4551690000000  0.4385010000000 1.0
C      1  0.5424270000000  0.5631780000000  0.4400360000000 1.0
C      1  0.4345550000000  0.5431540000000  0.4380610000000 1.0
C      1  0.4560980000000  0.4342930000000  0.4374250000000 1.0
C      1  0.5634570000000  0.5458480000000  0.4392510000000 1.0
C      1  0.5472650000000  0.4337740000000  0.4377560000000 1.0
C      1  0.4354490000000  0.4523220000000  0.4367370000000 1.0
C      1  0.4527380000000  0.5635660000000  0.4375550000000 1.0
C      1  0.4647980000000  0.5208950000000  0.5470810000000 1.0
C      1  0.4872350000000  0.4674770000000  0.5385520000000 1.0
C      1  0.5410780000000  0.4836990000000  0.5391640000000 1.0
C      1  0.5172090000000  0.5349870000000  0.5500450000000 1.0
C      1  0.4671290000000  0.4911240000000  0.5352940000000 1.0
C      1  0.4870230000000  0.5414870000000  0.5417050000000 1.0
C      1  0.5391970000000  0.5137860000000  0.5452800000000 1.0
C      1  0.5188010000000  0.4642250000000  0.5460450000000 1.0
C      1  0.5147020000000  0.4568710000000  0.4354900000000 1.0
C      1  0.5404840000000  0.5131790000000  0.4372360000000 1.0
C      1  0.4845220000000  0.5393450000000  0.4368540000000 1.0
C      1  0.4595830000000  0.4837830000000  0.4317780000000 1.0
C      1  0.5177230000000  0.5320050000000  0.4368390000000 1.0
C      1  0.5333530000000  0.4800250000000  0.4345820000000 1.0
C      1  0.4818100000000  0.4643700000000  0.4324250000000 1.0
C      1  0.4647480000000  0.5169970000000  0.4374820000000 1.0
C      1  0.4532690000000  0.4036350000000  0.5146020000000 1.0
C      1  0.5989770000000  0.4519580000000  0.5136860000000 1.0
C      1  0.5449640000000  0.5963910000000  0.5162140000000 1.0
C      1  0.4011490000000  0.5485720000000  0.5147710000000 1.0
C      1  0.4489190000000  0.6015600000000  0.5123170000000 1.0
C      1  0.5991630000000  0.5491550000000  0.5155610000000 1.0
C      1  0.5492290000000  0.4000330000000  0.5142140000000 1.0
C      1  0.4020550000000  0.4521500000000  0.5143410000000 1.0
END
