TITL C-2782237-5345-632 0.0018463164651763 125000 -755.747933255911 0 0 134 (C1) n - 1
REM
REM in /home/nfs/bkarasulu/CARBON/AIRSS/Generating-Clusters/REBO/Higher-Symm/SD-CG/HFTN-CG
REM
REM
REM
REM
REM
REM ./C.cell (12c818d87b63d06a65506943cc24bca4)
REM
REM compiler GCC version 9.2.1 20190827 (Red Hat 9.2.1-1)
REM options -cpp -mtune=generic -march=x86-64 -g -O0 -fpre-include=/usr/include/finclude/math-vector-fortran.h
REM seed 2135344975 -1458492997 -485687566 -709603589 -550091122 1707319488 948428837 -1000585781 53496174 -2039962938 1254794240 1520868972 2064695581 233408496 300154040 2070997732 -1363252179 -1543752673 -1274197688 -504231689 -1671311919 -1554887861 436870473 -739079476 -1406128638 1247611372 1979353706 -636113896 1443042738 487603708 -2068427641 -732758021 -647520231
REM
CELL 1.54180   50.00000   50.00000   50.00000   90.00000   90.00000   90.00000
LATT -1
SFAC C  
C      1  0.5304900000000  0.4832040000000  0.4467510000000 1.0
C      1  0.4620660000000  0.5205590000000  0.4541560000000 1.0
C      1  0.5400940000000  0.4896600000000  0.5492810000000 1.0
C      1  0.4598260000000  0.5166180000000  0.5476060000000 1.0
C      1  0.5563510000000  0.4204520000000  0.5191220000000 1.0
C      1  0.4394520000000  0.5812510000000  0.5102200000000 1.0
C      1  0.5609430000000  0.4250800000000  0.4892350000000 1.0
C      1  0.4446010000000  0.5862940000000  0.4803410000000 1.0
C      1  0.5023750000000  0.4673600000000  0.4439120000000 1.0
C      1  0.5009200000000  0.5279560000000  0.4496330000000 1.0
C      1  0.4984910000000  0.4623930000000  0.5540140000000 1.0
C      1  0.4980610000000  0.5259410000000  0.5544410000000 1.0
C      1  0.5306640000000  0.5351590000000  0.5486300000000 1.0
C      1  0.4663510000000  0.4632130000000  0.5470830000000 1.0
C      1  0.5341720000000  0.5358120000000  0.4535960000000 1.0
C      1  0.4734320000000  0.4689310000000  0.4526290000000 1.0
C      1  0.5690350000000  0.4980210000000  0.5357600000000 1.0
C      1  0.4311720000000  0.4994190000000  0.5396840000000 1.0
C      1  0.5818920000000  0.5053730000000  0.4560190000000 1.0
C      1  0.4379500000000  0.5014580000000  0.4689480000000 1.0
C      1  0.5473790000000  0.5622160000000  0.4397890000000 1.0
C      1  0.4554880000000  0.4399900000000  0.4487800000000 1.0
C      1  0.5434720000000  0.5644410000000  0.5577310000000 1.0
C      1  0.4536370000000  0.4347580000000  0.5596350000000 1.0
C      1  0.5684320000000  0.5459590000000  0.5438180000000 1.0
C      1  0.4278900000000  0.4532180000000  0.5514860000000 1.0
C      1  0.5722590000000  0.5456230000000  0.4563480000000 1.0
C      1  0.4308640000000  0.4592810000000  0.4610230000000 1.0
C      1  0.4698390000000  0.5774660000000  0.4699300000000 1.0
C      1  0.5356730000000  0.4290700000000  0.4683610000000 1.0
C      1  0.4646690000000  0.5698680000000  0.5267390000000 1.0
C      1  0.5293240000000  0.4251390000000  0.5276930000000 1.0
C      1  0.4663030000000  0.5512460000000  0.4400210000000 1.0
C      1  0.5375850000000  0.4513870000000  0.4352740000000 1.0
C      1  0.4615740000000  0.5450370000000  0.5578700000000 1.0
C      1  0.5425250000000  0.4560260000000  0.5543800000000 1.0
C      1  0.4915470000000  0.5598360000000  0.5545190000000 1.0
C      1  0.4989520000000  0.4299920000000  0.5644510000000 1.0
C      1  0.4952060000000  0.5616100000000  0.4434010000000 1.0
C      1  0.5084860000000  0.4350540000000  0.4394330000000 1.0
C      1  0.4518030000000  0.4641680000000  0.5157000000000 1.0
C      1  0.5403330000000  0.5229870000000  0.5188830000000 1.0
C      1  0.4639060000000  0.4602910000000  0.4831390000000 1.0
C      1  0.5420580000000  0.5295360000000  0.4861720000000 1.0
C      1  0.4797950000000  0.4858850000000  0.5171260000000 1.0
C      1  0.5110190000000  0.5074790000000  0.5285560000000 1.0
C      1  0.4876980000000  0.4850220000000  0.4858950000000 1.0
C      1  0.5141030000000  0.5109750000000  0.4765560000000 1.0
C      1  0.4771460000000  0.4153520000000  0.4546620000000 1.0
C      1  0.5285200000000  0.5803650000000  0.4593760000000 1.0
C      1  0.4698610000000  0.4177330000000  0.5384900000000 1.0
C      1  0.5226950000000  0.5765720000000  0.5358310000000 1.0
C      1  0.4390520000000  0.5579630000000  0.4535110000000 1.0
C      1  0.5606630000000  0.4489820000000  0.4577630000000 1.0
C      1  0.4367810000000  0.5598350000000  0.5430820000000 1.0
C      1  0.5683160000000  0.4464480000000  0.5476250000000 1.0
C      1  0.5047870000000  0.5424050000000  0.4862330000000 1.0
C      1  0.5031230000000  0.4549420000000  0.4815330000000 1.0
C      1  0.5034000000000  0.5370270000000  0.5171510000000 1.0
C      1  0.4904560000000  0.4552770000000  0.5123510000000 1.0
C      1  0.5114230000000  0.4781330000000  0.4122360000000 1.0
C      1  0.4841280000000  0.5195620000000  0.4209000000000 1.0
C      1  0.5139120000000  0.4768110000000  0.5813710000000 1.0
C      1  0.4838370000000  0.5222190000000  0.5851810000000 1.0
C      1  0.5340020000000  0.4577870000000  0.4865510000000 1.0
C      1  0.4748550000000  0.5496560000000  0.4788830000000 1.0
C      1  0.5224580000000  0.4523370000000  0.5161680000000 1.0
C      1  0.4737670000000  0.5460080000000  0.5110490000000 1.0
C      1  0.4780880000000  0.4728120000000  0.4132660000000 1.0
C      1  0.5141180000000  0.5265940000000  0.4124470000000 1.0
C      1  0.4809670000000  0.4747710000000  0.5870850000000 1.0
C      1  0.5139010000000  0.5320510000000  0.5901360000000 1.0
C      1  0.4918080000000  0.6070560000000  0.4853870000000 1.0
C      1  0.5099300000000  0.3946770000000  0.4889000000000 1.0
C      1  0.4904960000000  0.6059940000000  0.5099520000000 1.0
C      1  0.5089050000000  0.3939230000000  0.5133880000000 1.0
C      1  0.5337000000000  0.5134140000000  0.5729000000000 1.0
C      1  0.4610870000000  0.4896690000000  0.5648950000000 1.0
C      1  0.5329930000000  0.5107980000000  0.4331170000000 1.0
C      1  0.4609220000000  0.4914670000000  0.4363800000000 1.0
C      1  0.6012080000000  0.5110060000000  0.4823910000000 1.0
C      1  0.4081390000000  0.4975720000000  0.4859280000000 1.0
C      1  0.5850770000000  0.5097980000000  0.5110480000000 1.0
C      1  0.4111980000000  0.4889370000000  0.5171980000000 1.0
C      1  0.4289540000000  0.4841450000000  0.4407550000000 1.0
C      1  0.5655020000000  0.5207670000000  0.4339680000000 1.0
C      1  0.4286910000000  0.4813790000000  0.5672830000000 1.0
C      1  0.5652940000000  0.5183150000000  0.5611340000000 1.0
C      1  0.5758540000000  0.5410600000000  0.5158780000000 1.0
C      1  0.4190470000000  0.4571900000000  0.5191930000000 1.0
C      1  0.5817480000000  0.5383950000000  0.4833660000000 1.0
C      1  0.4190800000000  0.4652930000000  0.4859560000000 1.0
C      1  0.4537750000000  0.5236570000000  0.4143120000000 1.0
C      1  0.5411630000000  0.4807160000000  0.4083990000000 1.0
C      1  0.4556360000000  0.5208640000000  0.5891250000000 1.0
C      1  0.5446670000000  0.4782470000000  0.5873030000000 1.0
C      1  0.5990420000000  0.4777790000000  0.4790250000000 1.0
C      1  0.4086900000000  0.5300340000000  0.4833160000000 1.0
C      1  0.5931210000000  0.4764170000000  0.5127170000000 1.0
C      1  0.4088650000000  0.5229490000000  0.5167740000000 1.0
C      1  0.5492990000000  0.4418830000000  0.4083210000000 1.0
C      1  0.4546280000000  0.5541210000000  0.4081490000000 1.0
C      1  0.5276390000000  0.4408350000000  0.5708210000000 1.0
C      1  0.4675870000000  0.5587430000000  0.5863810000000 1.0
C      1  0.5379550000000  0.4865950000000  0.4766860000000 1.0
C      1  0.4750270000000  0.5159220000000  0.4849470000000 1.0
C      1  0.5157130000000  0.4773470000000  0.5338240000000 1.0
C      1  0.4703850000000  0.5148950000000  0.5191460000000 1.0
C      1  0.5820880000000  0.4507320000000  0.4841200000000 1.0
C      1  0.4211940000000  0.5614130000000  0.4813330000000 1.0
C      1  0.5796350000000  0.4455770000000  0.5174980000000 1.0
C      1  0.4186630000000  0.5545490000000  0.5146220000000 1.0
C      1  0.5156580000000  0.5590030000000  0.5766130000000 1.0
C      1  0.4752260000000  0.4456050000000  0.5818760000000 1.0
C      1  0.5190740000000  0.5550160000000  0.4222250000000 1.0
C      1  0.4789070000000  0.4421430000000  0.4240000000000 1.0
C      1  0.5707660000000  0.4869080000000  0.5738300000000 1.0
C      1  0.4318200000000  0.5144900000000  0.5759680000000 1.0
C      1  0.5642720000000  0.4878610000000  0.4247230000000 1.0
C      1  0.4296060000000  0.5156510000000  0.4315500000000 1.0
C      1  0.5015790000000  0.4098200000000  0.5402150000000 1.0
C      1  0.4918150000000  0.5857860000000  0.5338710000000 1.0
C      1  0.5095950000000  0.4125480000000  0.4634690000000 1.0
C      1  0.4982520000000  0.5904370000000  0.4586120000000 1.0
C      1  0.4212830000000  0.5338090000000  0.4524380000000 1.0
C      1  0.5802240000000  0.4726160000000  0.4507730000000 1.0
C      1  0.4225150000000  0.5309550000000  0.5473600000000 1.0
C      1  0.5862900000000  0.4726760000000  0.5464230000000 1.0
C      1  0.4671150000000  0.4330360000000  0.5128610000000 1.0
C      1  0.5300810000000  0.5554120000000  0.5141970000000 1.0
C      1  0.4796620000000  0.4310470000000  0.4824700000000 1.0
C      1  0.5317020000000  0.5623300000000  0.4832110000000 1.0
C      1  0.5640090000000  0.4968130000000  0.4800590000000 1.0
C      1  0.4457310000000  0.4925560000000  0.4976170000000 1.0
END
