TITL C-2782231-7322-854 0.000955865263339929 125000 -1075.57015416055 0 0 180 (C1) n - 1
REM
REM in /home/nfs/bkarasulu/CARBON/AIRSS/Generating-Clusters/REBO/Higher-Symm/SD-CG/HFTN-CG
REM
REM
REM
REM
REM
REM ./C.cell (12c818d87b63d06a65506943cc24bca4)
REM
REM compiler GCC version 9.2.1 20190827 (Red Hat 9.2.1-1)
REM options -cpp -mtune=generic -march=x86-64 -g -O0 -fpre-include=/usr/include/finclude/math-vector-fortran.h
REM seed 1121775815 -126101977 -1216242676 114285949 -1603637382 -1622043113 1971201055 -2130898398 1524176723 977302311 -1769084573 -1575973891 -1350095020 2041763886 1318289959 -1765791585 -235597411 -318173502 125910383 -1509359370 1035498503 1645934899 227857640 456765476 1376131612 -1690692010 1837379572 1273980599 80224193 -2097571434 1008736757 -366592662 1990127602
REM
CELL 1.54180   50.00000   50.00000   50.00000   90.00000   90.00000   90.00000
LATT -1
SFAC C  
C      1  0.4826670000000  0.4286530000000  0.5226280000000 1.0
C      1  0.4953470000000  0.5158720000000  0.4291620000000 1.0
C      1  0.4831230000000  0.5379310000000  0.5523450000000 1.0
C      1  0.4878030000000  0.4343890000000  0.4942170000000 1.0
C      1  0.4966820000000  0.5163430000000  0.5651330000000 1.0
C      1  0.4944860000000  0.5434610000000  0.4455980000000 1.0
C      1  0.4401520000000  0.4744530000000  0.5152260000000 1.0
C      1  0.4492560000000  0.4996490000000  0.4663800000000 1.0
C      1  0.4463400000000  0.5295200000000  0.5137730000000 1.0
C      1  0.4439050000000  0.4727620000000  0.4827100000000 1.0
C      1  0.4454400000000  0.5024200000000  0.5311120000000 1.0
C      1  0.4504140000000  0.5276520000000  0.4820820000000 1.0
C      1  0.4813490000000  0.3928290000000  0.4832670000000 1.0
C      1  0.4790890000000  0.5642380000000  0.4151550000000 1.0
C      1  0.4828720000000  0.5408820000000  0.5940890000000 1.0
C      1  0.4772290000000  0.3895960000000  0.5105760000000 1.0
C      1  0.4820470000000  0.5653840000000  0.5812160000000 1.0
C      1  0.4804720000000  0.5408840000000  0.4007970000000 1.0
C      1  0.5848580000000  0.4945630000000  0.4176320000000 1.0
C      1  0.5888830000000  0.5740960000000  0.5364150000000 1.0
C      1  0.5877480000000  0.4305200000000  0.5444790000000 1.0
C      1  0.5860160000000  0.4951980000000  0.5814260000000 1.0
C      1  0.5914860000000  0.5696760000000  0.4614220000000 1.0
C      1  0.5903480000000  0.4337250000000  0.4597310000000 1.0
C      1  0.5716740000000  0.4710000000000  0.4222150000000 1.0
C      1  0.5772450000000  0.5870500000000  0.5140530000000 1.0
C      1  0.5749860000000  0.4435120000000  0.5659240000000 1.0
C      1  0.5718270000000  0.4705810000000  0.5816830000000 1.0
C      1  0.5812440000000  0.5852790000000  0.4825660000000 1.0
C      1  0.5772140000000  0.4442500000000  0.4369590000000 1.0
C      1  0.4706210000000  0.4470080000000  0.5559550000000 1.0
C      1  0.4879160000000  0.4685370000000  0.4193770000000 1.0
C      1  0.4909000000000  0.5817990000000  0.5145830000000 1.0
C      1  0.4732290000000  0.4454030000000  0.4353710000000 1.0
C      1  0.4837760000000  0.4662010000000  0.5728540000000 1.0
C      1  0.4879450000000  0.5818900000000  0.4859260000000 1.0
C      1  0.4821930000000  0.5938010000000  0.4412420000000 1.0
C      1  0.4781370000000  0.4957390000000  0.6066990000000 1.0
C      1  0.4828070000000  0.4084740000000  0.4465620000000 1.0
C      1  0.4754930000000  0.5954940000000  0.5560250000000 1.0
C      1  0.4740610000000  0.4927740000000  0.4019680000000 1.0
C      1  0.4775900000000  0.3990910000000  0.5490340000000 1.0
C      1  0.5286960000000  0.4355270000000  0.5415510000000 1.0
C      1  0.5314860000000  0.5039110000000  0.4176170000000 1.0
C      1  0.5310190000000  0.5782400000000  0.5372400000000 1.0
C      1  0.5297210000000  0.4297790000000  0.4588440000000 1.0
C      1  0.5283590000000  0.4992760000000  0.5853280000000 1.0
C      1  0.5326480000000  0.5799700000000  0.4624450000000 1.0
C      1  0.5985960000000  0.4939200000000  0.5283250000000 1.0
C      1  0.5991350000000  0.4695720000000  0.4850730000000 1.0
C      1  0.5961950000000  0.5195380000000  0.4867510000000 1.0
C      1  0.5936520000000  0.4957030000000  0.4724890000000 1.0
C      1  0.6013590000000  0.4686300000000  0.5127920000000 1.0
C      1  0.6033250000000  0.5182160000000  0.5153040000000 1.0
C      1  0.4631200000000  0.4218180000000  0.5957150000000 1.0
C      1  0.4665420000000  0.4390020000000  0.3792300000000 1.0
C      1  0.4685170000000  0.6242830000000  0.5119290000000 1.0
C      1  0.4649690000000  0.4153760000000  0.3931710000000 1.0
C      1  0.4651440000000  0.4449860000000  0.6107580000000 1.0
C      1  0.4680110000000  0.6240600000000  0.4842920000000 1.0
C      1  0.5315700000000  0.5468770000000  0.3977880000000 1.0
C      1  0.5325590000000  0.5667560000000  0.5828440000000 1.0
C      1  0.5292470000000  0.3943280000000  0.5172620000000 1.0
C      1  0.5328340000000  0.5431590000000  0.5979200000000 1.0
C      1  0.5298950000000  0.5684470000000  0.4160570000000 1.0
C      1  0.5317620000000  0.3925890000000  0.4887300000000 1.0
C      1  0.5494770000000  0.5262090000000  0.4072440000000 1.0
C      1  0.5503720000000  0.5670270000000  0.5601700000000 1.0
C      1  0.5457940000000  0.4152720000000  0.5272290000000 1.0
C      1  0.5505040000000  0.5225740000000  0.5878770000000 1.0
C      1  0.5467800000000  0.5658660000000  0.4387940000000 1.0
C      1  0.5473020000000  0.4137630000000  0.4776190000000 1.0
C      1  0.5108570000000  0.4105950000000  0.4444360000000 1.0
C      1  0.5133940000000  0.6012650000000  0.4518800000000 1.0
C      1  0.5079990000000  0.5025950000000  0.6111970000000 1.0
C      1  0.5018190000000  0.4231140000000  0.5492870000000 1.0
C      1  0.5094250000000  0.5978450000000  0.5524860000000 1.0
C      1  0.5052290000000  0.5010150000000  0.4002160000000 1.0
C      1  0.4730890000000  0.4626590000000  0.3892170000000 1.0
C      1  0.4785410000000  0.6030740000000  0.5277300000000 1.0
C      1  0.4668400000000  0.4211440000000  0.5684920000000 1.0
C      1  0.4748400000000  0.4689260000000  0.5990640000000 1.0
C      1  0.4781390000000  0.6017940000000  0.4705540000000 1.0
C      1  0.4696810000000  0.4148460000000  0.4206170000000 1.0
C      1  0.4601500000000  0.4527920000000  0.5269740000000 1.0
C      1  0.4673700000000  0.5017260000000  0.4403740000000 1.0
C      1  0.4648620000000  0.5491050000000  0.5304430000000 1.0
C      1  0.4624600000000  0.4477780000000  0.4760650000000 1.0
C      1  0.4655400000000  0.5024380000000  0.5565580000000 1.0
C      1  0.4692370000000  0.5462740000000  0.4659190000000 1.0
C      1  0.4914230000000  0.4968070000000  0.4640520000000 1.0
C      1  0.4860380000000  0.5265400000000  0.5142140000000 1.0
C      1  0.4798500000000  0.4760480000000  0.5118580000000 1.0
C      1  0.4861930000000  0.5007220000000  0.5299080000000 1.0
C      1  0.4898900000000  0.5229680000000  0.4805830000000 1.0
C      1  0.4837190000000  0.4726890000000  0.4837920000000 1.0
C      1  0.4171050000000  0.5238830000000  0.4871850000000 1.0
C      1  0.4121330000000  0.4952470000000  0.5346370000000 1.0
C      1  0.4107330000000  0.4693840000000  0.4886620000000 1.0
C      1  0.4131810000000  0.5224160000000  0.5187300000000 1.0
C      1  0.4145680000000  0.4970690000000  0.4711120000000 1.0
C      1  0.4080040000000  0.4668840000000  0.5197450000000 1.0
C      1  0.4347580000000  0.5231610000000  0.4316770000000 1.0
C      1  0.4343700000000  0.5470200000000  0.5571110000000 1.0
C      1  0.4338590000000  0.4203130000000  0.5157160000000 1.0
C      1  0.4350370000000  0.5225260000000  0.5720620000000 1.0
C      1  0.4347660000000  0.5478070000000  0.4458710000000 1.0
C      1  0.4333300000000  0.4230150000000  0.4867670000000 1.0
C      1  0.5161130000000  0.4489580000000  0.4837290000000 1.0
C      1  0.5221110000000  0.5476840000000  0.4644320000000 1.0
C      1  0.5266340000000  0.5176860000000  0.5564870000000 1.0
C      1  0.5226690000000  0.4556410000000  0.5171470000000 1.0
C      1  0.5297850000000  0.5440300000000  0.5351840000000 1.0
C      1  0.5235320000000  0.5163940000000  0.4482270000000 1.0
C      1  0.4622000000000  0.4147390000000  0.4707170000000 1.0
C      1  0.4608480000000  0.5671390000000  0.4411480000000 1.0
C      1  0.4636520000000  0.5167380000000  0.5875130000000 1.0
C      1  0.4533230000000  0.4017690000000  0.5253310000000 1.0
C      1  0.4587740000000  0.5684910000000  0.5582140000000 1.0
C      1  0.4597990000000  0.5184670000000  0.4113180000000 1.0
C      1  0.5712480000000  0.5211900000000  0.4322730000000 1.0
C      1  0.5737100000000  0.5472290000000  0.5492340000000 1.0
C      1  0.5712590000000  0.4317420000000  0.5161900000000 1.0
C      1  0.5724210000000  0.5209680000000  0.5650050000000 1.0
C      1  0.5708430000000  0.5476450000000  0.4486570000000 1.0
C      1  0.5708030000000  0.4327040000000  0.4857410000000 1.0
C      1  0.5088200000000  0.5124520000000  0.3697000000000 1.0
C      1  0.5181760000000  0.6244930000000  0.5532050000000 1.0
C      1  0.5036650000000  0.4321260000000  0.5794240000000 1.0
C      1  0.5185830000000  0.4937370000000  0.6355490000000 1.0
C      1  0.5211110000000  0.6266570000000  0.4508470000000 1.0
C      1  0.5231170000000  0.3946400000000  0.4250580000000 1.0
C      1  0.4434680000000  0.4444140000000  0.4253200000000 1.0
C      1  0.4159130000000  0.6059270000000  0.4828780000000 1.0
C      1  0.4261550000000  0.4518940000000  0.5991710000000 1.0
C      1  0.4242370000000  0.4243420000000  0.5867950000000 1.0
C      1  0.4151940000000  0.6025310000000  0.5130630000000 1.0
C      1  0.4352150000000  0.4636320000000  0.4020450000000 1.0
C      1  0.5397030000000  0.4737430000000  0.4858680000000 1.0
C      1  0.5428890000000  0.5289230000000  0.4824130000000 1.0
C      1  0.5437930000000  0.5067670000000  0.5321920000000 1.0
C      1  0.5456300000000  0.4781570000000  0.5180550000000 1.0
C      1  0.5495890000000  0.5313220000000  0.5128760000000 1.0
C      1  0.5414280000000  0.4999160000000  0.4690480000000 1.0
C      1  0.4202700000000  0.5509140000000  0.4701910000000 1.0
C      1  0.4220320000000  0.4977570000000  0.5645390000000 1.0
C      1  0.4187230000000  0.4432380000000  0.4730590000000 1.0
C      1  0.4182560000000  0.5494090000000  0.5340800000000 1.0
C      1  0.4196000000000  0.5003020000000  0.4397060000000 1.0
C      1  0.4206200000000  0.4402290000000  0.5325800000000 1.0
C      1  0.5404980000000  0.4726380000000  0.5814110000000 1.0
C      1  0.5467150000000  0.4460240000000  0.4397590000000 1.0
C      1  0.5503810000000  0.5886770000000  0.4847720000000 1.0
C      1  0.5388600000000  0.4750700000000  0.4291010000000 1.0
C      1  0.5439610000000  0.4480040000000  0.5644480000000 1.0
C      1  0.5458960000000  0.5901630000000  0.5144790000000 1.0
C      1  0.5067820000000  0.5785400000000  0.5773580000000 1.0
C      1  0.5028460000000  0.3893360000000  0.5280150000000 1.0
C      1  0.5057600000000  0.5381510000000  0.3857570000000 1.0
C      1  0.5043550000000  0.5805340000000  0.4189660000000 1.0
C      1  0.5074810000000  0.3852690000000  0.4751120000000 1.0
C      1  0.5074370000000  0.5329380000000  0.6055090000000 1.0
C      1  0.4214940000000  0.4485980000000  0.4459160000000 1.0
C      1  0.4160420000000  0.5739470000000  0.4854220000000 1.0
C      1  0.4228700000000  0.4726380000000  0.5766840000000 1.0
C      1  0.4219390000000  0.4426310000000  0.5607070000000 1.0
C      1  0.4150660000000  0.5721450000000  0.5184900000000 1.0
C      1  0.4185560000000  0.4752520000000  0.4267950000000 1.0
C      1  0.5017220000000  0.4859190000000  0.5573500000000 1.0
C      1  0.4957090000000  0.4576980000000  0.4569810000000 1.0
C      1  0.5012090000000  0.5531780000000  0.4888720000000 1.0
C      1  0.5091170000000  0.4800730000000  0.4399280000000 1.0
C      1  0.4975020000000  0.4628830000000  0.5356810000000 1.0
C      1  0.5037040000000  0.5533760000000  0.5219800000000 1.0
C      1  0.5687850000000  0.4949300000000  0.4540610000000 1.0
C      1  0.5798550000000  0.5409920000000  0.5161900000000 1.0
C      1  0.5726570000000  0.4636030000000  0.5280900000000 1.0
C      1  0.5713070000000  0.4937850000000  0.5444040000000 1.0
C      1  0.5731900000000  0.5409080000000  0.4820900000000 1.0
C      1  0.5685070000000  0.4646310000000  0.4723140000000 1.0
END
