TITL C-2782227-3064-910 -0.000835944576808328 125000 -92.3163837351442 0 0 19 (C1) n - 1
REM
REM in /home/nfs/bkarasulu/CARBON/AIRSS/Generating-Clusters/REBO/Higher-Symm/SD-CG/HFTN-CG
REM
REM
REM
REM
REM
REM ./C.cell (12c818d87b63d06a65506943cc24bca4)
REM
REM compiler GCC version 9.2.1 20190827 (Red Hat 9.2.1-1)
REM options -cpp -mtune=generic -march=x86-64 -g -O0 -fpre-include=/usr/include/finclude/math-vector-fortran.h
REM seed -1296857849 349353561 -534039495 -1137487067 -1966763357 -40211319 1625987040 140032961 1615554612 1237473195 -474169269 -1665037017 -2012422624 1474031788 -1073737080 -1835314862 -1237793440 -2147421629 -677767528 990894219 -19740027 -1963730440 1993565942 1641540204 -299881607 99056655 -796103859 281634174 -1756922758 1365091395 -721638351 -175198763 1824657135
REM
CELL 1.54180   50.00000   50.00000   50.00000   90.00000   90.00000   90.00000
LATT -1
SFAC C  
C      1  0.4739610000000  0.4874080000000  0.5066860000000 1.0
C      1  0.5095920000000  0.4745780000000  0.4518160000000 1.0
C      1  0.5194150000000  0.4608250000000  0.4788650000000 1.0
C      1  0.5268100000000  0.4483670000000  0.5075580000000 1.0
C      1  0.4489710000000  0.5195100000000  0.5329420000000 1.0
C      1  0.4745060000000  0.5157160000000  0.5196570000000 1.0
C      1  0.4869800000000  0.4808280000000  0.4771510000000 1.0
C      1  0.5079980000000  0.5604950000000  0.5254610000000 1.0
C      1  0.4322530000000  0.4970650000000  0.5300010000000 1.0
C      1  0.4998090000000  0.4675290000000  0.5058500000000 1.0
C      1  0.4949810000000  0.5325400000000  0.5182780000000 1.0
C      1  0.5253630000000  0.5390870000000  0.5076350000000 1.0
C      1  0.5563680000000  0.5252660000000  0.5052600000000 1.0
C      1  0.4451480000000  0.4772540000000  0.5149380000000 1.0
C      1  0.5063710000000  0.5844870000000  0.5373950000000 1.0
C      1  0.5270630000000  0.4775790000000  0.4311160000000 1.0
C      1  0.5430590000000  0.4333010000000  0.5224860000000 1.0
C      1  0.5449100000000  0.5371290000000  0.4798500000000 1.0
C      1  0.4764410000000  0.4810360000000  0.4470570000000 1.0
END
