TITL C-2782238-9940-478 -0.000457358237449605 125000 -652.2024041768 0 0 116 (C1) n - 1
REM
REM in /home/nfs/bkarasulu/CARBON/AIRSS/Generating-Clusters/REBO/Higher-Symm/SD-CG/HFTN-CG
REM
REM
REM
REM
REM
REM ./C.cell (12c818d87b63d06a65506943cc24bca4)
REM
REM compiler GCC version 9.2.1 20190827 (Red Hat 9.2.1-1)
REM options -cpp -mtune=generic -march=x86-64 -g -O0 -fpre-include=/usr/include/finclude/math-vector-fortran.h
REM seed 913709019 -1675579859 1993751008 318394625 -600914400 885578618 1289082887 -2096969888 1685217469 -1775668108 2039178927 1056044638 -102837667 1202336056 -981889355 110649664 -988649892 187516900 2071681137 1628592410 -758556031 -632100248 1695380841 -1509373757 -2073676256 781463028 -1788553121 606781366 -1883613306 286097303 1299261936 -958327972 -1050784386
REM
CELL 1.54180   50.00000   50.00000   50.00000   90.00000   90.00000   90.00000
LATT -1
SFAC C  
C      1  0.5927160000000  0.4908840000000  0.4806490000000 1.0
C      1  0.4823340000000  0.4798320000000  0.5997580000000 1.0
C      1  0.4812300000000  0.5932370000000  0.4875830000000 1.0
C      1  0.5932710000000  0.5177810000000  0.5100090000000 1.0
C      1  0.4090280000000  0.4855200000000  0.5159770000000 1.0
C      1  0.4104900000000  0.5250870000000  0.4801360000000 1.0
C      1  0.4857680000000  0.5106040000000  0.4007650000000 1.0
C      1  0.5126070000000  0.4812500000000  0.4038820000000 1.0
C      1  0.5102780000000  0.5083140000000  0.5993680000000 1.0
C      1  0.4823490000000  0.4034980000000  0.5181100000000 1.0
C      1  0.5187520000000  0.5885540000000  0.5252630000000 1.0
C      1  0.5197140000000  0.4094220000000  0.4796790000000 1.0
C      1  0.4096640000000  0.4922800000000  0.4837190000000 1.0
C      1  0.5151780000000  0.4747290000000  0.6015500000000 1.0
C      1  0.5148290000000  0.5938080000000  0.4928340000000 1.0
C      1  0.4074320000000  0.5186220000000  0.5134950000000 1.0
C      1  0.5942810000000  0.4849830000000  0.5133610000000 1.0
C      1  0.5961920000000  0.5234480000000  0.4764230000000 1.0
C      1  0.5184410000000  0.5145880000000  0.4004660000000 1.0
C      1  0.4800190000000  0.4769530000000  0.4021680000000 1.0
C      1  0.4778150000000  0.5136120000000  0.6009060000000 1.0
C      1  0.5160940000000  0.4054150000000  0.5125520000000 1.0
C      1  0.4857650000000  0.5894000000000  0.5198910000000 1.0
C      1  0.4866400000000  0.4070980000000  0.4856840000000 1.0
C      1  0.4096150000000  0.4772280000000  0.4573110000000 1.0
C      1  0.4735560000000  0.4502950000000  0.4119730000000 1.0
C      1  0.4634020000000  0.4230100000000  0.4719100000000 1.0
C      1  0.4107160000000  0.5278970000000  0.5409200000000 1.0
C      1  0.5907940000000  0.4770410000000  0.5403850000000 1.0
C      1  0.5802370000000  0.5317600000000  0.4505060000000 1.0
C      1  0.4724690000000  0.5412670000000  0.5947670000000 1.0
C      1  0.5318520000000  0.4562470000000  0.5831290000000 1.0
C      1  0.5251960000000  0.5419810000000  0.4060010000000 1.0
C      1  0.4588020000000  0.5831540000000  0.5334150000000 1.0
C      1  0.5423480000000  0.4097310000000  0.5254110000000 1.0
C      1  0.5403730000000  0.5900620000000  0.4784130000000 1.0
C      1  0.5882050000000  0.4758230000000  0.4544550000000 1.0
C      1  0.5216820000000  0.4552420000000  0.4144690000000 1.0
C      1  0.5461160000000  0.4233260000000  0.4724620000000 1.0
C      1  0.5854920000000  0.5261170000000  0.5369440000000 1.0
C      1  0.4144570000000  0.4786930000000  0.5431180000000 1.0
C      1  0.4211530000000  0.5322690000000  0.4529160000000 1.0
C      1  0.5226950000000  0.5341330000000  0.5943930000000 1.0
C      1  0.4676260000000  0.4571750000000  0.5833450000000 1.0
C      1  0.4777430000000  0.5386190000000  0.4067300000000 1.0
C      1  0.5447740000000  0.5743240000000  0.5323400000000 1.0
C      1  0.4553900000000  0.4079670000000  0.5276840000000 1.0
C      1  0.4550080000000  0.5856660000000  0.4791850000000 1.0
C      1  0.4444490000000  0.5091730000000  0.4439460000000 1.0
C      1  0.5140530000000  0.4520740000000  0.4433150000000 1.0
C      1  0.4468270000000  0.4364240000000  0.5253570000000 1.0
C      1  0.4424950000000  0.4886280000000  0.5501390000000 1.0
C      1  0.5584120000000  0.5166860000000  0.5457180000000 1.0
C      1  0.5609030000000  0.4779960000000  0.4470250000000 1.0
C      1  0.5150900000000  0.5444720000000  0.5671240000000 1.0
C      1  0.4868870000000  0.4501240000000  0.5573250000000 1.0
C      1  0.4845530000000  0.5465510000000  0.4353670000000 1.0
C      1  0.4515050000000  0.5557010000000  0.4803220000000 1.0
C      1  0.5507020000000  0.4494230000000  0.4933080000000 1.0
C      1  0.5530100000000  0.5518800000000  0.5104840000000 1.0
C      1  0.5545970000000  0.5105690000000  0.4453740000000 1.0
C      1  0.4804050000000  0.4471760000000  0.4408600000000 1.0
C      1  0.5501610000000  0.4382050000000  0.5251240000000 1.0
C      1  0.5637000000000  0.4831090000000  0.5494830000000 1.0
C      1  0.4383670000000  0.5225920000000  0.5501660000000 1.0
C      1  0.4361830000000  0.4767510000000  0.4472780000000 1.0
C      1  0.4811480000000  0.5481140000000  0.5671170000000 1.0
C      1  0.5153970000000  0.4437540000000  0.5594990000000 1.0
C      1  0.5188620000000  0.5489470000000  0.4342730000000 1.0
C      1  0.5484850000000  0.5621860000000  0.4778720000000 1.0
C      1  0.4468700000000  0.4444390000000  0.4922060000000 1.0
C      1  0.4479080000000  0.5584080000000  0.5142360000000 1.0
C      1  0.4812770000000  0.5390030000000  0.4772220000000 1.0
C      1  0.5339660000000  0.4863760000000  0.4819380000000 1.0
C      1  0.4837420000000  0.4808270000000  0.5456840000000 1.0
C      1  0.4750730000000  0.4521820000000  0.5192920000000 1.0
C      1  0.5234400000000  0.5387370000000  0.5109720000000 1.0
C      1  0.5185450000000  0.4597330000000  0.4903150000000 1.0
C      1  0.5280200000000  0.5147870000000  0.5283840000000 1.0
C      1  0.4606650000000  0.4814190000000  0.5225400000000 1.0
C      1  0.4538470000000  0.5124140000000  0.4757350000000 1.0
C      1  0.4842180000000  0.5169150000000  0.4532710000000 1.0
C      1  0.5151390000000  0.4823110000000  0.4575140000000 1.0
C      1  0.5092170000000  0.5156820000000  0.5521070000000 1.0
C      1  0.5210460000000  0.5425440000000  0.4792210000000 1.0
C      1  0.4663170000000  0.4837460000000  0.4794060000000 1.0
C      1  0.5158450000000  0.4783780000000  0.5395690000000 1.0
C      1  0.5217590000000  0.4538690000000  0.5213600000000 1.0
C      1  0.4774360000000  0.5436980000000  0.5082540000000 1.0
C      1  0.4788070000000  0.4563630000000  0.4882870000000 1.0
C      1  0.4594790000000  0.5213700000000  0.5234120000000 1.0
C      1  0.5437830000000  0.4871540000000  0.5233310000000 1.0
C      1  0.5469280000000  0.5145970000000  0.4768800000000 1.0
C      1  0.5160840000000  0.5222140000000  0.4557950000000 1.0
C      1  0.4840820000000  0.4769540000000  0.4544980000000 1.0
C      1  0.4781210000000  0.5201850000000  0.5486160000000 1.0
C      1  0.5145740000000  0.4901350000000  0.5709040000000 1.0
C      1  0.5016620000000  0.5591670000000  0.5201640000000 1.0
C      1  0.5675350000000  0.5301430000000  0.4930080000000 1.0
C      1  0.5208900000000  0.4999510000000  0.4308130000000 1.0
C      1  0.4774100000000  0.4961320000000  0.4296470000000 1.0
C      1  0.4752080000000  0.4970270000000  0.5714120000000 1.0
C      1  0.5002680000000  0.4373490000000  0.4776310000000 1.0
C      1  0.5000370000000  0.5669870000000  0.4784030000000 1.0
C      1  0.4990280000000  0.4324600000000  0.5236520000000 1.0
C      1  0.5637690000000  0.4850540000000  0.4978380000000 1.0
C      1  0.4382280000000  0.5225980000000  0.5000870000000 1.0
C      1  0.4385980000000  0.4828540000000  0.4989460000000 1.0
C      1  0.4522060000000  0.4525360000000  0.4588830000000 1.0
C      1  0.4547700000000  0.5524900000000  0.5476310000000 1.0
C      1  0.5465480000000  0.4560940000000  0.5526490000000 1.0
C      1  0.5486110000000  0.5444120000000  0.4503680000000 1.0
C      1  0.5436900000000  0.4546070000000  0.4596860000000 1.0
C      1  0.5407950000000  0.5458050000000  0.5460250000000 1.0
C      1  0.4532110000000  0.4561530000000  0.5524480000000 1.0
C      1  0.4535660000000  0.5420730000000  0.4490560000000 1.0
END
