TITL C-2782227-3064-1215 -0.0911819433051397 125000 -708.153667323241 0 0 121 (C1) n - 1
REM
REM in /home/nfs/bkarasulu/CARBON/AIRSS/Generating-Clusters/REBO/Higher-Symm/SD-CG/HFTN-CG
REM
REM
REM
REM
REM
REM ./C.cell (12c818d87b63d06a65506943cc24bca4)
REM
REM compiler GCC version 9.2.1 20190827 (Red Hat 9.2.1-1)
REM options -cpp -mtune=generic -march=x86-64 -g -O0 -fpre-include=/usr/include/finclude/math-vector-fortran.h
REM seed -667553209 -1603026901 -233770429 1081971471 53917370 -1532516414 1095296901 1575651882 582520381 591196913 303646032 1853267206 -441610737 -64516179 1608845184 -329071854 2124340416 -1386033945 1117774722 1795783970 -1741726362 90976260 114365511 -631268740 -1644375212 55755444 -1797939748 -1463846345 -682990939 -302394203 -698605727 538070046 -2001201258
REM
CELL 1.54180   50.00000   50.00000   50.00000   90.00000   90.00000   90.00000
LATT -1
SFAC C  
C      1  0.4272990000000  0.5411690000000  0.5349720000000 1.0
C      1  0.4329740000000  0.4610360000000  0.5332830000000 1.0
C      1  0.4453520000000  0.5562900000000  0.4491930000000 1.0
C      1  0.4539540000000  0.4392900000000  0.4488160000000 1.0
C      1  0.4923690000000  0.4447230000000  0.4393990000000 1.0
C      1  0.4912640000000  0.5471810000000  0.4372790000000 1.0
C      1  0.4832660000000  0.4464400000000  0.4834360000000 1.0
C      1  0.4844540000000  0.5587690000000  0.4862020000000 1.0
C      1  0.5014280000000  0.4810910000000  0.5517370000000 1.0
C      1  0.5023120000000  0.5119100000000  0.5616930000000 1.0
C      1  0.5784720000000  0.4330060000000  0.4959420000000 1.0
C      1  0.5742110000000  0.5575890000000  0.4926260000000 1.0
C      1  0.5234630000000  0.5115700000000  0.3988050000000 1.0
C      1  0.5155920000000  0.4854770000000  0.4058380000000 1.0
C      1  0.4797030000000  0.4009720000000  0.5075770000000 1.0
C      1  0.4757310000000  0.6025300000000  0.5106170000000 1.0
C      1  0.4927880000000  0.5985350000000  0.4879240000000 1.0
C      1  0.4947330000000  0.4001190000000  0.4829970000000 1.0
C      1  0.5186210000000  0.5150630000000  0.4873920000000 1.0
C      1  0.5152990000000  0.4846440000000  0.4907980000000 1.0
C      1  0.4777790000000  0.5845750000000  0.4652030000000 1.0
C      1  0.4778060000000  0.3950270000000  0.4605600000000 1.0
C      1  0.5699130000000  0.5271910000000  0.4920760000000 1.0
C      1  0.5746160000000  0.4663170000000  0.4894590000000 1.0
C      1  0.4857290000000  0.4384120000000  0.5327420000000 1.0
C      1  0.4891250000000  0.5600740000000  0.5413980000000 1.0
C      1  0.5776320000000  0.5242800000000  0.5672250000000 1.0
C      1  0.5542460000000  0.4709710000000  0.5484650000000 1.0
C      1  0.4679100000000  0.4603080000000  0.4299420000000 1.0
C      1  0.4645100000000  0.5372690000000  0.4359800000000 1.0
C      1  0.4589440000000  0.5690230000000  0.5425410000000 1.0
C      1  0.4540670000000  0.4370340000000  0.5392850000000 1.0
C      1  0.5385270000000  0.5142870000000  0.5288140000000 1.0
C      1  0.5338540000000  0.4840250000000  0.5272010000000 1.0
C      1  0.5572070000000  0.5127210000000  0.5821010000000 1.0
C      1  0.5487930000000  0.4840750000000  0.5754130000000 1.0
C      1  0.5813580000000  0.4825820000000  0.5377030000000 1.0
C      1  0.5862690000000  0.5135760000000  0.5429610000000 1.0
C      1  0.4557360000000  0.5828410000000  0.5178390000000 1.0
C      1  0.4582930000000  0.4174090000000  0.5130060000000 1.0
C      1  0.5188970000000  0.4813420000000  0.5810960000000 1.0
C      1  0.5252780000000  0.5140220000000  0.5872920000000 1.0
C      1  0.4597420000000  0.5460130000000  0.5642500000000 1.0
C      1  0.4556110000000  0.4579800000000  0.5656030000000 1.0
C      1  0.5466340000000  0.4202360000000  0.4901750000000 1.0
C      1  0.5460050000000  0.5787000000000  0.4855120000000 1.0
C      1  0.4816260000000  0.5170570000000  0.6097570000000 1.0
C      1  0.4759120000000  0.4910270000000  0.6007640000000 1.0
C      1  0.4530640000000  0.4389670000000  0.4907860000000 1.0
C      1  0.4525060000000  0.5614190000000  0.4957260000000 1.0
C      1  0.4200390000000  0.5151380000000  0.4523710000000 1.0
C      1  0.4239360000000  0.4847640000000  0.4469720000000 1.0
C      1  0.4160740000000  0.5124090000000  0.5098730000000 1.0
C      1  0.4165060000000  0.4813280000000  0.5032120000000 1.0
C      1  0.5070810000000  0.4818150000000  0.4387960000000 1.0
C      1  0.5148590000000  0.5317060000000  0.4226130000000 1.0
C      1  0.4664960000000  0.5153220000000  0.4829320000000 1.0
C      1  0.4680650000000  0.4829200000000  0.4754720000000 1.0
C      1  0.4154330000000  0.4675100000000  0.4750890000000 1.0
C      1  0.4139020000000  0.5288150000000  0.4830240000000 1.0
C      1  0.5336800000000  0.4593620000000  0.4617370000000 1.0
C      1  0.5376230000000  0.5517740000000  0.4485780000000 1.0
C      1  0.4522660000000  0.4836680000000  0.4273190000000 1.0
C      1  0.4488700000000  0.5129570000000  0.4338230000000 1.0
C      1  0.5259380000000  0.5278350000000  0.5497660000000 1.0
C      1  0.5009460000000  0.4777700000000  0.5206920000000 1.0
C      1  0.4468260000000  0.4671190000000  0.4631620000000 1.0
C      1  0.4441340000000  0.5302350000000  0.4695450000000 1.0
C      1  0.5290870000000  0.3961090000000  0.5172800000000 1.0
C      1  0.5279990000000  0.6096950000000  0.5031410000000 1.0
C      1  0.5401000000000  0.4884160000000  0.4597070000000 1.0
C      1  0.5382770000000  0.5217880000000  0.4534340000000 1.0
C      1  0.5579960000000  0.5739790000000  0.5161370000000 1.0
C      1  0.5518750000000  0.4442560000000  0.5137410000000 1.0
C      1  0.4239880000000  0.4379360000000  0.4776500000000 1.0
C      1  0.4214110000000  0.5582610000000  0.4863450000000 1.0
C      1  0.5196640000000  0.5577360000000  0.5541940000000 1.0
C      1  0.5031400000000  0.4413480000000  0.5546770000000 1.0
C      1  0.5407870000000  0.5246480000000  0.5026720000000 1.0
C      1  0.5433670000000  0.4713820000000  0.4986100000000 1.0
C      1  0.5159860000000  0.5819120000000  0.4763730000000 1.0
C      1  0.5175920000000  0.4166090000000  0.4769460000000 1.0
C      1  0.4339740000000  0.4836850000000  0.5589010000000 1.0
C      1  0.4431540000000  0.5163490000000  0.5620260000000 1.0
C      1  0.5882170000000  0.5120640000000  0.5118360000000 1.0
C      1  0.5910030000000  0.4818010000000  0.5087080000000 1.0
C      1  0.5554640000000  0.4401900000000  0.4645970000000 1.0
C      1  0.5585570000000  0.5685790000000  0.4578250000000 1.0
C      1  0.5608370000000  0.4669040000000  0.4333770000000 1.0
C      1  0.5702420000000  0.5251550000000  0.4300220000000 1.0
C      1  0.4668960000000  0.5143500000000  0.5171240000000 1.0
C      1  0.4726890000000  0.4848920000000  0.5079810000000 1.0
C      1  0.5202390000000  0.5869730000000  0.5157780000000 1.0
C      1  0.5201460000000  0.4218500000000  0.5212370000000 1.0
C      1  0.5725660000000  0.4806390000000  0.4619590000000 1.0
C      1  0.5702430000000  0.5139520000000  0.4621890000000 1.0
C      1  0.4968490000000  0.4733460000000  0.4679840000000 1.0
C      1  0.4928780000000  0.5294790000000  0.4750450000000 1.0
C      1  0.4725460000000  0.4860320000000  0.5682140000000 1.0
C      1  0.4723670000000  0.5126890000000  0.5469540000000 1.0
C      1  0.4083290000000  0.4834720000000  0.5361920000000 1.0
C      1  0.4141080000000  0.5149440000000  0.5442080000000 1.0
C      1  0.4924600000000  0.5488580000000  0.5733760000000 1.0
C      1  0.4860090000000  0.4493900000000  0.5767680000000 1.0
C      1  0.4539740000000  0.5823550000000  0.4515690000000 1.0
C      1  0.4597220000000  0.4125860000000  0.4503690000000 1.0
C      1  0.5351060000000  0.4432790000000  0.5430420000000 1.0
C      1  0.5378050000000  0.5760980000000  0.5381160000000 1.0
C      1  0.5006120000000  0.5315710000000  0.5962760000000 1.0
C      1  0.4956990000000  0.4684510000000  0.5954670000000 1.0
C      1  0.5879590000000  0.5669380000000  0.4629640000000 1.0
C      1  0.5852330000000  0.4386860000000  0.4627420000000 1.0
C      1  0.4470860000000  0.4665050000000  0.5052790000000 1.0
C      1  0.4430560000000  0.5343000000000  0.5098450000000 1.0
C      1  0.5128940000000  0.4382530000000  0.4578900000000 1.0
C      1  0.5109000000000  0.5631500000000  0.4537430000000 1.0
C      1  0.5357920000000  0.4701980000000  0.4235470000000 1.0
C      1  0.5476560000000  0.5269800000000  0.4149070000000 1.0
C      1  0.4990630000000  0.5678630000000  0.5126670000000 1.0
C      1  0.4983290000000  0.4363150000000  0.5058940000000 1.0
C      1  0.5073400000000  0.5126670000000  0.4493220000000 1.0
END
