TITL C-2782233-7966-525 0.00246923362598585 125000 -524.487178287758 0 0 91 (C2) n - 1
REM
REM in /home/nfs/bkarasulu/CARBON/AIRSS/Generating-Clusters/REBO/Higher-Symm/SD-CG/HFTN-CG
REM
REM
REM
REM
REM
REM ./C.cell (12c818d87b63d06a65506943cc24bca4)
REM
REM compiler GCC version 9.2.1 20190827 (Red Hat 9.2.1-1)
REM options -cpp -mtune=generic -march=x86-64 -g -O0 -fpre-include=/usr/include/finclude/math-vector-fortran.h
REM seed 1335252853 -1585968680 355641113 -1784445517 2003813218 1180944353 -1293445186 -2091621656 200608691 -1894027527 957117231 -1856468343 693816981 38117062 -583679350 -952389107 652330029 -694111612 952742934 1852546459 -895162422 -507614874 -1815336274 -1076259956 169783739 -2003478714 -1802254937 -280358507 -516667039 -1371841340 -850140639 1994013860 -811635781
REM
CELL 1.54180   50.00000   50.00000   50.00000   90.00000   90.00000   90.00000
LATT -1
SFAC C  
C      1  0.5804030000000  0.5086590000000  0.4698860000000 1.0
C      1  0.5785930000000  0.5227510000000  0.5230300000000 1.0
C      1  0.5755240000000  0.4724340000000  0.5062820000000 1.0
C      1  0.4194540000000  0.4905200000000  0.4698800000000 1.0
C      1  0.4212600000000  0.4764300000000  0.5230250000000 1.0
C      1  0.4243310000000  0.5267460000000  0.5062760000000 1.0
C      1  0.5356170000000  0.5036660000000  0.5347850000000 1.0
C      1  0.5365800000000  0.4780410000000  0.4717300000000 1.0
C      1  0.5392960000000  0.5310920000000  0.4925960000000 1.0
C      1  0.4642360000000  0.4955150000000  0.5347820000000 1.0
C      1  0.4632770000000  0.5211380000000  0.4717270000000 1.0
C      1  0.4605600000000  0.4680870000000  0.4925940000000 1.0
C      1  0.5147090000000  0.5728640000000  0.5068760000000 1.0
C      1  0.5115510000000  0.4620490000000  0.5545820000000 1.0
C      1  0.5122850000000  0.4679320000000  0.4291010000000 1.0
C      1  0.4851460000000  0.4263150000000  0.5068760000000 1.0
C      1  0.4883010000000  0.5371320000000  0.5545800000000 1.0
C      1  0.4875760000000  0.5312460000000  0.4290990000000 1.0
C      1  0.5161750000000  0.5215860000000  0.4175420000000 1.0
C      1  0.5117930000000  0.5589990000000  0.5600780000000 1.0
C      1  0.5145210000000  0.4222700000000  0.5190520000000 1.0
C      1  0.4836860000000  0.4775920000000  0.4175410000000 1.0
C      1  0.4880580000000  0.4401820000000  0.5600790000000 1.0
C      1  0.4853330000000  0.5769100000000  0.5190500000000 1.0
C      1  0.5715360000000  0.5285140000000  0.4950520000000 1.0
C      1  0.5671550000000  0.4924360000000  0.5285400000000 1.0
C      1  0.5691060000000  0.4808740000000  0.4755200000000 1.0
C      1  0.4283200000000  0.4706660000000  0.4950480000000 1.0
C      1  0.4326990000000  0.5067440000000  0.5285350000000 1.0
C      1  0.4307510000000  0.5183050000000  0.4755150000000 1.0
C      1  0.4815280000000  0.5259660000000  0.4990950000000 1.0
C      1  0.4644450000000  0.4687870000000  0.5452160000000 1.0
C      1  0.4749530000000  0.4849730000000  0.4687310000000 1.0
C      1  0.5183280000000  0.4732130000000  0.4990960000000 1.0
C      1  0.5354070000000  0.5303930000000  0.5452180000000 1.0
C      1  0.5249050000000  0.5142060000000  0.4687330000000 1.0
C      1  0.5229800000000  0.5733170000000  0.5393780000000 1.0
C      1  0.5234540000000  0.4315650000000  0.5435650000000 1.0
C      1  0.5248460000000  0.4954600000000  0.4134690000000 1.0
C      1  0.4768720000000  0.4258640000000  0.5393780000000 1.0
C      1  0.4763980000000  0.5676150000000  0.5435620000000 1.0
C      1  0.4750160000000  0.5037170000000  0.4134670000000 1.0
C      1  0.5246800000000  0.5347110000000  0.4432110000000 1.0
C      1  0.5233730000000  0.5325690000000  0.5727570000000 1.0
C      1  0.5209820000000  0.4392640000000  0.4947440000000 1.0
C      1  0.4751790000000  0.4644680000000  0.4432100000000 1.0
C      1  0.4764770000000  0.4666120000000  0.5727560000000 1.0
C      1  0.4788740000000  0.5599160000000  0.4947420000000 1.0
C      1  0.5431480000000  0.4569780000000  0.4387190000000 1.0
C      1  0.5467020000000  0.5708440000000  0.4956180000000 1.0
C      1  0.5428160000000  0.4712270000000  0.5639760000000 1.0
C      1  0.4567120000000  0.5422000000000  0.4387150000000 1.0
C      1  0.4531540000000  0.4283360000000  0.4956160000000 1.0
C      1  0.4570340000000  0.5279540000000  0.5639720000000 1.0
C      1  0.5464360000000  0.4612520000000  0.5146820000000 1.0
C      1  0.5530580000000  0.5078080000000  0.4507310000000 1.0
C      1  0.5641420000000  0.5446470000000  0.5420400000000 1.0
C      1  0.4534180000000  0.5379280000000  0.5146780000000 1.0
C      1  0.4468010000000  0.4913700000000  0.4507270000000 1.0
C      1  0.4357100000000  0.4545330000000  0.5420360000000 1.0
C      1  0.5601460000000  0.4493150000000  0.4855160000000 1.0
C      1  0.5645710000000  0.5380290000000  0.4626370000000 1.0
C      1  0.5695730000000  0.5132560000000  0.5555580000000 1.0
C      1  0.4397100000000  0.5498640000000  0.4855110000000 1.0
C      1  0.4352870000000  0.4611500000000  0.4626330000000 1.0
C      1  0.4302790000000  0.4859250000000  0.5555540000000 1.0
C      1  0.4525890000000  0.5489320000000  0.5424590000000 1.0
C      1  0.4505420000000  0.4318940000000  0.5259800000000 1.0
C      1  0.4522990000000  0.5129340000000  0.4309360000000 1.0
C      1  0.5472630000000  0.4502480000000  0.5424630000000 1.0
C      1  0.5493120000000  0.5672870000000  0.5259820000000 1.0
C      1  0.5475620000000  0.4862440000000  0.4309400000000 1.0
C      1  0.4884790000000  0.5081620000000  0.5408190000000 1.0
C      1  0.4848490000000  0.4493240000000  0.4833850000000 1.0
C      1  0.4901110000000  0.5385720000000  0.4622500000000 1.0
C      1  0.5113740000000  0.4910190000000  0.5408200000000 1.0
C      1  0.5150070000000  0.5498550000000  0.4833850000000 1.0
C      1  0.5097470000000  0.4606070000000  0.4622510000000 1.0
C      1  0.4563740000000  0.5598370000000  0.4615370000000 1.0
C      1  0.4550670000000  0.5011660000000  0.5732030000000 1.0
C      1  0.4509280000000  0.4354610000000  0.4677990000000 1.0
C      1  0.5434850000000  0.4393420000000  0.4615410000000 1.0
C      1  0.5447830000000  0.4980160000000  0.5732070000000 1.0
C      1  0.5489300000000  0.5637180000000  0.4678020000000 1.0
C      1  0.4862850000000  0.4933910000000  0.5831560000000 1.0
C      1  0.4813390000000  0.4340750000000  0.4531270000000 1.0
C      1  0.4874770000000  0.5723570000000  0.4653780000000 1.0
C      1  0.5135640000000  0.5057900000000  0.5831560000000 1.0
C      1  0.5185200000000  0.5651040000000  0.4531270000000 1.0
C      1  0.5123800000000  0.4268220000000  0.4653810000000 1.0
C      1  0.4999280000000  0.4995900000000  0.4866920000000 1.0
END
