TITL C-2782225-7408-446 0.00454447169718634 125000 -791.951614709356 0 0 141 (Th) n - 1
REM
REM in /home/nfs/bkarasulu/CARBON/AIRSS/Generating-Clusters/REBO/Higher-Symm/SD-CG/HFTN-CG
REM
REM
REM
REM
REM
REM ./C.cell (12c818d87b63d06a65506943cc24bca4)
REM
REM compiler GCC version 9.2.1 20190827 (Red Hat 9.2.1-1)
REM options -cpp -mtune=generic -march=x86-64 -g -O0 -fpre-include=/usr/include/finclude/math-vector-fortran.h
REM seed -1118024894 1999847397 -237811030 1046429915 -1539661642 1716618491 -50574091 1840654068 176025761 863183230 -1325037978 1303063584 -383411690 466657275 641287161 -2040164690 -821126972 91153327 542839286 -1077390830 2069104346 -647629714 -276440380 -889820578 -461293426 767258350 -471075345 1808502387 -1709694980 -1449154762 -632626165 -1217137514 912466732
REM
CELL 1.54180   50.00000   50.00000   50.00000   90.00000   90.00000   90.00000
LATT -1
SFAC C  
C      1  0.5619170000000  0.4679510000000  0.5747000000000 1.0
C      1  0.5744180000000  0.5616640000000  0.4684820000000 1.0
C      1  0.4682020000000  0.5741670000000  0.5621980000000 1.0
C      1  0.5619110000000  0.5317360000000  0.4260480000000 1.0
C      1  0.4382750000000  0.5317330000000  0.5747040000000 1.0
C      1  0.4382710000000  0.4679490000000  0.4260520000000 1.0
C      1  0.5744220000000  0.4380230000000  0.5322650000000 1.0
C      1  0.4257670000000  0.4380200000000  0.4684860000000 1.0
C      1  0.4257670000000  0.5616610000000  0.5322710000000 1.0
C      1  0.4682010000000  0.4255150000000  0.4385560000000 1.0
C      1  0.5319890000000  0.4255160000000  0.5621950000000 1.0
C      1  0.5319820000000  0.5741690000000  0.4385550000000 1.0
C      1  0.4382760000000  0.4679480000000  0.5747040000000 1.0
C      1  0.4257650000000  0.5616610000000  0.4684870000000 1.0
C      1  0.5319860000000  0.5741690000000  0.5621960000000 1.0
C      1  0.4382700000000  0.5317330000000  0.4260520000000 1.0
C      1  0.5619160000000  0.5317350000000  0.5747010000000 1.0
C      1  0.5619120000000  0.4679520000000  0.4260480000000 1.0
C      1  0.4257700000000  0.4380200000000  0.5322700000000 1.0
C      1  0.5744200000000  0.4380230000000  0.4684810000000 1.0
C      1  0.5744200000000  0.5616640000000  0.5322660000000 1.0
C      1  0.5319850000000  0.4255170000000  0.4385540000000 1.0
C      1  0.4682050000000  0.4255150000000  0.5621970000000 1.0
C      1  0.4681980000000  0.5741680000000  0.4385570000000 1.0
C      1  0.4087020000000  0.5429350000000  0.5155820000000 1.0
C      1  0.5152990000000  0.4084500000000  0.5434700000000 1.0
C      1  0.5431860000000  0.5150460000000  0.4089830000000 1.0
C      1  0.4087020000000  0.4567450000000  0.4851760000000 1.0
C      1  0.5914870000000  0.4567490000000  0.5155760000000 1.0
C      1  0.5914840000000  0.5429390000000  0.4851710000000 1.0
C      1  0.5152930000000  0.5912340000000  0.4572810000000 1.0
C      1  0.4848900000000  0.5912330000000  0.5434720000000 1.0
C      1  0.4848910000000  0.4084500000000  0.4572810000000 1.0
C      1  0.5431920000000  0.4846400000000  0.5917660000000 1.0
C      1  0.4569960000000  0.4846390000000  0.4089860000000 1.0
C      1  0.4570010000000  0.5150430000000  0.5917690000000 1.0
C      1  0.5914850000000  0.5429390000000  0.5155760000000 1.0
C      1  0.4848940000000  0.4084500000000  0.5434710000000 1.0
C      1  0.4569950000000  0.5150440000000  0.4089860000000 1.0
C      1  0.5914860000000  0.4567490000000  0.4851700000000 1.0
C      1  0.4087030000000  0.4567450000000  0.5155810000000 1.0
C      1  0.4087010000000  0.5429350000000  0.4851760000000 1.0
C      1  0.4848880000000  0.5912340000000  0.4572820000000 1.0
C      1  0.5152960000000  0.5912340000000  0.5434710000000 1.0
C      1  0.5152970000000  0.4084510000000  0.4572800000000 1.0
C      1  0.4570020000000  0.4846380000000  0.5917690000000 1.0
C      1  0.5431860000000  0.4846410000000  0.4089830000000 1.0
C      1  0.5431910000000  0.5150450000000  0.5917660000000 1.0
C      1  0.5159220000000  0.4712340000000  0.5954890000000 1.0
C      1  0.5952060000000  0.5156690000000  0.4717650000000 1.0
C      1  0.4714840000000  0.5949550000000  0.5162020000000 1.0
C      1  0.5159150000000  0.5284510000000  0.4052620000000 1.0
C      1  0.4842710000000  0.5284490000000  0.5954900000000 1.0
C      1  0.4842660000000  0.4712340000000  0.4052630000000 1.0
C      1  0.5952090000000  0.4840190000000  0.5289810000000 1.0
C      1  0.4049790000000  0.4840160000000  0.4717710000000 1.0
C      1  0.4049800000000  0.5156650000000  0.5289870000000 1.0
C      1  0.4714870000000  0.4047280000000  0.4845520000000 1.0
C      1  0.5287040000000  0.4047290000000  0.5161990000000 1.0
C      1  0.5286990000000  0.5949570000000  0.4845510000000 1.0
C      1  0.4842720000000  0.4712330000000  0.5954900000000 1.0
C      1  0.4049790000000  0.5156650000000  0.4717710000000 1.0
C      1  0.5287000000000  0.5949560000000  0.5162000000000 1.0
C      1  0.4842650000000  0.5284500000000  0.4052630000000 1.0
C      1  0.5159210000000  0.5284500000000  0.5954890000000 1.0
C      1  0.5159160000000  0.4712350000000  0.4052620000000 1.0
C      1  0.4049810000000  0.4840150000000  0.5289870000000 1.0
C      1  0.5952070000000  0.4840190000000  0.4717650000000 1.0
C      1  0.5952080000000  0.5156690000000  0.5289810000000 1.0
C      1  0.5287030000000  0.4047290000000  0.4845500000000 1.0
C      1  0.4714880000000  0.4047280000000  0.5162010000000 1.0
C      1  0.4714830000000  0.5949550000000  0.4845530000000 1.0
C      1  0.5172840000000  0.4563390000000  0.4358260000000 1.0
C      1  0.4355430000000  0.5170330000000  0.4568750000000 1.0
C      1  0.4565920000000  0.4352920000000  0.5175690000000 1.0
C      1  0.5172870000000  0.5433450000000  0.5649250000000 1.0
C      1  0.4828990000000  0.5433450000000  0.4358280000000 1.0
C      1  0.4829050000000  0.4563380000000  0.5649260000000 1.0
C      1  0.4355460000000  0.4826490000000  0.5438810000000 1.0
C      1  0.5646420000000  0.4826520000000  0.4568710000000 1.0
C      1  0.5646440000000  0.5170350000000  0.5438770000000 1.0
C      1  0.4565890000000  0.5643910000000  0.4831860000000 1.0
C      1  0.5435960000000  0.5643920000000  0.5175670000000 1.0
C      1  0.5435980000000  0.4352940000000  0.4831820000000 1.0
C      1  0.4829000000000  0.4563390000000  0.4358270000000 1.0
C      1  0.5646410000000  0.5170360000000  0.4568710000000 1.0
C      1  0.5435990000000  0.4352940000000  0.5175660000000 1.0
C      1  0.4829030000000  0.5433450000000  0.5649260000000 1.0
C      1  0.5172830000000  0.5433460000000  0.4358260000000 1.0
C      1  0.5172890000000  0.4563390000000  0.5649240000000 1.0
C      1  0.5646450000000  0.4826510000000  0.5438770000000 1.0
C      1  0.4355430000000  0.4826490000000  0.4568750000000 1.0
C      1  0.4355450000000  0.5170330000000  0.5438810000000 1.0
C      1  0.5435950000000  0.5643920000000  0.4831830000000 1.0
C      1  0.4565900000000  0.5643900000000  0.5175700000000 1.0
C      1  0.4565910000000  0.4352920000000  0.4831850000000 1.0
C      1  0.5531850000000  0.4682720000000  0.4835500000000 1.0
C      1  0.4832670000000  0.5529330000000  0.4688060000000 1.0
C      1  0.4685250000000  0.4830170000000  0.5534680000000 1.0
C      1  0.5531840000000  0.5314140000000  0.5171990000000 1.0
C      1  0.4470020000000  0.5314120000000  0.4835530000000 1.0
C      1  0.4470040000000  0.4682700000000  0.5172020000000 1.0
C      1  0.4832710000000  0.4467510000000  0.5319470000000 1.0
C      1  0.5169180000000  0.4467520000000  0.4688040000000 1.0
C      1  0.5169180000000  0.5529330000000  0.5319460000000 1.0
C      1  0.4685210000000  0.5166660000000  0.4472860000000 1.0
C      1  0.5316660000000  0.5166670000000  0.5534660000000 1.0
C      1  0.5316630000000  0.4830180000000  0.4472840000000 1.0
C      1  0.4470030000000  0.4682700000000  0.4835530000000 1.0
C      1  0.5169160000000  0.5529330000000  0.4688050000000 1.0
C      1  0.5316660000000  0.4830180000000  0.5534660000000 1.0
C      1  0.4470030000000  0.5314120000000  0.5172020000000 1.0
C      1  0.5531830000000  0.5314140000000  0.4835500000000 1.0
C      1  0.5531860000000  0.4682720000000  0.5171990000000 1.0
C      1  0.5169200000000  0.4467510000000  0.5319460000000 1.0
C      1  0.4832690000000  0.4467510000000  0.4688060000000 1.0
C      1  0.4832690000000  0.5529320000000  0.5319480000000 1.0
C      1  0.5316620000000  0.5166670000000  0.4472840000000 1.0
C      1  0.4685240000000  0.5166660000000  0.5534680000000 1.0
C      1  0.4685220000000  0.4830170000000  0.4472860000000 1.0
C      1  0.5000940000000  0.4675910000000  0.4851990000000 1.0
C      1  0.5000920000000  0.5320930000000  0.4852000000000 1.0
C      1  0.4849180000000  0.4998420000000  0.5326270000000 1.0
C      1  0.5152690000000  0.4998430000000  0.4681250000000 1.0
C      1  0.5000930000000  0.5320930000000  0.5155530000000 1.0
C      1  0.5000950000000  0.4675910000000  0.5155520000000 1.0
C      1  0.4678430000000  0.4846650000000  0.5003770000000 1.0
C      1  0.4849160000000  0.4998420000000  0.4681260000000 1.0
C      1  0.4678430000000  0.5150180000000  0.5003770000000 1.0
C      1  0.5323440000000  0.5150190000000  0.5003750000000 1.0
C      1  0.5323450000000  0.4846660000000  0.5003750000000 1.0
C      1  0.5152710000000  0.4998420000000  0.5326260000000 1.0
C      1  0.5596330000000  0.5593810000000  0.5599130000000 1.0
C      1  0.5596310000000  0.4403050000000  0.4408350000000 1.0
C      1  0.4405580000000  0.4403020000000  0.5599160000000 1.0
C      1  0.4405520000000  0.5593800000000  0.4408400000000 1.0
C      1  0.4405560000000  0.5593790000000  0.5599170000000 1.0
C      1  0.4405540000000  0.4403030000000  0.4408390000000 1.0
C      1  0.5596350000000  0.4403040000000  0.5599120000000 1.0
C      1  0.5596290000000  0.5593820000000  0.4408360000000 1.0
C      1  0.5000940000000  0.4998420000000  0.5003760000000 1.0
END
