TITL C-2782234-8014-654 -0.00423878126862443 125000 -1081.46691740721 0 0 182 (C1) n - 1
REM
REM in /home/nfs/bkarasulu/CARBON/AIRSS/Generating-Clusters/REBO/Higher-Symm/SD-CG/HFTN-CG
REM
REM
REM
REM
REM
REM ./C.cell (12c818d87b63d06a65506943cc24bca4)
REM
REM compiler GCC version 9.2.1 20190827 (Red Hat 9.2.1-1)
REM options -cpp -mtune=generic -march=x86-64 -g -O0 -fpre-include=/usr/include/finclude/math-vector-fortran.h
REM seed 1296531918 -1982529508 -100424079 -1556427971 203410237 -16785214 25266135 1403808562 -227626312 -1806508739 1160391881 -1633961918 -33982845 -161732627 773790887 1368642031 601434712 1925426671 166374720 241509992 297965509 1139520759 1969493791 680572993 892445072 1065156591 -1900098201 445962776 118191983 811861344 -1150280839 1985775415 -1493529814
REM
CELL 1.54180   50.00000   50.00000   50.00000   90.00000   90.00000   90.00000
LATT -1
SFAC C  
C      1  0.5945220000000  0.5465670000000  0.5081090000000 1.0
C      1  0.5986460000000  0.4566400000000  0.4931510000000 1.0
C      1  0.4004280000000  0.5495050000000  0.5096650000000 1.0
C      1  0.4076210000000  0.4617790000000  0.4888240000000 1.0
C      1  0.6019580000000  0.4975960000000  0.5903790000000 1.0
C      1  0.5771910000000  0.4985170000000  0.3979480000000 1.0
C      1  0.4163730000000  0.5037800000000  0.5936590000000 1.0
C      1  0.4210010000000  0.4992700000000  0.4021700000000 1.0
C      1  0.5181940000000  0.5323680000000  0.5394500000000 1.0
C      1  0.5163880000000  0.4689660000000  0.4675120000000 1.0
C      1  0.4850900000000  0.5301850000000  0.5423800000000 1.0
C      1  0.4828320000000  0.4698940000000  0.4625210000000 1.0
C      1  0.5457900000000  0.4933090000000  0.3962070000000 1.0
C      1  0.5308670000000  0.4945070000000  0.5962330000000 1.0
C      1  0.4464740000000  0.5020060000000  0.3944930000000 1.0
C      1  0.4397860000000  0.5019010000000  0.6067950000000 1.0
C      1  0.4877400000000  0.4555100000000  0.5416060000000 1.0
C      1  0.4874010000000  0.5555600000000  0.4496270000000 1.0
C      1  0.5180750000000  0.4435050000000  0.5436980000000 1.0
C      1  0.5167470000000  0.5419740000000  0.4553170000000 1.0
C      1  0.4062780000000  0.4694710000000  0.4567790000000 1.0
C      1  0.3937940000000  0.5345560000000  0.5351910000000 1.0
C      1  0.5943820000000  0.4548220000000  0.4646200000000 1.0
C      1  0.5978590000000  0.5429580000000  0.5362370000000 1.0
C      1  0.6101140000000  0.5141910000000  0.5461670000000 1.0
C      1  0.6068050000000  0.5018150000000  0.4491260000000 1.0
C      1  0.3806140000000  0.5089560000000  0.5328600000000 1.0
C      1  0.3959060000000  0.4963890000000  0.4502940000000 1.0
C      1  0.5506380000000  0.5508420000000  0.5032660000000 1.0
C      1  0.5536670000000  0.4374230000000  0.4811090000000 1.0
C      1  0.4532370000000  0.5600370000000  0.5083980000000 1.0
C      1  0.4626980000000  0.4328850000000  0.4962040000000 1.0
C      1  0.5598560000000  0.4845500000000  0.4888220000000 1.0
C      1  0.5640430000000  0.5210480000000  0.5042790000000 1.0
C      1  0.4310820000000  0.4857920000000  0.4869250000000 1.0
C      1  0.4356160000000  0.5173880000000  0.5107060000000 1.0
C      1  0.4653150000000  0.4736120000000  0.4356930000000 1.0
C      1  0.4747490000000  0.5172800000000  0.5702250000000 1.0
C      1  0.5230100000000  0.4831450000000  0.4400900000000 1.0
C      1  0.5293130000000  0.5201570000000  0.5657180000000 1.0
C      1  0.4801800000000  0.5011160000000  0.3900510000000 1.0
C      1  0.4735280000000  0.5005520000000  0.6107950000000 1.0
C      1  0.5139640000000  0.5031900000000  0.3928860000000 1.0
C      1  0.5037270000000  0.4851200000000  0.6116190000000 1.0
C      1  0.4531420000000  0.3941550000000  0.4963360000000 1.0
C      1  0.4637740000000  0.6033560000000  0.4971310000000 1.0
C      1  0.5369720000000  0.4051850000000  0.5064290000000 1.0
C      1  0.5406150000000  0.5891530000000  0.5074190000000 1.0
C      1  0.4853000000000  0.4773550000000  0.5159190000000 1.0
C      1  0.4829470000000  0.5324350000000  0.4741690000000 1.0
C      1  0.5105780000000  0.4583520000000  0.5112100000000 1.0
C      1  0.5118540000000  0.5436040000000  0.4881880000000 1.0
C      1  0.5671280000000  0.4136410000000  0.5198230000000 1.0
C      1  0.5641380000000  0.5845120000000  0.4864330000000 1.0
C      1  0.4358540000000  0.4131820000000  0.5181800000000 1.0
C      1  0.4341570000000  0.5895230000000  0.4869760000000 1.0
C      1  0.5885300000000  0.4803760000000  0.4515130000000 1.0
C      1  0.5779900000000  0.5204130000000  0.5497930000000 1.0
C      1  0.4339340000000  0.4682050000000  0.4414040000000 1.0
C      1  0.4170380000000  0.5315680000000  0.5518070000000 1.0
C      1  0.3954980000000  0.5161560000000  0.4703380000000 1.0
C      1  0.3999090000000  0.4835030000000  0.5410120000000 1.0
C      1  0.6024830000000  0.5230580000000  0.4655240000000 1.0
C      1  0.5951160000000  0.4853930000000  0.5360170000000 1.0
C      1  0.5910560000000  0.4879350000000  0.5691300000000 1.0
C      1  0.5873050000000  0.5159460000000  0.4131210000000 1.0
C      1  0.4100300000000  0.4898620000000  0.5714810000000 1.0
C      1  0.4080750000000  0.5083420000000  0.4256180000000 1.0
C      1  0.5160140000000  0.6104060000000  0.5113090000000 1.0
C      1  0.5097460000000  0.3903300000000  0.4930390000000 1.0
C      1  0.4920620000000  0.6160760000000  0.5087400000000 1.0
C      1  0.4855010000000  0.3862170000000  0.4913110000000 1.0
C      1  0.5302930000000  0.5598930000000  0.3989230000000 1.0
C      1  0.5185150000000  0.4362750000000  0.6035760000000 1.0
C      1  0.4774750000000  0.5689010000000  0.4133200000000 1.0
C      1  0.4642730000000  0.4268190000000  0.5891490000000 1.0
C      1  0.5085030000000  0.4123350000000  0.5914460000000 1.0
C      1  0.5244460000000  0.5775150000000  0.4205840000000 1.0
C      1  0.4835650000000  0.4105200000000  0.5775140000000 1.0
C      1  0.4973900000000  0.5860000000000  0.4248790000000 1.0
C      1  0.4452910000000  0.4549850000000  0.5079570000000 1.0
C      1  0.4458790000000  0.5443150000000  0.4830430000000 1.0
C      1  0.5571030000000  0.4497660000000  0.5067210000000 1.0
C      1  0.5531090000000  0.5499340000000  0.4693020000000 1.0
C      1  0.4866170000000  0.4262290000000  0.4173040000000 1.0
C      1  0.4858360000000  0.5681310000000  0.5848970000000 1.0
C      1  0.5171310000000  0.4243540000000  0.4252180000000 1.0
C      1  0.5173230000000  0.5728560000000  0.5766790000000 1.0
C      1  0.4754160000000  0.4408560000000  0.4687950000000 1.0
C      1  0.4722730000000  0.5556580000000  0.5360740000000 1.0
C      1  0.5272700000000  0.4405130000000  0.4713520000000 1.0
C      1  0.5300410000000  0.5581010000000  0.5298280000000 1.0
C      1  0.4867620000000  0.4216110000000  0.4509170000000 1.0
C      1  0.4862880000000  0.5767230000000  0.5526340000000 1.0
C      1  0.5166470000000  0.4196570000000  0.4553030000000 1.0
C      1  0.5158700000000  0.5802190000000  0.5464270000000 1.0
C      1  0.4724030000000  0.4478180000000  0.6093070000000 1.0
C      1  0.4912290000000  0.5393210000000  0.4198790000000 1.0
C      1  0.4992780000000  0.4548680000000  0.6126660000000 1.0
C      1  0.5156310000000  0.5325480000000  0.4055360000000 1.0
C      1  0.5491220000000  0.5256570000000  0.4065250000000 1.0
C      1  0.5463840000000  0.4734570000000  0.5843640000000 1.0
C      1  0.4651780000000  0.5243540000000  0.4092350000000 1.0
C      1  0.4549450000000  0.4730620000000  0.6052390000000 1.0
C      1  0.4851040000000  0.4048930000000  0.5481960000000 1.0
C      1  0.4907260000000  0.5889250000000  0.4552760000000 1.0
C      1  0.5134510000000  0.4120150000000  0.5379730000000 1.0
C      1  0.5137610000000  0.5942270000000  0.4740140000000 1.0
C      1  0.5553150000000  0.5888370000000  0.4606220000000 1.0
C      1  0.5611120000000  0.4225560000000  0.5469330000000 1.0
C      1  0.4413070000000  0.5866270000000  0.4570030000000 1.0
C      1  0.4497740000000  0.4217800000000  0.5401270000000 1.0
C      1  0.5363360000000  0.5668940000000  0.4463470000000 1.0
C      1  0.5466990000000  0.4455660000000  0.5520040000000 1.0
C      1  0.4467000000000  0.5586880000000  0.4521580000000 1.0
C      1  0.4638160000000  0.4418520000000  0.5522130000000 1.0
C      1  0.4157630000000  0.5686290000000  0.4930920000000 1.0
C      1  0.4161010000000  0.4367070000000  0.5077040000000 1.0
C      1  0.5848920000000  0.5647130000000  0.4879940000000 1.0
C      1  0.5917370000000  0.4317110000000  0.5108870000000 1.0
C      1  0.4408220000000  0.5614430000000  0.5402710000000 1.0
C      1  0.4452460000000  0.4151220000000  0.4729520000000 1.0
C      1  0.5604390000000  0.5711910000000  0.5288810000000 1.0
C      1  0.5726870000000  0.4367620000000  0.4590130000000 1.0
C      1  0.5118030000000  0.5731000000000  0.4976580000000 1.0
C      1  0.5109440000000  0.4272720000000  0.5080570000000 1.0
C      1  0.4823850000000  0.5774960000000  0.5064140000000 1.0
C      1  0.4809690000000  0.4176820000000  0.5155020000000 1.0
C      1  0.5598200000000  0.5089180000000  0.5314250000000 1.0
C      1  0.5622580000000  0.4891660000000  0.4605680000000 1.0
C      1  0.4385570000000  0.5184850000000  0.5386700000000 1.0
C      1  0.4380310000000  0.4932890000000  0.4591590000000 1.0
C      1  0.4244820000000  0.5270160000000  0.4426070000000 1.0
C      1  0.4346860000000  0.4738430000000  0.5581010000000 1.0
C      1  0.5684610000000  0.5326080000000  0.4336860000000 1.0
C      1  0.5656840000000  0.4710570000000  0.5587940000000 1.0
C      1  0.4779410000000  0.5361710000000  0.5931640000000 1.0
C      1  0.4769360000000  0.4569530000000  0.4118710000000 1.0
C      1  0.5307580000000  0.5282340000000  0.5958690000000 1.0
C      1  0.5278910000000  0.4711200000000  0.4120650000000 1.0
C      1  0.5897130000000  0.4853330000000  0.5046200000000 1.0
C      1  0.5953240000000  0.5169690000000  0.4944940000000 1.0
C      1  0.4057380000000  0.4885010000000  0.5094820000000 1.0
C      1  0.4051110000000  0.5191580000000  0.5000530000000 1.0
C      1  0.5394250000000  0.4900270000000  0.5334490000000 1.0
C      1  0.5471330000000  0.5139570000000  0.4470910000000 1.0
C      1  0.4542280000000  0.4969580000000  0.5531140000000 1.0
C      1  0.4524490000000  0.5159970000000  0.4460660000000 1.0
C      1  0.4882740000000  0.4918400000000  0.5530640000000 1.0
C      1  0.4811500000000  0.5034180000000  0.4408090000000 1.0
C      1  0.5203290000000  0.4947860000000  0.5528830000000 1.0
C      1  0.5137020000000  0.5136190000000  0.4407010000000 1.0
C      1  0.4594910000000  0.4824510000000  0.5016060000000 1.0
C      1  0.4590470000000  0.5141160000000  0.4888300000000 1.0
C      1  0.5366660000000  0.4726960000000  0.5098150000000 1.0
C      1  0.5443480000000  0.5198170000000  0.4789140000000 1.0
C      1  0.4225570000000  0.4599720000000  0.5318070000000 1.0
C      1  0.4144920000000  0.5435870000000  0.4698740000000 1.0
C      1  0.5783890000000  0.4567250000000  0.5303550000000 1.0
C      1  0.5846790000000  0.5479090000000  0.4583220000000 1.0
C      1  0.4540930000000  0.5514240000000  0.4264770000000 1.0
C      1  0.4489420000000  0.4551490000000  0.5780230000000 1.0
C      1  0.5559270000000  0.5521850000000  0.3860800000000 1.0
C      1  0.5430040000000  0.4479460000000  0.5964680000000 1.0
C      1  0.5288790000000  0.6157370000000  0.4738150000000 1.0
C      1  0.5369240000000  0.3920610000000  0.5380330000000 1.0
C      1  0.4653490000000  0.6015670000000  0.4651590000000 1.0
C      1  0.4671410000000  0.3885180000000  0.5264960000000 1.0
C      1  0.4535430000000  0.5593270000000  0.5876590000000 1.0
C      1  0.4558720000000  0.4346480000000  0.4271470000000 1.0
C      1  0.5393340000000  0.5557480000000  0.5807160000000 1.0
C      1  0.5376890000000  0.4421400000000  0.4177440000000 1.0
C      1  0.5617110000000  0.4378130000000  0.4324580000000 1.0
C      1  0.5584260000000  0.5592480000000  0.5606740000000 1.0
C      1  0.4434770000000  0.4238610000000  0.4479180000000 1.0
C      1  0.4356840000000  0.5633400000000  0.5671760000000 1.0
C      1  0.5176640000000  0.5196690000000  0.5083780000000 1.0
C      1  0.5214610000000  0.4984770000000  0.4837580000000 1.0
C      1  0.4939780000000  0.5057020000000  0.5228630000000 1.0
C      1  0.4925840000000  0.5005710000000  0.4719640000000 1.0
C      1  0.5018270000000  0.5193090000000  0.6079700000000 1.0
C      1  0.4969010000000  0.4740490000000  0.3986380000000 1.0
END
