TITL C-2782236-320-422 -0.00570276565768685 125000 -450.99829287464 0 0 80 (C1) n - 1
REM
REM in /home/nfs/bkarasulu/CARBON/AIRSS/Generating-Clusters/REBO/Higher-Symm/SD-CG/HFTN-CG
REM
REM
REM
REM
REM
REM ./C.cell (12c818d87b63d06a65506943cc24bca4)
REM
REM compiler GCC version 9.2.1 20190827 (Red Hat 9.2.1-1)
REM options -cpp -mtune=generic -march=x86-64 -g -O0 -fpre-include=/usr/include/finclude/math-vector-fortran.h
REM seed 1085712932 -138119804 2145618928 45010544 1806914329 -1352891710 1094236526 -2042111487 -1426409681 -799786523 -1336794628 -508426681 -1652907892 444515438 -561352271 828491816 644539314 -130325564 -1759693509 552965387 1036946012 1920471988 533005883 -124301761 540474711 -997628728 145767398 164965884 -1181878329 -327839289 725874032 -2140348677 1440820640
REM
CELL 1.54180   50.00000   50.00000   50.00000   90.00000   90.00000   90.00000
LATT -1
SFAC C  
C      1  0.5635500000000  0.4600450000000  0.4702890000000 1.0
C      1  0.5644830000000  0.4681600000000  0.5224940000000 1.0
C      1  0.5831150000000  0.5327320000000  0.4753690000000 1.0
C      1  0.5866250000000  0.5265490000000  0.5227950000000 1.0
C      1  0.5024090000000  0.5065740000000  0.4406200000000 1.0
C      1  0.5036150000000  0.5078250000000  0.5691540000000 1.0
C      1  0.5118270000000  0.5493970000000  0.4681940000000 1.0
C      1  0.5121310000000  0.5483980000000  0.5339370000000 1.0
C      1  0.4388470000000  0.5383790000000  0.4680260000000 1.0
C      1  0.4524150000000  0.5360060000000  0.5219950000000 1.0
C      1  0.5399170000000  0.5340350000000  0.5375500000000 1.0
C      1  0.5387490000000  0.5362630000000  0.4572590000000 1.0
C      1  0.5263650000000  0.4630590000000  0.4377310000000 1.0
C      1  0.5300740000000  0.4689100000000  0.5599650000000 1.0
C      1  0.5329710000000  0.5719040000000  0.5261370000000 1.0
C      1  0.5357240000000  0.5696770000000  0.4787400000000 1.0
C      1  0.5658010000000  0.5438210000000  0.4554810000000 1.0
C      1  0.5718360000000  0.5317790000000  0.5465720000000 1.0
C      1  0.5492910000000  0.4547790000000  0.5410810000000 1.0
C      1  0.5450690000000  0.4472350000000  0.4549670000000 1.0
C      1  0.4991490000000  0.3959010000000  0.5099280000000 1.0
C      1  0.4944630000000  0.3947440000000  0.4848310000000 1.0
C      1  0.4677370000000  0.4980440000000  0.5545270000000 1.0
C      1  0.4630670000000  0.5043970000000  0.4344770000000 1.0
C      1  0.5328830000000  0.4939750000000  0.4358440000000 1.0
C      1  0.5325300000000  0.4977790000000  0.5729210000000 1.0
C      1  0.4020000000000  0.4930190000000  0.5338030000000 1.0
C      1  0.4371970000000  0.4735370000000  0.4741370000000 1.0
C      1  0.4921960000000  0.4721020000000  0.5267290000000 1.0
C      1  0.4767080000000  0.4598490000000  0.4583830000000 1.0
C      1  0.4331380000000  0.4184240000000  0.4850060000000 1.0
C      1  0.3842790000000  0.4466550000000  0.5273380000000 1.0
C      1  0.5334340000000  0.4240250000000  0.4647640000000 1.0
C      1  0.5422740000000  0.4283290000000  0.5366600000000 1.0
C      1  0.4875320000000  0.5466400000000  0.4494360000000 1.0
C      1  0.4898340000000  0.5411000000000  0.5518910000000 1.0
C      1  0.4367400000000  0.4978790000000  0.4767540000000 1.0
C      1  0.4252440000000  0.5073240000000  0.5251750000000 1.0
C      1  0.4950340000000  0.4425430000000  0.5352680000000 1.0
C      1  0.4871270000000  0.4310970000000  0.4441510000000 1.0
C      1  0.5881500000000  0.5046360000000  0.4759890000000 1.0
C      1  0.5901210000000  0.4990220000000  0.5153960000000 1.0
C      1  0.5018750000000  0.4793210000000  0.4551870000000 1.0
C      1  0.5073840000000  0.4895450000000  0.5431790000000 1.0
C      1  0.4388500000000  0.5723460000000  0.4713640000000 1.0
C      1  0.4532180000000  0.5634020000000  0.5198900000000 1.0
C      1  0.4961540000000  0.4549140000000  0.4243840000000 1.0
C      1  0.4989900000000  0.4558490000000  0.5625390000000 1.0
C      1  0.5357250000000  0.5080370000000  0.4624180000000 1.0
C      1  0.5508810000000  0.5138890000000  0.5611170000000 1.0
C      1  0.5030080000000  0.4130590000000  0.4610220000000 1.0
C      1  0.5144110000000  0.4218980000000  0.5242200000000 1.0
C      1  0.4879550000000  0.5645980000000  0.4279250000000 1.0
C      1  0.4908110000000  0.5485880000000  0.5785550000000 1.0
C      1  0.5174450000000  0.5946950000000  0.5203400000000 1.0
C      1  0.5207710000000  0.5939340000000  0.4808080000000 1.0
C      1  0.4405440000000  0.4442730000000  0.4894570000000 1.0
C      1  0.4035720000000  0.4654070000000  0.5248940000000 1.0
C      1  0.4685670000000  0.5238920000000  0.5422230000000 1.0
C      1  0.4645180000000  0.5285120000000  0.4497730000000 1.0
C      1  0.4783010000000  0.4757760000000  0.5668770000000 1.0
C      1  0.4715810000000  0.4778110000000  0.4297460000000 1.0
C      1  0.4452780000000  0.4868430000000  0.5142380000000 1.0
C      1  0.5250690000000  0.5056850000000  0.4897810000000 1.0
C      1  0.4638510000000  0.5791790000000  0.4935570000000 1.0
C      1  0.4357370000000  0.5219900000000  0.4977260000000 1.0
C      1  0.5783590000000  0.5434420000000  0.5011930000000 1.0
C      1  0.4644830000000  0.5466640000000  0.4854060000000 1.0
C      1  0.4705460000000  0.4554740000000  0.4867190000000 1.0
C      1  0.4955840000000  0.5055820000000  0.4935940000000 1.0
C      1  0.5760240000000  0.4781640000000  0.4924680000000 1.0
C      1  0.5387580000000  0.5240510000000  0.5068510000000 1.0
C      1  0.4863810000000  0.5320460000000  0.4936080000000 1.0
C      1  0.5184580000000  0.4258630000000  0.4920890000000 1.0
C      1  0.4744910000000  0.4821570000000  0.5036810000000 1.0
C      1  0.4895470000000  0.4358480000000  0.4962490000000 1.0
C      1  0.4927340000000  0.5878920000000  0.4981650000000 1.0
C      1  0.5494560000000  0.5563740000000  0.5037250000000 1.0
C      1  0.5057980000000  0.5561930000000  0.5014420000000 1.0
C      1  0.4288190000000  0.4627980000000  0.5117130000000 1.0
END
