TITL C-2782229-3092-1373 0.124510978979777 125000 -512.499536912897 0 0 89 (C1) n - 1
REM
REM in /home/nfs/bkarasulu/CARBON/AIRSS/Generating-Clusters/REBO/Higher-Symm/SD-CG/HFTN-CG
REM
REM
REM
REM
REM
REM ./C.cell (12c818d87b63d06a65506943cc24bca4)
REM
REM compiler GCC version 9.2.1 20190827 (Red Hat 9.2.1-1)
REM options -cpp -mtune=generic -march=x86-64 -g -O0 -fpre-include=/usr/include/finclude/math-vector-fortran.h
REM seed -1293029840 2055064781 1176411450 -1079815242 -899365646 -1483954133 1615931480 -2074776147 335354707 -1992361042 -1098591890 302458598 748133235 1162191147 262533862 938067325 302653628 -1246549412 1295729248 -1006068837 -1278909151 -112307335 1693936791 -712824371 1021852419 1152573534 2145945748 1666869307 -1623527774 1126114919 -1717496068 -387637650 -1504138443
REM
CELL 1.54180   50.00000   50.00000   50.00000   90.00000   90.00000   90.00000
LATT -1
SFAC C  
C      1  0.4571340000000  0.5560370000000  0.5216030000000 1.0
C      1  0.5392630000000  0.5279590000000  0.5748960000000 1.0
C      1  0.4382970000000  0.4606100000000  0.4291880000000 1.0
C      1  0.5567590000000  0.5484590000000  0.4393240000000 1.0
C      1  0.5380460000000  0.5628570000000  0.4239230000000 1.0
C      1  0.4898130000000  0.4407030000000  0.4629650000000 1.0
C      1  0.4771150000000  0.4753720000000  0.5187310000000 1.0
C      1  0.4863410000000  0.4794350000000  0.4889740000000 1.0
C      1  0.4659070000000  0.5034440000000  0.5282490000000 1.0
C      1  0.5073920000000  0.4351000000000  0.5361370000000 1.0
C      1  0.5294430000000  0.4113480000000  0.4602570000000 1.0
C      1  0.4856570000000  0.5371100000000  0.5200210000000 1.0
C      1  0.4215150000000  0.4615540000000  0.5201910000000 1.0
C      1  0.5181380000000  0.4948020000000  0.5073030000000 1.0
C      1  0.5529310000000  0.4444240000000  0.5561070000000 1.0
C      1  0.4683700000000  0.5351990000000  0.4384530000000 1.0
C      1  0.4612140000000  0.5213930000000  0.5022020000000 1.0
C      1  0.5731510000000  0.5560660000000  0.4911370000000 1.0
C      1  0.4988910000000  0.5078310000000  0.5271950000000 1.0
C      1  0.5501300000000  0.4381850000000  0.5094350000000 1.0
C      1  0.5173030000000  0.5084290000000  0.4466190000000 1.0
C      1  0.5473750000000  0.4722890000000  0.5566640000000 1.0
C      1  0.5547150000000  0.4887140000000  0.5301050000000 1.0
C      1  0.5268130000000  0.4628320000000  0.5152310000000 1.0
C      1  0.5673440000000  0.4939080000000  0.4428470000000 1.0
C      1  0.5812960000000  0.5280220000000  0.4804140000000 1.0
C      1  0.4544970000000  0.5051660000000  0.4371110000000 1.0
C      1  0.4191090000000  0.4998620000000  0.4880260000000 1.0
C      1  0.5870280000000  0.5021740000000  0.4918840000000 1.0
C      1  0.4553860000000  0.4369080000000  0.4955280000000 1.0
C      1  0.5286560000000  0.4576430000000  0.4433990000000 1.0
C      1  0.5294340000000  0.5302870000000  0.4928660000000 1.0
C      1  0.4550960000000  0.5584230000000  0.4533070000000 1.0
C      1  0.4313690000000  0.5245930000000  0.4944390000000 1.0
C      1  0.5066210000000  0.4552460000000  0.5803250000000 1.0
C      1  0.5383980000000  0.4308730000000  0.5370380000000 1.0
C      1  0.4179460000000  0.4955470000000  0.5408060000000 1.0
C      1  0.5529480000000  0.5383910000000  0.5494950000000 1.0
C      1  0.5069260000000  0.4799360000000  0.4352900000000 1.0
C      1  0.5316580000000  0.5596220000000  0.5337100000000 1.0
C      1  0.5229370000000  0.4763240000000  0.5698300000000 1.0
C      1  0.4980550000000  0.5348630000000  0.4431010000000 1.0
C      1  0.4901120000000  0.4416310000000  0.5624140000000 1.0
C      1  0.4517950000000  0.4775720000000  0.4481720000000 1.0
C      1  0.4804960000000  0.4290450000000  0.4874030000000 1.0
C      1  0.4393880000000  0.5312440000000  0.5670300000000 1.0
C      1  0.5117020000000  0.5571520000000  0.4269480000000 1.0
C      1  0.5561890000000  0.5522200000000  0.5127810000000 1.0
C      1  0.4813190000000  0.4660440000000  0.4517010000000 1.0
C      1  0.4530770000000  0.5236630000000  0.4112310000000 1.0
C      1  0.5816750000000  0.5039540000000  0.5204790000000 1.0
C      1  0.5062510000000  0.4977150000000  0.5559750000000 1.0
C      1  0.4690220000000  0.5785470000000  0.4990040000000 1.0
C      1  0.4621040000000  0.4533320000000  0.5570390000000 1.0
C      1  0.5519470000000  0.5276760000000  0.4728490000000 1.0
C      1  0.5031100000000  0.5648810000000  0.5464780000000 1.0
C      1  0.4332580000000  0.4555200000000  0.4904400000000 1.0
C      1  0.5140000000000  0.4937610000000  0.4734520000000 1.0
C      1  0.4218330000000  0.5283880000000  0.5427610000000 1.0
C      1  0.5818650000000  0.5275790000000  0.5359360000000 1.0
C      1  0.5648620000000  0.4688210000000  0.5070790000000 1.0
C      1  0.4669720000000  0.4852120000000  0.5977780000000 1.0
C      1  0.5467290000000  0.4558970000000  0.4813620000000 1.0
C      1  0.5453480000000  0.5204170000000  0.5213980000000 1.0
C      1  0.5018520000000  0.5314540000000  0.4753020000000 1.0
C      1  0.4825670000000  0.5755560000000  0.5304580000000 1.0
C      1  0.4786890000000  0.5102000000000  0.4804830000000 1.0
C      1  0.4064430000000  0.4885140000000  0.5113860000000 1.0
C      1  0.5156990000000  0.4629320000000  0.4836730000000 1.0
C      1  0.5165880000000  0.4345080000000  0.4545760000000 1.0
C      1  0.5474170000000  0.5169450000000  0.4439600000000 1.0
C      1  0.4312750000000  0.5413260000000  0.5194260000000 1.0
C      1  0.5575020000000  0.4646020000000  0.4534350000000 1.0
C      1  0.5701220000000  0.5612810000000  0.4612350000000 1.0
C      1  0.4552540000000  0.5742030000000  0.4721670000000 1.0
C      1  0.4599200000000  0.4813310000000  0.5727390000000 1.0
C      1  0.5805450000000  0.4828360000000  0.4712540000000 1.0
C      1  0.4971530000000  0.4224470000000  0.5094220000000 1.0
C      1  0.5019550000000  0.4811940000000  0.4074100000000 1.0
C      1  0.5108880000000  0.5519750000000  0.5094370000000 1.0
C      1  0.4458550000000  0.5273470000000  0.3856400000000 1.0
C      1  0.4339480000000  0.4786960000000  0.4740630000000 1.0
C      1  0.5121850000000  0.5229850000000  0.5721310000000 1.0
C      1  0.5011070000000  0.5751060000000  0.4951670000000 1.0
C      1  0.5022390000000  0.4692520000000  0.5364380000000 1.0
C      1  0.4966360000000  0.5461510000000  0.5669880000000 1.0
C      1  0.4307370000000  0.4659310000000  0.5519840000000 1.0
C      1  0.4546600000000  0.4533580000000  0.5239590000000 1.0
C      1  0.4492920000000  0.5016570000000  0.5532340000000 1.0
END
