TITL C-2782233-7966-345 -0.170685090233777 125000 -860.758078395645 0 0 145 (C1) n - 1
REM
REM in /home/nfs/bkarasulu/CARBON/AIRSS/Generating-Clusters/REBO/Higher-Symm/SD-CG/HFTN-CG
REM
REM
REM
REM
REM
REM ./C.cell (12c818d87b63d06a65506943cc24bca4)
REM
REM compiler GCC version 9.2.1 20190827 (Red Hat 9.2.1-1)
REM options -cpp -mtune=generic -march=x86-64 -g -O0 -fpre-include=/usr/include/finclude/math-vector-fortran.h
REM seed 1655942625 -68836612 1992431331 894812807 2043314261 -335858693 1988862562 678933286 1013510926 -1775080920 -1914681743 1122526725 -1815078525 -550715219 -372694001 -28052248 1910055979 836297456 489315310 -975139669 851437438 -248381717 1509234588 1797862500 -1147493433 -1080446995 686644562 -1709589536 1688229915 -1237569183 -439806282 487653573 -465016424
REM
CELL 1.54180   50.00000   50.00000   50.00000   90.00000   90.00000   90.00000
LATT -1
SFAC C  
C      1  0.4717730000000  0.3999000000000  0.4969010000000 1.0
C      1  0.4024150000000  0.5328390000000  0.4708800000000 1.0
C      1  0.4744700000000  0.5642800000000  0.5549780000000 1.0
C      1  0.5077180000000  0.4353620000000  0.4895430000000 1.0
C      1  0.5412050000000  0.5918640000000  0.5323650000000 1.0
C      1  0.4938510000000  0.4014740000000  0.5641910000000 1.0
C      1  0.5318570000000  0.6062310000000  0.4866340000000 1.0
C      1  0.4817490000000  0.4965020000000  0.4208950000000 1.0
C      1  0.4737910000000  0.4577080000000  0.4165070000000 1.0
C      1  0.4587170000000  0.4069340000000  0.4738100000000 1.0
C      1  0.4507070000000  0.4237340000000  0.5384570000000 1.0
C      1  0.4161870000000  0.5121380000000  0.5223330000000 1.0
C      1  0.4275000000000  0.4471590000000  0.4884850000000 1.0
C      1  0.4801060000000  0.5300120000000  0.4557940000000 1.0
C      1  0.4482100000000  0.5630640000000  0.4684090000000 1.0
C      1  0.4000120000000  0.4836800000000  0.4809780000000 1.0
C      1  0.4055210000000  0.4623030000000  0.4997130000000 1.0
C      1  0.5492610000000  0.5041830000000  0.4856020000000 1.0
C      1  0.5227870000000  0.4699630000000  0.5608920000000 1.0
C      1  0.5091210000000  0.4914830000000  0.5146840000000 1.0
C      1  0.5516640000000  0.4790100000000  0.5732450000000 1.0
C      1  0.5893760000000  0.5190370000000  0.5219510000000 1.0
C      1  0.5583870000000  0.4953420000000  0.5373330000000 1.0
C      1  0.4579970000000  0.4551550000000  0.4455060000000 1.0
C      1  0.5167550000000  0.5682750000000  0.4502760000000 1.0
C      1  0.5219990000000  0.4759020000000  0.3965960000000 1.0
C      1  0.4865790000000  0.5041480000000  0.4992090000000 1.0
C      1  0.5376620000000  0.5097920000000  0.5179550000000 1.0
C      1  0.5543410000000  0.4889350000000  0.4556800000000 1.0
C      1  0.4988880000000  0.4745830000000  0.5377330000000 1.0
C      1  0.4245610000000  0.4456410000000  0.5423390000000 1.0
C      1  0.5255250000000  0.4009490000000  0.5260920000000 1.0
C      1  0.4838310000000  0.4519210000000  0.4758190000000 1.0
C      1  0.5648710000000  0.4414110000000  0.5506270000000 1.0
C      1  0.5104270000000  0.5945900000000  0.5393280000000 1.0
C      1  0.4397040000000  0.5733180000000  0.4997700000000 1.0
C      1  0.4843920000000  0.6017450000000  0.4672130000000 1.0
C      1  0.5113670000000  0.5688460000000  0.5190130000000 1.0
C      1  0.5116620000000  0.4288220000000  0.5203760000000 1.0
C      1  0.4503200000000  0.4807970000000  0.5860330000000 1.0
C      1  0.4218120000000  0.4993280000000  0.4371500000000 1.0
C      1  0.5212680000000  0.4395440000000  0.5867180000000 1.0
C      1  0.4388070000000  0.5083240000000  0.4889240000000 1.0
C      1  0.5014410000000  0.4235540000000  0.4431270000000 1.0
C      1  0.4901800000000  0.6020050000000  0.5132250000000 1.0
C      1  0.5530110000000  0.5084460000000  0.5845640000000 1.0
C      1  0.5644040000000  0.4380860000000  0.5188720000000 1.0
C      1  0.4450320000000  0.5106560000000  0.4161730000000 1.0
C      1  0.4925790000000  0.5484640000000  0.4098400000000 1.0
C      1  0.4388370000000  0.5435060000000  0.4197880000000 1.0
C      1  0.4594260000000  0.5938560000000  0.5161720000000 1.0
C      1  0.4526170000000  0.4632500000000  0.5442420000000 1.0
C      1  0.5334070000000  0.4764760000000  0.4967520000000 1.0
C      1  0.4559410000000  0.5870350000000  0.5460280000000 1.0
C      1  0.5390230000000  0.4337200000000  0.5651970000000 1.0
C      1  0.5571060000000  0.5167140000000  0.4126570000000 1.0
C      1  0.5198520000000  0.4685550000000  0.5949090000000 1.0
C      1  0.5120640000000  0.5208110000000  0.4121100000000 1.0
C      1  0.4857570000000  0.4833310000000  0.5678090000000 1.0
C      1  0.3988370000000  0.4959240000000  0.5650820000000 1.0
C      1  0.4389890000000  0.5993560000000  0.5619820000000 1.0
C      1  0.5290070000000  0.5415510000000  0.5207190000000 1.0
C      1  0.4633190000000  0.4879240000000  0.4460920000000 1.0
C      1  0.4684460000000  0.5365490000000  0.5708040000000 1.0
C      1  0.5481940000000  0.4131350000000  0.5036760000000 1.0
C      1  0.5496160000000  0.4473500000000  0.4300160000000 1.0
C      1  0.5266240000000  0.5109070000000  0.4378090000000 1.0
C      1  0.5734780000000  0.4663560000000  0.5603330000000 1.0
C      1  0.5005820000000  0.4016610000000  0.4933410000000 1.0
C      1  0.4428860000000  0.4446210000000  0.5711220000000 1.0
C      1  0.4933410000000  0.4300950000000  0.5824150000000 1.0
C      1  0.4584070000000  0.4922020000000  0.5054390000000 1.0
C      1  0.4794430000000  0.4190960000000  0.5222110000000 1.0
C      1  0.5207680000000  0.4983850000000  0.5888290000000 1.0
C      1  0.4055750000000  0.4914370000000  0.5390960000000 1.0
C      1  0.4488390000000  0.4416900000000  0.5108180000000 1.0
C      1  0.4633930000000  0.4637020000000  0.4944930000000 1.0
C      1  0.5276970000000  0.4470300000000  0.5372110000000 1.0
C      1  0.5494830000000  0.4321420000000  0.4541180000000 1.0
C      1  0.5904770000000  0.4887940000000  0.5473330000000 1.0
C      1  0.4200370000000  0.5273370000000  0.4506610000000 1.0
C      1  0.5024160000000  0.5481600000000  0.4740170000000 1.0
C      1  0.4918350000000  0.5855570000000  0.4456630000000 1.0
C      1  0.5482350000000  0.5581280000000  0.4973900000000 1.0
C      1  0.4460240000000  0.5251350000000  0.5243840000000 1.0
C      1  0.4496490000000  0.5155910000000  0.4605080000000 1.0
C      1  0.5665220000000  0.5644010000000  0.4719400000000 1.0
C      1  0.5713140000000  0.5031860000000  0.4342460000000 1.0
C      1  0.5547510000000  0.5728200000000  0.5494200000000 1.0
C      1  0.6061300000000  0.4900720000000  0.5193610000000 1.0
C      1  0.4856670000000  0.5006570000000  0.4687900000000 1.0
C      1  0.5472960000000  0.5281680000000  0.4537900000000 1.0
C      1  0.5016610000000  0.5262510000000  0.5343480000000 1.0
C      1  0.5244240000000  0.5672800000000  0.5783790000000 1.0
C      1  0.4521260000000  0.5432990000000  0.4963580000000 1.0
C      1  0.5324320000000  0.5340300000000  0.4815920000000 1.0
C      1  0.4979790000000  0.4742410000000  0.4597900000000 1.0
C      1  0.4757400000000  0.5699160000000  0.4282850000000 1.0
C      1  0.4720260000000  0.5128060000000  0.5757330000000 1.0
C      1  0.5477240000000  0.4675110000000  0.5226030000000 1.0
C      1  0.4649550000000  0.4190760000000  0.5676150000000 1.0
C      1  0.5790070000000  0.5192020000000  0.4631750000000 1.0
C      1  0.5766170000000  0.5195090000000  0.5535680000000 1.0
C      1  0.4060000000000  0.4647290000000  0.5280470000000 1.0
C      1  0.4061910000000  0.5114810000000  0.4928180000000 1.0
C      1  0.4143000000000  0.4783750000000  0.4553220000000 1.0
C      1  0.5263700000000  0.4780460000000  0.4461370000000 1.0
C      1  0.5892390000000  0.5483120000000  0.4687260000000 1.0
C      1  0.4731870000000  0.4559650000000  0.5817420000000 1.0
C      1  0.5218720000000  0.5581890000000  0.4185790000000 1.0
C      1  0.4583780000000  0.4836910000000  0.4001030000000 1.0
C      1  0.5757440000000  0.5797590000000  0.5651540000000 1.0
C      1  0.5030280000000  0.5754580000000  0.5630280000000 1.0
C      1  0.5039150000000  0.6113390000000  0.4859450000000 1.0
C      1  0.4744840000000  0.5420510000000  0.5316880000000 1.0
C      1  0.5340480000000  0.5015580000000  0.3998290000000 1.0
C      1  0.5076430000000  0.5077760000000  0.5587250000000 1.0
C      1  0.5124960000000  0.3903870000000  0.5479520000000 1.0
C      1  0.5495600000000  0.5580680000000  0.5861990000000 1.0
C      1  0.5677940000000  0.5377020000000  0.5804440000000 1.0
C      1  0.4919960000000  0.4779730000000  0.3953890000000 1.0
C      1  0.5270450000000  0.4014990000000  0.4814800000000 1.0
C      1  0.4486900000000  0.4937610000000  0.5363680000000 1.0
C      1  0.4513580000000  0.5599390000000  0.4381170000000 1.0
C      1  0.5948690000000  0.4751940000000  0.4954030000000 1.0
C      1  0.4386090000000  0.4927210000000  0.5672310000000 1.0
C      1  0.5272620000000  0.4533910000000  0.4132520000000 1.0
C      1  0.4973180000000  0.5731600000000  0.4949170000000 1.0
C      1  0.5449040000000  0.5883760000000  0.5045850000000 1.0
C      1  0.5260890000000  0.4153150000000  0.4563440000000 1.0
C      1  0.5483470000000  0.5608600000000  0.4473380000000 1.0
C      1  0.5230020000000  0.4594480000000  0.4750350000000 1.0
C      1  0.4315990000000  0.4557070000000  0.4611750000000 1.0
C      1  0.4745860000000  0.5267420000000  0.4250590000000 1.0
C      1  0.5425250000000  0.5471650000000  0.5484250000000 1.0
C      1  0.4838040000000  0.5346760000000  0.4997660000000 1.0
C      1  0.5024180000000  0.4412940000000  0.4211360000000 1.0
C      1  0.5628330000000  0.4324120000000  0.4795360000000 1.0
C      1  0.5501170000000  0.5444320000000  0.4174380000000 1.0
C      1  0.5815850000000  0.4514880000000  0.4933050000000 1.0
C      1  0.4774870000000  0.4520700000000  0.5296670000000 1.0
C      1  0.5814970000000  0.5052230000000  0.4921270000000 1.0
C      1  0.4733080000000  0.4283560000000  0.4568940000000 1.0
C      1  0.5330330000000  0.5262140000000  0.5652790000000 1.0
C      1  0.4596790000000  0.5927630000000  0.4813380000000 1.0
END
