TITL C-2782233-7966-582 -0.00231946590539938 125000 -725.026861144711 0 0 119 (C1) n - 1
REM
REM in /home/nfs/bkarasulu/CARBON/AIRSS/Generating-Clusters/REBO/Higher-Symm/SD-CG/HFTN-CG
REM
REM
REM
REM
REM
REM ./C.cell (12c818d87b63d06a65506943cc24bca4)
REM
REM compiler GCC version 9.2.1 20190827 (Red Hat 9.2.1-1)
REM options -cpp -mtune=generic -march=x86-64 -g -O0 -fpre-include=/usr/include/finclude/math-vector-fortran.h
REM seed -1678068622 -1032141891 220526045 195947014 2055193480 469221387 1657512985 -2079268404 -1478247742 -2050142322 -1640351779 1264885328 -1241054924 952254559 1297729419 260439038 386546509 1346723764 1929751210 -560772076 566641102 -1971673759 -1549013515 -1243470106 -376960301 -2027804058 -1410555023 -988655771 318936784 -441471864 -997898695 -1857134507 610473969
REM
CELL 1.54180   50.00000   50.00000   50.00000   90.00000   90.00000   90.00000
LATT -1
SFAC C  
C      1  0.5067920000000  0.4652870000000  0.5918290000000 1.0
C      1  0.5066040000000  0.5491490000000  0.5844060000000 1.0
C      1  0.5072890000000  0.5973240000000  0.5136640000000 1.0
C      1  0.5068830000000  0.5710300000000  0.4324530000000 1.0
C      1  0.5067010000000  0.4914140000000  0.4025340000000 1.0
C      1  0.5062300000000  0.4186650000000  0.4465240000000 1.0
C      1  0.5091140000000  0.4050800000000  0.5295550000000 1.0
C      1  0.4606960000000  0.4741500000000  0.4167890000000 1.0
C      1  0.4605460000000  0.4205740000000  0.4698640000000 1.0
C      1  0.4628330000000  0.4219940000000  0.5442210000000 1.0
C      1  0.4595670000000  0.4862330000000  0.5848100000000 1.0
C      1  0.4609780000000  0.5604420000000  0.5647610000000 1.0
C      1  0.4610820000000  0.5882270000000  0.4934510000000 1.0
C      1  0.4606320000000  0.5493590000000  0.4277970000000 1.0
C      1  0.5254770000000  0.5110910000000  0.4192740000000 1.0
C      1  0.5256380000000  0.4436470000000  0.4408560000000 1.0
C      1  0.5264880000000  0.4185920000000  0.5068450000000 1.0
C      1  0.5260320000000  0.4541240000000  0.5680990000000 1.0
C      1  0.5245330000000  0.5240820000000  0.5769050000000 1.0
C      1  0.5253570000000  0.5759810000000  0.5289990000000 1.0
C      1  0.5253660000000  0.5699070000000  0.4584770000000 1.0
C      1  0.5685470000000  0.4483660000000  0.5370430000000 1.0
C      1  0.5676670000000  0.4966470000000  0.5631590000000 1.0
C      1  0.5672810000000  0.5470830000000  0.5419710000000 1.0
C      1  0.5676240000000  0.5622070000000  0.4890320000000 1.0
C      1  0.5677640000000  0.5302060000000  0.4442670000000 1.0
C      1  0.5680190000000  0.4751430000000  0.4414450000000 1.0
C      1  0.5684020000000  0.4387190000000  0.4826840000000 1.0
C      1  0.4743340000000  0.5307420000000  0.4806680000000 1.0
C      1  0.4746940000000  0.5040090000000  0.4633000000000 1.0
C      1  0.4744330000000  0.4735990000000  0.4726900000000 1.0
C      1  0.4738180000000  0.4629850000000  0.5023790000000 1.0
C      1  0.4730300000000  0.4811660000000  0.5288370000000 1.0
C      1  0.4723050000000  0.5121870000000  0.5345370000000 1.0
C      1  0.4733870000000  0.5347670000000  0.5122090000000 1.0
C      1  0.5394590000000  0.4803220000000  0.5596490000000 1.0
C      1  0.5387070000000  0.5343060000000  0.5520910000000 1.0
C      1  0.5392000000000  0.5623920000000  0.5055720000000 1.0
C      1  0.5393640000000  0.5432630000000  0.4544360000000 1.0
C      1  0.5397390000000  0.4914010000000  0.4374850000000 1.0
C      1  0.5400340000000  0.4456830000000  0.4675490000000 1.0
C      1  0.5402930000000  0.4410700000000  0.5220330000000 1.0
C      1  0.5276480000000  0.4680370000000  0.5124060000000 1.0
C      1  0.5263720000000  0.4897070000000  0.5328090000000 1.0
C      1  0.5264000000000  0.5189640000000  0.5278540000000 1.0
C      1  0.5266880000000  0.5338230000000  0.5022480000000 1.0
C      1  0.5271290000000  0.5228520000000  0.4748030000000 1.0
C      1  0.5275280000000  0.4945500000000  0.4662220000000 1.0
C      1  0.5278180000000  0.4701620000000  0.4829180000000 1.0
C      1  0.4228110000000  0.4923790000000  0.4647700000000 1.0
C      1  0.4214880000000  0.4704550000000  0.4856560000000 1.0
C      1  0.4170960000000  0.4773560000000  0.5116710000000 1.0
C      1  0.4177690000000  0.4915720000000  0.5348710000000 1.0
C      1  0.4180710000000  0.5247300000000  0.5327490000000 1.0
C      1  0.4192460000000  0.5397980000000  0.5029370000000 1.0
C      1  0.4204800000000  0.5253210000000  0.4725420000000 1.0
C      1  0.5766340000000  0.5019340000000  0.4606960000000 1.0
C      1  0.5768770000000  0.4705270000000  0.4738580000000 1.0
C      1  0.5770420000000  0.4612090000000  0.5066220000000 1.0
C      1  0.5771110000000  0.4809130000000  0.5344170000000 1.0
C      1  0.5768100000000  0.5149040000000  0.5362110000000 1.0
C      1  0.5765080000000  0.5375040000000  0.5107490000000 1.0
C      1  0.5765210000000  0.5317390000000  0.4771780000000 1.0
C      1  0.4989290000000  0.4860090000000  0.5486660000000 1.0
C      1  0.4998900000000  0.5308000000000  0.5417160000000 1.0
C      1  0.5003640000000  0.5521240000000  0.5020540000000 1.0
C      1  0.5007760000000  0.5341050000000  0.4604710000000 1.0
C      1  0.5012750000000  0.4904010000000  0.4483700000000 1.0
C      1  0.5015490000000  0.4532570000000  0.4753790000000 1.0
C      1  0.5004330000000  0.4531940000000  0.5210510000000 1.0
C      1  0.4473110000000  0.5485470000000  0.5205640000000 1.0
C      1  0.4477370000000  0.5456380000000  0.4760000000000 1.0
C      1  0.4478970000000  0.5091130000000  0.4489050000000 1.0
C      1  0.4492410000000  0.4631860000000  0.4578480000000 1.0
C      1  0.4497560000000  0.4433160000000  0.5034550000000 1.0
C      1  0.4480650000000  0.4665010000000  0.5417990000000 1.0
C      1  0.4459880000000  0.5145310000000  0.5502590000000 1.0
C      1  0.4748940000000  0.4382120000000  0.5651970000000 1.0
C      1  0.4717430000000  0.5122390000000  0.5852360000000 1.0
C      1  0.4735650000000  0.5762440000000  0.5445010000000 1.0
C      1  0.4734890000000  0.5821180000000  0.4683830000000 1.0
C      1  0.4731540000000  0.5261810000000  0.4166620000000 1.0
C      1  0.4732230000000  0.4513520000000  0.4281650000000 1.0
C      1  0.4739780000000  0.4131070000000  0.4939420000000 1.0
C      1  0.5226500000000  0.4687270000000  0.3984390000000 1.0
C      1  0.5224370000000  0.4011580000000  0.4613180000000 1.0
C      1  0.5249650000000  0.4066780000000  0.5525640000000 1.0
C      1  0.5227390000000  0.4841330000000  0.6050570000000 1.0
C      1  0.5226570000000  0.5713170000000  0.5784880000000 1.0
C      1  0.5232310000000  0.6060820000000  0.4924060000000 1.0
C      1  0.5228410000000  0.5600090000000  0.4122390000000 1.0
C      1  0.4806610000000  0.4082720000000  0.5244500000000 1.0
C      1  0.4780720000000  0.4625620000000  0.5855120000000 1.0
C      1  0.4781390000000  0.5433500000000  0.5819090000000 1.0
C      1  0.4787370000000  0.5919650000000  0.5172040000000 1.0
C      1  0.4783690000000  0.5704290000000  0.4391660000000 1.0
C      1  0.4782300000000  0.4962230000000  0.4074680000000 1.0
C      1  0.4777860000000  0.4260740000000  0.4463330000000 1.0
C      1  0.5426660000000  0.4615870000000  0.4229750000000 1.0
C      1  0.5431400000000  0.4157450000000  0.4816470000000 1.0
C      1  0.5432530000000  0.4332510000000  0.5543240000000 1.0
C      1  0.5421920000000  0.5008960000000  0.5855500000000 1.0
C      1  0.5421020000000  0.5674070000000  0.5528880000000 1.0
C      1  0.5423850000000  0.5832990000000  0.4798340000000 1.0
C      1  0.5424960000000  0.5362080000000  0.4220690000000 1.0
C      1  0.4375940000000  0.5399470000000  0.4460920000000 1.0
C      1  0.4362350000000  0.4824160000000  0.4347560000000 1.0
C      1  0.4349820000000  0.4409930000000  0.4752640000000 1.0
C      1  0.4440360000000  0.4401160000000  0.5311480000000 1.0
C      1  0.4365380000000  0.4859020000000  0.5629780000000 1.0
C      1  0.4376530000000  0.5456580000000  0.5519810000000 1.0
C      1  0.4378610000000  0.5685530000000  0.4973710000000 1.0
C      1  0.4975350000000  0.5605780000000  0.5332960000000 1.0
C      1  0.4976560000000  0.5637660000000  0.4735230000000 1.0
C      1  0.4978570000000  0.5192060000000  0.4336060000000 1.0
C      1  0.4983060000000  0.4602310000000  0.4435490000000 1.0
C      1  0.4987320000000  0.4311720000000  0.4970820000000 1.0
C      1  0.4984110000000  0.4537950000000  0.5523170000000 1.0
C      1  0.4966170000000  0.5110670000000  0.5672410000000 1.0
END
