TITL C-2782239-8622-717 0.000499159315417699 125000 -421.611803033313 0 0 78 (C3) n - 1
REM
REM in /home/nfs/bkarasulu/CARBON/AIRSS/Generating-Clusters/REBO/Higher-Symm/SD-CG/HFTN-CG
REM
REM
REM
REM
REM
REM ./C.cell (12c818d87b63d06a65506943cc24bca4)
REM
REM compiler GCC version 9.2.1 20190827 (Red Hat 9.2.1-1)
REM options -cpp -mtune=generic -march=x86-64 -g -O0 -fpre-include=/usr/include/finclude/math-vector-fortran.h
REM seed 788380607 576345119 -1475474517 2066020481 1804728786 1596298859 994477328 -678072617 -1471858807 904056433 1661418331 881431724 819794217 -1322079852 1541535848 442924019 1986897192 128288181 320716829 870465954 2126594826 1505219446 -671242566 1502849223 -1191034109 -2019689318 -851953460 -777595481 -1035592140 -1729273616 -1596563199 -1697141497 -968364804
REM
CELL 1.54180   50.00000   50.00000   50.00000   90.00000   90.00000   90.00000
LATT -1
SFAC C  
C      1  0.5297830000000  0.4945240000000  0.4933070000000 1.0
C      1  0.4790610000000  0.4945260000000  0.4783470000000 1.0
C      1  0.4914660000000  0.4945240000000  0.5297530000000 1.0
C      1  0.4650980000000  0.4476550000000  0.5587390000000 1.0
C      1  0.5680680000000  0.4476520000000  0.5016450000000 1.0
C      1  0.4671380000000  0.4476580000000  0.4410180000000 1.0
C      1  0.5315110000000  0.5187370000000  0.4761040000000 1.0
C      1  0.4633000000000  0.5187400000000  0.4854540000000 1.0
C      1  0.5055030000000  0.5187360000000  0.5398510000000 1.0
C      1  0.4335970000000  0.4934330000000  0.4776430000000 1.0
C      1  0.5135890000000  0.4934270000000  0.5694770000000 1.0
C      1  0.5531240000000  0.4934290000000  0.4542860000000 1.0
C      1  0.5246340000000  0.5103470000000  0.4445330000000 1.0
C      1  0.4393970000000  0.5103490000000  0.5071940000000 1.0
C      1  0.5362810000000  0.5103440000000  0.5496810000000 1.0
C      1  0.5748660000000  0.5336050000000  0.4843370000000 1.0
C      1  0.4487520000000  0.5336110000000  0.4437920000000 1.0
C      1  0.4766960000000  0.5336060000000  0.5732820000000 1.0
C      1  0.5083160000000  0.5629640000000  0.4518590000000 1.0
C      1  0.4539030000000  0.5629650000000  0.5176670000000 1.0
C      1  0.5381010000000  0.5629610000000  0.5318870000000 1.0
C      1  0.4912050000000  0.5517390000000  0.5572660000000 1.0
C      1  0.5537430000000  0.5517380000000  0.4797810000000 1.0
C      1  0.4553700000000  0.5517430000000  0.4643650000000 1.0
C      1  0.5021700000000  0.5345900000000  0.4355540000000 1.0
C      1  0.4428540000000  0.5345900000000  0.5311400000000 1.0
C      1  0.5552920000000  0.5345850000000  0.5347160000000 1.0
C      1  0.5274780000000  0.5847240000000  0.5189370000000 1.0
C      1  0.5024130000000  0.5847270000000  0.4675350000000 1.0
C      1  0.4704310000000  0.5847270000000  0.5149430000000 1.0
C      1  0.5491200000000  0.4360220000000  0.5196050000000 1.0
C      1  0.4921650000000  0.4360270000000  0.4484470000000 1.0
C      1  0.4590180000000  0.4360260000000  0.5333500000000 1.0
C      1  0.4313510000000  0.5128260000000  0.4526610000000 1.0
C      1  0.4930770000000  0.5128190000000  0.5839160000000 1.0
C      1  0.5758840000000  0.5128190000000  0.4648320000000 1.0
C      1  0.4644740000000  0.4814660000000  0.5309720000000 1.0
C      1  0.5443340000000  0.4814630000000  0.5160720000000 1.0
C      1  0.4915010000000  0.4814670000000  0.4543620000000 1.0
C      1  0.5211840000000  0.5474200000000  0.5507800000000 1.0
C      1  0.5331360000000  0.5474220000000  0.4570610000000 1.0
C      1  0.4459970000000  0.5474250000000  0.4935700000000 1.0
C      1  0.4570040000000  0.4805410000000  0.5627600000000 1.0
C      1  0.5755980000000  0.4805370000000  0.5066470000000 1.0
C      1  0.4677070000000  0.4805440000000  0.4319990000000 1.0
C      1  0.5352160000000  0.4603790000000  0.5363810000000 1.0
C      1  0.5136460000000  0.4603820000000  0.4521010000000 1.0
C      1  0.4514430000000  0.4603830000000  0.5129210000000 1.0
C      1  0.4833080000000  0.5451980000000  0.4798020000000 1.0
C      1  0.4906050000000  0.5451970000000  0.5253520000000 1.0
C      1  0.5264040000000  0.5451960000000  0.4962570000000 1.0
C      1  0.4692640000000  0.4544890000000  0.4866170000000 1.0
C      1  0.5035250000000  0.4544870000000  0.5340990000000 1.0
C      1  0.5275160000000  0.4544870000000  0.4806870000000 1.0
C      1  0.5364910000000  0.4729020000000  0.4352890000000 1.0
C      1  0.4254620000000  0.4729050000000  0.5015450000000 1.0
C      1  0.5383550000000  0.4728980000000  0.5645710000000 1.0
C      1  0.5563130000000  0.4707650000000  0.4795200000000 1.0
C      1  0.4538560000000  0.4707700000000  0.4622630000000 1.0
C      1  0.4901390000000  0.4707650000000  0.5596220000000 1.0
C      1  0.4702120000000  0.5307550000000  0.4252320000000 1.0
C      1  0.4498940000000  0.5307520000000  0.5639770000000 1.0
C      1  0.5802090000000  0.5307480000000  0.5122010000000 1.0
C      1  0.5641220000000  0.5018550000000  0.5311430000000 1.0
C      1  0.4946590000000  0.5018610000000  0.4296900000000 1.0
C      1  0.4415300000000  0.5018600000000  0.5405740000000 1.0
C      1  0.4731760000000  0.4278190000000  0.5067960000000 1.0
C      1  0.5190430000000  0.4278170000000  0.5206200000000 1.0
C      1  0.5080820000000  0.4278190000000  0.4739860000000 1.0
C      1  0.5000990000000  0.3842170000000  0.5004660000000 1.0
C      1  0.5001050000000  0.5231170000000  0.5004700000000 1.0
C      1  0.5001080000000  0.5949420000000  0.5004720000000 1.0
C      1  0.5001060000000  0.5623940000000  0.5004710000000 1.0
C      1  0.5001090000000  0.6237760000000  0.5004730000000 1.0
C      1  0.5001000000000  0.4145350000000  0.5004670000000 1.0
C      1  0.5000980000000  0.3586980000000  0.5004650000000 1.0
C      1  0.5001030000000  0.4907470000000  0.5004690000000 1.0
C      1  0.5001020000000  0.4581510000000  0.5004680000000 1.0
END
