TITL C-2782229-3092-756 0.000307717830985767 125000 -66.4242986782373 0 0 14 (C2) n - 1
REM
REM in /home/nfs/bkarasulu/CARBON/AIRSS/Generating-Clusters/REBO/Higher-Symm/SD-CG/HFTN-CG
REM
REM
REM
REM
REM
REM ./C.cell (12c818d87b63d06a65506943cc24bca4)
REM
REM compiler GCC version 9.2.1 20190827 (Red Hat 9.2.1-1)
REM options -cpp -mtune=generic -march=x86-64 -g -O0 -fpre-include=/usr/include/finclude/math-vector-fortran.h
REM seed 1618611397 357408838 -825261558 243787294 -758981409 -1778614206 -453519599 472089788 -1690412963 1314318492 -1937229378 -1479031010 1592272272 1477671860 1603678162 -435756136 -1114053419 1849391784 -113764709 -1994532020 -2048718540 -1420303856 1185491071 -712043688 -1241610499 1408710311 967042334 1260747314 -1322607347 1115798365 547126405 125103554 238773874
REM
CELL 1.54180   50.00000   50.00000   50.00000   90.00000   90.00000   90.00000
LATT -1
SFAC C  
C      1  0.4964920000000  0.4875980000000  0.5121080000000 1.0
C      1  0.5032900000000  0.5125840000000  0.5120010000000 1.0
C      1  0.4698770000000  0.4500440000000  0.4696330000000 1.0
C      1  0.5305490000000  0.5496000000000  0.4694620000000 1.0
C      1  0.5004400000000  0.4418180000000  0.4700800000000 1.0
C      1  0.4999830000000  0.5578290000000  0.4693420000000 1.0
C      1  0.4891790000000  0.4612570000000  0.5281000000000 1.0
C      1  0.5103630000000  0.5391270000000  0.5277680000000 1.0
C      1  0.5136810000000  0.5521220000000  0.5510240000000 1.0
C      1  0.4855080000000  0.4485560000000  0.5514660000000 1.0
C      1  0.4794910000000  0.5704140000000  0.4573810000000 1.0
C      1  0.5211100000000  0.4290830000000  0.4585910000000 1.0
C      1  0.5108200000000  0.5396890000000  0.4949680000000 1.0
C      1  0.4892180000000  0.4602790000000  0.4953070000000 1.0
END
