TITL C-2782232-2968-1424 -0.00131100572489892 125000 -883.233770134522 0 0 153 (C1) n - 1
REM
REM in /home/nfs/bkarasulu/CARBON/AIRSS/Generating-Clusters/REBO/Higher-Symm/SD-CG/HFTN-CG
REM
REM
REM
REM
REM
REM ./C.cell (12c818d87b63d06a65506943cc24bca4)
REM
REM compiler GCC version 9.2.1 20190827 (Red Hat 9.2.1-1)
REM options -cpp -mtune=generic -march=x86-64 -g -O0 -fpre-include=/usr/include/finclude/math-vector-fortran.h
REM seed -373540132 -1716138889 -247929698 -802591345 -464287637 -142117179 1035173121 439755911 920053668 -152493604 1095851982 -246880786 1468601959 -150587668 1396906268 916617744 1045067517 -847887487 1096633326 818253469 39757350 -32145618 1284871069 1549040710 -1429365782 1714637689 -202194611 5424905 1519762743 -331367588 -501380493 -1138458869 614056445
REM
CELL 1.54180   50.00000   50.00000   50.00000   90.00000   90.00000   90.00000
LATT -1
SFAC C  
C      1  0.5115060000000  0.4980280000000  0.5994220000000 1.0
C      1  0.5971140000000  0.4932040000000  0.4862120000000 1.0
C      1  0.4913960000000  0.5059040000000  0.4020360000000 1.0
C      1  0.4002470000000  0.4976490000000  0.5082500000000 1.0
C      1  0.4590740000000  0.4817900000000  0.5350610000000 1.0
C      1  0.5374260000000  0.4790030000000  0.5399890000000 1.0
C      1  0.5362870000000  0.4820420000000  0.4628200000000 1.0
C      1  0.4656540000000  0.4771780000000  0.4589790000000 1.0
C      1  0.5257450000000  0.5389440000000  0.4143370000000 1.0
C      1  0.4078950000000  0.5247230000000  0.4679680000000 1.0
C      1  0.4695240000000  0.5216090000000  0.5875530000000 1.0
C      1  0.5905550000000  0.5167000000000  0.5291460000000 1.0
C      1  0.5621140000000  0.5112160000000  0.5344470000000 1.0
C      1  0.5326970000000  0.5260940000000  0.4391020000000 1.0
C      1  0.4357240000000  0.5183350000000  0.4640210000000 1.0
C      1  0.4638950000000  0.5131570000000  0.5597800000000 1.0
C      1  0.5840860000000  0.4984760000000  0.4556430000000 1.0
C      1  0.4596990000000  0.5011040000000  0.4109590000000 1.0
C      1  0.4064090000000  0.4974280000000  0.5400970000000 1.0
C      1  0.5431990000000  0.4978900000000  0.5926670000000 1.0
C      1  0.5764580000000  0.5621040000000  0.5418550000000 1.0
C      1  0.4927400000000  0.6212070000000  0.4081490000000 1.0
C      1  0.4204820000000  0.5600040000000  0.4540050000000 1.0
C      1  0.4557440000000  0.5645040000000  0.5695390000000 1.0
C      1  0.4630920000000  0.4094930000000  0.4813810000000 1.0
C      1  0.4794170000000  0.4086390000000  0.5455650000000 1.0
C      1  0.5423450000000  0.4060050000000  0.5242080000000 1.0
C      1  0.5242470000000  0.4033820000000  0.4599610000000 1.0
C      1  0.4821150000000  0.5653750000000  0.4060450000000 1.0
C      1  0.4014290000000  0.5576380000000  0.5057810000000 1.0
C      1  0.5054500000000  0.5554950000000  0.5906920000000 1.0
C      1  0.6015420000000  0.5506100000000  0.4946400000000 1.0
C      1  0.5446800000000  0.4537110000000  0.4558980000000 1.0
C      1  0.4506500000000  0.4474070000000  0.4521710000000 1.0
C      1  0.4470700000000  0.4520980000000  0.5489380000000 1.0
C      1  0.5506720000000  0.4497170000000  0.5530790000000 1.0
C      1  0.4351770000000  0.4982220000000  0.5492000000000 1.0
C      1  0.5514830000000  0.4963710000000  0.5632540000000 1.0
C      1  0.5543760000000  0.5024420000000  0.4462780000000 1.0
C      1  0.4480650000000  0.4981820000000  0.4408340000000 1.0
C      1  0.4202860000000  0.4524390000000  0.5086960000000 1.0
C      1  0.5102170000000  0.4506180000000  0.5828410000000 1.0
C      1  0.5797460000000  0.4465530000000  0.4877590000000 1.0
C      1  0.4877800000000  0.4599510000000  0.4202120000000 1.0
C      1  0.4685480000000  0.4940190000000  0.5046450000000 1.0
C      1  0.5077110000000  0.4917760000000  0.5298830000000 1.0
C      1  0.5288250000000  0.4936050000000  0.4921190000000 1.0
C      1  0.4929020000000  0.4949350000000  0.4695270000000 1.0
C      1  0.5167200000000  0.4464850000000  0.5505050000000 1.0
C      1  0.5472610000000  0.4382120000000  0.4807810000000 1.0
C      1  0.4976920000000  0.4433190000000  0.4460070000000 1.0
C      1  0.4526950000000  0.4476530000000  0.5153090000000 1.0
C      1  0.5844540000000  0.4889670000000  0.5589710000000 1.0
C      1  0.5624540000000  0.4884790000000  0.4171640000000 1.0
C      1  0.4166640000000  0.4853840000000  0.4374180000000 1.0
C      1  0.4387710000000  0.4914640000000  0.5821650000000 1.0
C      1  0.5367430000000  0.4702930000000  0.4097480000000 1.0
C      1  0.4075910000000  0.4704300000000  0.4629740000000 1.0
C      1  0.4649920000000  0.4764190000000  0.5879550000000 1.0
C      1  0.5883260000000  0.4727150000000  0.5325750000000 1.0
C      1  0.5414840000000  0.4159010000000  0.5569140000000 1.0
C      1  0.5571380000000  0.4014320000000  0.4685700000000 1.0
C      1  0.4654020000000  0.4200550000000  0.4490970000000 1.0
C      1  0.4467740000000  0.4176500000000  0.5409140000000 1.0
C      1  0.4625830000000  0.5778050000000  0.4300720000000 1.0
C      1  0.4326590000000  0.5671160000000  0.5123500000000 1.0
C      1  0.5154980000000  0.5692660000000  0.5627850000000 1.0
C      1  0.5752090000000  0.5672360000000  0.4818810000000 1.0
C      1  0.4382390000000  0.4278510000000  0.4925110000000 1.0
C      1  0.4904320000000  0.4312070000000  0.5644830000000 1.0
C      1  0.5618360000000  0.4262510000000  0.5089660000000 1.0
C      1  0.5202290000000  0.4270290000000  0.4390580000000 1.0
C      1  0.5452580000000  0.5392590000000  0.5320060000000 1.0
C      1  0.5332300000000  0.5475710000000  0.4623950000000 1.0
C      1  0.4542890000000  0.5434440000000  0.4672430000000 1.0
C      1  0.4663930000000  0.5391760000000  0.5406100000000 1.0
C      1  0.4661720000000  0.4100780000000  0.5147880000000 1.0
C      1  0.5126750000000  0.4080290000000  0.5407600000000 1.0
C      1  0.5346340000000  0.4021650000000  0.4924630000000 1.0
C      1  0.4925260000000  0.4066440000000  0.4640060000000 1.0
C      1  0.4837350000000  0.5161920000000  0.5252000000000 1.0
C      1  0.5265620000000  0.5168800000000  0.5172760000000 1.0
C      1  0.5167720000000  0.5205630000000  0.4752450000000 1.0
C      1  0.4725850000000  0.5195570000000  0.4814510000000 1.0
C      1  0.5337110000000  0.4299300000000  0.5833090000000 1.0
C      1  0.5796810000000  0.4170410000000  0.4710220000000 1.0
C      1  0.4696290000000  0.4310870000000  0.4210080000000 1.0
C      1  0.4205710000000  0.4289660000000  0.5300920000000 1.0
C      1  0.4715420000000  0.5922280000000  0.4746260000000 1.0
C      1  0.4726580000000  0.5898540000000  0.5320570000000 1.0
C      1  0.5397790000000  0.5919080000000  0.5271930000000 1.0
C      1  0.5394560000000  0.5958760000000  0.4659630000000 1.0
C      1  0.4813620000000  0.4384590000000  0.5058380000000 1.0
C      1  0.5082840000000  0.4362310000000  0.5222480000000 1.0
C      1  0.5183340000000  0.4313150000000  0.4929170000000 1.0
C      1  0.4904550000000  0.4385150000000  0.4757750000000 1.0
C      1  0.4831990000000  0.5979140000000  0.4127300000000 1.0
C      1  0.4215110000000  0.5662170000000  0.4800560000000 1.0
C      1  0.4822670000000  0.5690260000000  0.5707440000000 1.0
C      1  0.5808770000000  0.5661970000000  0.5156090000000 1.0
C      1  0.4594730000000  0.4708360000000  0.4122420000000 1.0
C      1  0.3989940000000  0.4719570000000  0.5555730000000 1.0
C      1  0.5585370000000  0.4720080000000  0.5994030000000 1.0
C      1  0.5935440000000  0.4656490000000  0.4577330000000 1.0
C      1  0.4998900000000  0.5383540000000  0.4023650000000 1.0
C      1  0.3959090000000  0.5271700000000  0.4939110000000 1.0
C      1  0.4955030000000  0.5266520000000  0.5992140000000 1.0
C      1  0.6031590000000  0.5202660000000  0.5036640000000 1.0
C      1  0.5508720000000  0.5713320000000  0.4667460000000 1.0
C      1  0.4607070000000  0.5735230000000  0.4589300000000 1.0
C      1  0.4572920000000  0.5679450000000  0.5297770000000 1.0
C      1  0.5371790000000  0.5691410000000  0.5414290000000 1.0
C      1  0.5902300000000  0.5343260000000  0.4342940000000 1.0
C      1  0.4259480000000  0.5435080000000  0.4309590000000 1.0
C      1  0.4328840000000  0.5475390000000  0.5636530000000 1.0
C      1  0.5676020000000  0.5458730000000  0.5644220000000 1.0
C      1  0.4908840000000  0.6069730000000  0.4880830000000 1.0
C      1  0.4910600000000  0.6061550000000  0.5192110000000 1.0
C      1  0.5218990000000  0.6082940000000  0.5130060000000 1.0
C      1  0.5213800000000  0.6101230000000  0.4816220000000 1.0
C      1  0.4155220000000  0.5181060000000  0.4292870000000 1.0
C      1  0.4305970000000  0.5243470000000  0.5788610000000 1.0
C      1  0.5816370000000  0.5218250000000  0.5677020000000 1.0
C      1  0.5809750000000  0.5164260000000  0.4200410000000 1.0
C      1  0.4970980000000  0.4772350000000  0.5853910000000 1.0
C      1  0.5824740000000  0.4733540000000  0.5008240000000 1.0
C      1  0.5080460000000  0.4834740000000  0.4156120000000 1.0
C      1  0.4156560000000  0.4774240000000  0.4934520000000 1.0
C      1  0.4252840000000  0.4462240000000  0.4696420000000 1.0
C      1  0.4687530000000  0.4519140000000  0.5715950000000 1.0
C      1  0.5715990000000  0.4477920000000  0.5295490000000 1.0
C      1  0.5391880000000  0.4446130000000  0.4242260000000 1.0
C      1  0.5149430000000  0.4971790000000  0.4430240000000 1.0
C      1  0.4435210000000  0.4901650000000  0.4815340000000 1.0
C      1  0.4856610000000  0.4873610000000  0.5555350000000 1.0
C      1  0.5548320000000  0.4859300000000  0.5127470000000 1.0
C      1  0.4889290000000  0.5472070000000  0.5173040000000 1.0
C      1  0.5196660000000  0.5482230000000  0.5125860000000 1.0
C      1  0.5086950000000  0.5512090000000  0.4829560000000 1.0
C      1  0.4777230000000  0.5521330000000  0.4881240000000 1.0
C      1  0.5303110000000  0.5263040000000  0.5994970000000 1.0
C      1  0.6045630000000  0.5205170000000  0.4689850000000 1.0
C      1  0.4666190000000  0.5296420000000  0.4000570000000 1.0
C      1  0.3976790000000  0.5255310000000  0.5282350000000 1.0
C      1  0.5700280000000  0.4631400000000  0.5755010000000 1.0
C      1  0.5699660000000  0.4647590000000  0.4394850000000 1.0
C      1  0.4378680000000  0.4618690000000  0.4279030000000 1.0
C      1  0.4233760000000  0.4647580000000  0.5676320000000 1.0
C      1  0.4500170000000  0.5526030000000  0.4136390000000 1.0
C      1  0.4155000000000  0.5509310000000  0.5370160000000 1.0
C      1  0.5385780000000  0.5505940000000  0.5798360000000 1.0
C      1  0.5992320000000  0.5507060000000  0.4603850000000 1.0
C      1  0.4988800000000  0.4788610000000  0.4992690000000 1.0
END
