TITL C-2782235-7892-1387 0.0095590998581178 125000 -1168.00731890955 0 0 199 (C1) n - 1
REM
REM in /home/nfs/bkarasulu/CARBON/AIRSS/Generating-Clusters/REBO/Higher-Symm/SD-CG/HFTN-CG
REM
REM
REM
REM
REM
REM ./C.cell (12c818d87b63d06a65506943cc24bca4)
REM
REM compiler GCC version 9.2.1 20190827 (Red Hat 9.2.1-1)
REM options -cpp -mtune=generic -march=x86-64 -g -O0 -fpre-include=/usr/include/finclude/math-vector-fortran.h
REM seed -335235106 -1704221497 582177323 -100646467 -404102419 -1112208173 197393542 -1919136649 260110751 -1848790595 -295127532 -1584712535 -804523150 -927822339 -1647658028 -668724063 1488379334 -776471631 332770456 -1543902075 1288552659 -1506149315 1296299549 -1239709503 -428031938 -1847073069 692118943 896492853 -1845299042 414191054 1644336558 -1048825620 -384540228
REM
CELL 1.54180   50.00000   50.00000   50.00000   90.00000   90.00000   90.00000
LATT -1
SFAC C  
C      1  0.5514060000000  0.5449270000000  0.4732750000000 1.0
C      1  0.5075090000000  0.4488830000000  0.5655200000000 1.0
C      1  0.4076520000000  0.5159220000000  0.4334700000000 1.0
C      1  0.4560630000000  0.4571370000000  0.4215620000000 1.0
C      1  0.5755740000000  0.4196850000000  0.5135790000000 1.0
C      1  0.4368260000000  0.5327550000000  0.3903420000000 1.0
C      1  0.5898600000000  0.4426750000000  0.5301110000000 1.0
C      1  0.4967680000000  0.6038220000000  0.4926350000000 1.0
C      1  0.5486310000000  0.4746680000000  0.5105790000000 1.0
C      1  0.5827740000000  0.5573530000000  0.4467580000000 1.0
C      1  0.4996700000000  0.6050110000000  0.4580680000000 1.0
C      1  0.5458660000000  0.5313610000000  0.5775690000000 1.0
C      1  0.5199180000000  0.4948250000000  0.5296670000000 1.0
C      1  0.6045510000000  0.5015380000000  0.5582630000000 1.0
C      1  0.5080440000000  0.6079820000000  0.5458180000000 1.0
C      1  0.4164070000000  0.4388580000000  0.4760890000000 1.0
C      1  0.4810850000000  0.4496110000000  0.5763360000000 1.0
C      1  0.4691020000000  0.5310580000000  0.6084660000000 1.0
C      1  0.4781280000000  0.5566930000000  0.4739990000000 1.0
C      1  0.4515200000000  0.4869870000000  0.5941290000000 1.0
C      1  0.5375620000000  0.4550520000000  0.3976680000000 1.0
C      1  0.5909870000000  0.4490940000000  0.4430440000000 1.0
C      1  0.6036150000000  0.4626820000000  0.5179150000000 1.0
C      1  0.5614080000000  0.5198030000000  0.5534920000000 1.0
C      1  0.5303850000000  0.5741120000000  0.5165750000000 1.0
C      1  0.4523910000000  0.4005510000000  0.4838480000000 1.0
C      1  0.5568410000000  0.4776740000000  0.4560480000000 1.0
C      1  0.5462570000000  0.5615810000000  0.5513810000000 1.0
C      1  0.4789380000000  0.4691020000000  0.6288920000000 1.0
C      1  0.5076270000000  0.4891450000000  0.5033950000000 1.0
C      1  0.4929040000000  0.5522210000000  0.4438850000000 1.0
C      1  0.4567430000000  0.4338950000000  0.5799320000000 1.0
C      1  0.4709180000000  0.4540150000000  0.4605820000000 1.0
C      1  0.4716980000000  0.4808020000000  0.5720840000000 1.0
C      1  0.4105130000000  0.4415830000000  0.5542550000000 1.0
C      1  0.5474210000000  0.4570570000000  0.4749560000000 1.0
C      1  0.3867470000000  0.5141320000000  0.4919860000000 1.0
C      1  0.5962070000000  0.5672630000000  0.5143100000000 1.0
C      1  0.5185510000000  0.5635430000000  0.4292480000000 1.0
C      1  0.4976950000000  0.4630450000000  0.3938820000000 1.0
C      1  0.5751660000000  0.4277420000000  0.4548080000000 1.0
C      1  0.5245450000000  0.5395680000000  0.5448490000000 1.0
C      1  0.4129890000000  0.5073220000000  0.5714360000000 1.0
C      1  0.4325800000000  0.5706440000000  0.4533510000000 1.0
C      1  0.4061850000000  0.4714210000000  0.4741320000000 1.0
C      1  0.4205180000000  0.4175420000000  0.5334090000000 1.0
C      1  0.4131310000000  0.4736180000000  0.5668680000000 1.0
C      1  0.4893220000000  0.3787910000000  0.5287200000000 1.0
C      1  0.6127690000000  0.4867060000000  0.4198850000000 1.0
C      1  0.4425110000000  0.4831220000000  0.5261710000000 1.0
C      1  0.4300100000000  0.4475740000000  0.5789260000000 1.0
C      1  0.4841480000000  0.3920460000000  0.4740320000000 1.0
C      1  0.5572050000000  0.5600030000000  0.5129680000000 1.0
C      1  0.5460200000000  0.4548590000000  0.5586890000000 1.0
C      1  0.4477970000000  0.5926650000000  0.5088830000000 1.0
C      1  0.5855690000000  0.4939410000000  0.5349410000000 1.0
C      1  0.4874490000000  0.4109470000000  0.5398060000000 1.0
C      1  0.4322890000000  0.5322120000000  0.5582550000000 1.0
C      1  0.4985300000000  0.6043880000000  0.5729430000000 1.0
C      1  0.5522190000000  0.4169980000000  0.4403970000000 1.0
C      1  0.5168930000000  0.5569650000000  0.5902430000000 1.0
C      1  0.4335060000000  0.5308810000000  0.4950030000000 1.0
C      1  0.5313790000000  0.5959600000000  0.4635780000000 1.0
C      1  0.5132560000000  0.5221960000000  0.5712650000000 1.0
C      1  0.4633430000000  0.6005640000000  0.4868670000000 1.0
C      1  0.4598360000000  0.5450000000000  0.5006070000000 1.0
C      1  0.4585860000000  0.5366690000000  0.4234640000000 1.0
C      1  0.4542700000000  0.4695300000000  0.6164250000000 1.0
C      1  0.5605620000000  0.4303600000000  0.5423440000000 1.0
C      1  0.5383090000000  0.4011530000000  0.5075710000000 1.0
C      1  0.4947770000000  0.5251480000000  0.5362470000000 1.0
C      1  0.5675430000000  0.5346180000000  0.4323430000000 1.0
C      1  0.5934840000000  0.4777430000000  0.4902380000000 1.0
C      1  0.4662090000000  0.4673330000000  0.5439330000000 1.0
C      1  0.5334250000000  0.5698960000000  0.4825040000000 1.0
C      1  0.4475110000000  0.5144700000000  0.6001180000000 1.0
C      1  0.5597310000000  0.4834290000000  0.5370880000000 1.0
C      1  0.4801550000000  0.4812350000000  0.4742060000000 1.0
C      1  0.5246130000000  0.5049510000000  0.4710280000000 1.0
C      1  0.4915400000000  0.4207010000000  0.4231120000000 1.0
C      1  0.4410540000000  0.4823670000000  0.4947400000000 1.0
C      1  0.5707750000000  0.4553550000000  0.4965670000000 1.0
C      1  0.5205330000000  0.5910020000000  0.4346060000000 1.0
C      1  0.5449280000000  0.5002150000000  0.4924180000000 1.0
C      1  0.4454310000000  0.4558490000000  0.4793750000000 1.0
C      1  0.4095140000000  0.4836870000000  0.4452600000000 1.0
C      1  0.5389560000000  0.5038570000000  0.5953350000000 1.0
C      1  0.3966800000000  0.5167820000000  0.4626570000000 1.0
C      1  0.4462640000000  0.4954810000000  0.4010000000000 1.0
C      1  0.5757900000000  0.5039120000000  0.4846500000000 1.0
C      1  0.5173050000000  0.3918530000000  0.4832470000000 1.0
C      1  0.5401440000000  0.5172210000000  0.5289060000000 1.0
C      1  0.5835390000000  0.5341030000000  0.4792040000000 1.0
C      1  0.4045390000000  0.5306950000000  0.5128260000000 1.0
C      1  0.4936980000000  0.5599150000000  0.5709690000000 1.0
C      1  0.5263880000000  0.4488150000000  0.5305820000000 1.0
C      1  0.4772340000000  0.4813990000000  0.4289670000000 1.0
C      1  0.4875840000000  0.5065100000000  0.5642490000000 1.0
C      1  0.4660440000000  0.4300490000000  0.4291740000000 1.0
C      1  0.5022660000000  0.4416210000000  0.4552990000000 1.0
C      1  0.4987170000000  0.4046680000000  0.5087010000000 1.0
C      1  0.4866310000000  0.6064900000000  0.5254610000000 1.0
C      1  0.4810570000000  0.5150390000000  0.4341010000000 1.0
C      1  0.5366070000000  0.4821190000000  0.3915570000000 1.0
C      1  0.5859630000000  0.5344910000000  0.5480080000000 1.0
C      1  0.5566150000000  0.6024560000000  0.4813990000000 1.0
C      1  0.4180680000000  0.5769560000000  0.5305210000000 1.0
C      1  0.6014690000000  0.4884300000000  0.5817330000000 1.0
C      1  0.5758680000000  0.5804140000000  0.4946420000000 1.0
C      1  0.4514640000000  0.5686890000000  0.4273420000000 1.0
C      1  0.5771050000000  0.5624190000000  0.5399710000000 1.0
C      1  0.4756490000000  0.4982760000000  0.3832810000000 1.0
C      1  0.5140450000000  0.4776230000000  0.5550150000000 1.0
C      1  0.4089350000000  0.5183950000000  0.5393210000000 1.0
C      1  0.4894160000000  0.5349300000000  0.5055570000000 1.0
C      1  0.4997820000000  0.4866800000000  0.6206810000000 1.0
C      1  0.5319160000000  0.4250220000000  0.5612350000000 1.0
C      1  0.3890410000000  0.4858490000000  0.4960720000000 1.0
C      1  0.6011930000000  0.5292100000000  0.4524430000000 1.0
C      1  0.4038580000000  0.4475390000000  0.5155390000000 1.0
C      1  0.5248750000000  0.4783950000000  0.6074710000000 1.0
C      1  0.5105090000000  0.4362280000000  0.4061710000000 1.0
C      1  0.4090280000000  0.5618030000000  0.5084180000000 1.0
C      1  0.5032310000000  0.4741830000000  0.4494570000000 1.0
C      1  0.5294610000000  0.6105500000000  0.5003530000000 1.0
C      1  0.6023270000000  0.5398280000000  0.5044920000000 1.0
C      1  0.4821930000000  0.5699770000000  0.5441620000000 1.0
C      1  0.5717570000000  0.5777970000000  0.4623630000000 1.0
C      1  0.4964300000000  0.5417380000000  0.4042240000000 1.0
C      1  0.5423090000000  0.4999840000000  0.4130470000000 1.0
C      1  0.5114320000000  0.5211150000000  0.4270360000000 1.0
C      1  0.5009450000000  0.5700440000000  0.4902600000000 1.0
C      1  0.4721550000000  0.4264360000000  0.4888270000000 1.0
C      1  0.4772570000000  0.4822730000000  0.5070030000000 1.0
C      1  0.5331330000000  0.3989830000000  0.4539480000000 1.0
C      1  0.6038760000000  0.5026770000000  0.4430040000000 1.0
C      1  0.4389940000000  0.4917150000000  0.4320510000000 1.0
C      1  0.4179570000000  0.4356110000000  0.4460290000000 1.0
C      1  0.5523470000000  0.5301340000000  0.5036640000000 1.0
C      1  0.4600930000000  0.5218660000000  0.5556080000000 1.0
C      1  0.5426880000000  0.3876970000000  0.5322460000000 1.0
C      1  0.4818600000000  0.5677910000000  0.4147330000000 1.0
C      1  0.4318800000000  0.6048980000000  0.5323610000000 1.0
C      1  0.4977210000000  0.5151060000000  0.4852600000000 1.0
C      1  0.5283140000000  0.4307480000000  0.4746020000000 1.0
C      1  0.5756500000000  0.4723660000000  0.5960010000000 1.0
C      1  0.4229290000000  0.5027790000000  0.4801320000000 1.0
C      1  0.5202160000000  0.4639480000000  0.4942350000000 1.0
C      1  0.4942600000000  0.4589830000000  0.5257830000000 1.0
C      1  0.5443080000000  0.5645620000000  0.5813680000000 1.0
C      1  0.4762480000000  0.5913290000000  0.4375560000000 1.0
C      1  0.5013960000000  0.4354750000000  0.4945230000000 1.0
C      1  0.5419530000000  0.4313820000000  0.4185540000000 1.0
C      1  0.5492660000000  0.5281300000000  0.4114190000000 1.0
C      1  0.4650700000000  0.4681090000000  0.3932840000000 1.0
C      1  0.6057970000000  0.4594460000000  0.4197100000000 1.0
C      1  0.5619220000000  0.5112600000000  0.4544950000000 1.0
C      1  0.4732310000000  0.5105380000000  0.4646880000000 1.0
C      1  0.4710790000000  0.5592650000000  0.5953680000000 1.0
C      1  0.5325790000000  0.5282860000000  0.4499900000000 1.0
C      1  0.4192330000000  0.5159260000000  0.4072290000000 1.0
C      1  0.5312090000000  0.4894190000000  0.4411370000000 1.0
C      1  0.5082720000000  0.4911130000000  0.3772850000000 1.0
C      1  0.4556360000000  0.5657110000000  0.5227780000000 1.0
C      1  0.4291920000000  0.5392080000000  0.4640930000000 1.0
C      1  0.5381120000000  0.4311360000000  0.5081850000000 1.0
C      1  0.4683400000000  0.5044620000000  0.5293010000000 1.0
C      1  0.5896130000000  0.4781250000000  0.4577080000000 1.0
C      1  0.4689110000000  0.4331120000000  0.5419920000000 1.0
C      1  0.4192180000000  0.5660640000000  0.4829480000000 1.0
C      1  0.6026060000000  0.4796170000000  0.6128290000000 1.0
C      1  0.5293860000000  0.3952450000000  0.5566040000000 1.0
C      1  0.4260460000000  0.4156230000000  0.4995500000000 1.0
C      1  0.5023910000000  0.4079300000000  0.4501300000000 1.0
C      1  0.5299060000000  0.5483160000000  0.4049210000000 1.0
C      1  0.4925370000000  0.5159250000000  0.6167030000000 1.0
C      1  0.4663600000000  0.4443070000000  0.5118470000000 1.0
C      1  0.6072590000000  0.5191290000000  0.5284070000000 1.0
C      1  0.5021330000000  0.3868050000000  0.5576180000000 1.0
C      1  0.5761490000000  0.4257030000000  0.4836940000000 1.0
C      1  0.4695370000000  0.5273330000000  0.3926440000000 1.0
C      1  0.4371350000000  0.5608550000000  0.5510440000000 1.0
C      1  0.5167620000000  0.5281700000000  0.6043290000000 1.0
C      1  0.4145440000000  0.4870580000000  0.5375680000000 1.0
C      1  0.4610180000000  0.5816260000000  0.4636240000000 1.0
C      1  0.5491090000000  0.4656690000000  0.5892680000000 1.0
C      1  0.4617570000000  0.5977410000000  0.5457410000000 1.0
C      1  0.5010950000000  0.5616450000000  0.5214470000000 1.0
C      1  0.4792730000000  0.5922180000000  0.5885240000000 1.0
C      1  0.3947830000000  0.4729310000000  0.5199530000000 1.0
C      1  0.4542010000000  0.5771860000000  0.5718040000000 1.0
C      1  0.5318510000000  0.6028080000000  0.5303640000000 1.0
C      1  0.5415790000000  0.4944290000000  0.5629670000000 1.0
C      1  0.5034430000000  0.4919900000000  0.4112350000000 1.0
C      1  0.4354830000000  0.4460750000000  0.5101400000000 1.0
C      1  0.4433250000000  0.4196210000000  0.5536380000000 1.0
C      1  0.4270110000000  0.4594130000000  0.4323160000000 1.0
C      1  0.4445540000000  0.5191090000000  0.4483950000000 1.0
C      1  0.4576390000000  0.4224070000000  0.4582700000000 1.0
END
