TITL C-2782240-8521-151 -0.00662063516912307 125000 -310.234438615572 0 0 54 (C1) n - 1
REM
REM in /home/nfs/bkarasulu/CARBON/AIRSS/Generating-Clusters/REBO/Higher-Symm/SD-CG/HFTN-CG
REM
REM
REM
REM
REM
REM ./C.cell (12c818d87b63d06a65506943cc24bca4)
REM
REM compiler GCC version 9.2.1 20190827 (Red Hat 9.2.1-1)
REM options -cpp -mtune=generic -march=x86-64 -g -O0 -fpre-include=/usr/include/finclude/math-vector-fortran.h
REM seed 910785405 1043069833 -136637114 -465668255 350808993 21755612 -295784267 1163540511 1996790141 218499661 -1042991208 -552171586 1344338278 -143956553 -873498150 559454991 -683309547 -1829081495 -1407924230 344668606 -1881353406 -1257902365 -714836655 -444178667 -1418680426 2022521459 -613308904 1464871484 -1056911812 -1081377513 1473053833 1019823730 903532536
REM
CELL 1.54180   50.00000   50.00000   50.00000   90.00000   90.00000   90.00000
LATT -1
SFAC C  
C      1  0.4804580000000  0.4506510000000  0.4784630000000 1.0
C      1  0.4917160000000  0.4469270000000  0.5285590000000 1.0
C      1  0.5284190000000  0.4520560000000  0.4951680000000 1.0
C      1  0.4807790000000  0.5483810000000  0.5211530000000 1.0
C      1  0.4919860000000  0.5533020000000  0.4712660000000 1.0
C      1  0.5289420000000  0.5489410000000  0.5046150000000 1.0
C      1  0.4510030000000  0.4722340000000  0.4972210000000 1.0
C      1  0.5188070000000  0.4746030000000  0.5460050000000 1.0
C      1  0.5284690000000  0.4781760000000  0.4627110000000 1.0
C      1  0.4521230000000  0.5269180000000  0.5026400000000 1.0
C      1  0.5193110000000  0.5257960000000  0.4538940000000 1.0
C      1  0.5296730000000  0.5221550000000  0.5375020000000 1.0
C      1  0.4709820000000  0.4778180000000  0.4625030000000 1.0
C      1  0.4794050000000  0.4694820000000  0.5454030000000 1.0
C      1  0.5474480000000  0.4742690000000  0.4970930000000 1.0
C      1  0.4709810000000  0.5221120000000  0.5375150000000 1.0
C      1  0.4798670000000  0.5302280000000  0.4547790000000 1.0
C      1  0.5479400000000  0.5266020000000  0.5028830000000 1.0
C      1  0.4726360000000  0.4401870000000  0.5062460000000 1.0
C      1  0.5202420000000  0.4430430000000  0.5217900000000 1.0
C      1  0.5089420000000  0.4451870000000  0.4731410000000 1.0
C      1  0.4729870000000  0.5595200000000  0.4937810000000 1.0
C      1  0.5205360000000  0.5575440000000  0.4778880000000 1.0
C      1  0.5090750000000  0.5543990000000  0.5267450000000 1.0
C      1  0.4284300000000  0.4899580000000  0.4891540000000 1.0
C      1  0.5202540000000  0.4968410000000  0.5669900000000 1.0
C      1  0.5473270000000  0.4977700000000  0.4488240000000 1.0
C      1  0.4287000000000  0.5100330000000  0.5107480000000 1.0
C      1  0.5205190000000  0.5035510000000  0.4328840000000 1.0
C      1  0.5475440000000  0.5018060000000  0.5516380000000 1.0
C      1  0.4890190000000  0.5012320000000  0.4451660000000 1.0
C      1  0.4467910000000  0.5026060000000  0.5338580000000 1.0
C      1  0.5563460000000  0.4982660000000  0.5197110000000 1.0
C      1  0.4883880000000  0.4986790000000  0.5553580000000 1.0
C      1  0.4469350000000  0.4971440000000  0.4662520000000 1.0
C      1  0.5564150000000  0.5024410000000  0.4802620000000 1.0
C      1  0.5114300000000  0.5143150000000  0.5139680000000 1.0
C      1  0.5081980000000  0.5180120000000  0.4801740000000 1.0
C      1  0.4801310000000  0.5151290000000  0.4992730000000 1.0
C      1  0.5093930000000  0.4859840000000  0.4860360000000 1.0
C      1  0.5071600000000  0.4826520000000  0.5199050000000 1.0
C      1  0.4786180000000  0.4831040000000  0.5013440000000 1.0
C      1  0.5403910000000  0.4541590000000  0.5424620000000 1.0
C      1  0.5158720000000  0.4568900000000  0.4455200000000 1.0
C      1  0.4442740000000  0.4499400000000  0.5172920000000 1.0
C      1  0.5407830000000  0.5464540000000  0.4571890000000 1.0
C      1  0.5161290000000  0.5428330000000  0.5544390000000 1.0
C      1  0.4451310000000  0.5493850000000  0.4827510000000 1.0
C      1  0.4521680000000  0.5259930000000  0.4626810000000 1.0
C      1  0.4956860000000  0.5287580000000  0.5692480000000 1.0
C      1  0.5642320000000  0.5326070000000  0.4669170000000 1.0
C      1  0.4517980000000  0.4737070000000  0.5371700000000 1.0
C      1  0.4953480000000  0.4711890000000  0.4308360000000 1.0
C      1  0.5638600000000  0.4680290000000  0.5329880000000 1.0
END
