TITL C-2782240-8521-785 0.000239673550725038 125000 -525.242130576276 0 0 91 (C1) n - 1
REM
REM in /home/nfs/bkarasulu/CARBON/AIRSS/Generating-Clusters/REBO/Higher-Symm/SD-CG/HFTN-CG
REM
REM
REM
REM
REM
REM ./C.cell (12c818d87b63d06a65506943cc24bca4)
REM
REM compiler GCC version 9.2.1 20190827 (Red Hat 9.2.1-1)
REM options -cpp -mtune=generic -march=x86-64 -g -O0 -fpre-include=/usr/include/finclude/math-vector-fortran.h
REM seed -1408309112 287857300 -1129715687 941751458 -500770226 1678915636 -1946763765 -2002128848 1864229445 898138765 1507105510 -1604954412 -40564912 -170002785 -2050792143 1293250528 938358819 -1669499325 -1087375182 1719798963 -1085011921 -1801013693 1528568762 1869919785 -1168259568 871441905 -207217325 1149622299 624454470 1538061604 361295768 -1033083219 -574426548
REM
CELL 1.54180   50.00000   50.00000   50.00000   90.00000   90.00000   90.00000
LATT -1
SFAC C  
C      1  0.4344700000000  0.5158400000000  0.4725260000000 1.0
C      1  0.4772520000000  0.4415680000000  0.5179850000000 1.0
C      1  0.5154070000000  0.4742150000000  0.4337120000000 1.0
C      1  0.5655130000000  0.4837040000000  0.4722680000000 1.0
C      1  0.5673020000000  0.5132800000000  0.5262090000000 1.0
C      1  0.4354260000000  0.4903440000000  0.5256840000000 1.0
C      1  0.5215460000000  0.5619690000000  0.5197150000000 1.0
C      1  0.5222890000000  0.4417860000000  0.4841200000000 1.0
C      1  0.4771360000000  0.5575890000000  0.4847530000000 1.0
C      1  0.4833530000000  0.5244040000000  0.4335410000000 1.0
C      1  0.4822340000000  0.4776390000000  0.5631550000000 1.0
C      1  0.5108820000000  0.5179100000000  0.5595450000000 1.0
C      1  0.4677060000000  0.4672020000000  0.4363620000000 1.0
C      1  0.4391100000000  0.4721770000000  0.4664440000000 1.0
C      1  0.4647180000000  0.4420560000000  0.4723530000000 1.0
C      1  0.5301840000000  0.5321330000000  0.4356940000000 1.0
C      1  0.5295220000000  0.4666360000000  0.5602710000000 1.0
C      1  0.4670880000000  0.5315330000000  0.5710620000000 1.0
C      1  0.5539520000000  0.5312490000000  0.4678180000000 1.0
C      1  0.5657240000000  0.4681870000000  0.5315940000000 1.0
C      1  0.4321250000000  0.5320030000000  0.5324930000000 1.0
C      1  0.5341960000000  0.5541360000000  0.4738690000000 1.0
C      1  0.5355470000000  0.4421380000000  0.5293250000000 1.0
C      1  0.4616160000000  0.5603820000000  0.5288810000000 1.0
C      1  0.4191420000000  0.5496600000000  0.4871550000000 1.0
C      1  0.4921650000000  0.4254670000000  0.5512690000000 1.0
C      1  0.5488380000000  0.4882810000000  0.4171190000000 1.0
C      1  0.5822360000000  0.4504060000000  0.4864100000000 1.0
C      1  0.5730210000000  0.5489070000000  0.5092650000000 1.0
C      1  0.4232710000000  0.4548660000000  0.5118040000000 1.0
C      1  0.5041150000000  0.5785000000000  0.5515230000000 1.0
C      1  0.5077980000000  0.4228130000000  0.4521330000000 1.0
C      1  0.4931080000000  0.5734880000000  0.4517550000000 1.0
C      1  0.4497980000000  0.5106770000000  0.4168990000000 1.0
C      1  0.4509810000000  0.4884690000000  0.5878090000000 1.0
C      1  0.5464610000000  0.5096540000000  0.5797470000000 1.0
C      1  0.5058160000000  0.4627030000000  0.5461910000000 1.0
C      1  0.5427890000000  0.5048910000000  0.4619960000000 1.0
C      1  0.4591980000000  0.5432540000000  0.5054110000000 1.0
C      1  0.4858010000000  0.5320890000000  0.5432250000000 1.0
C      1  0.4914710000000  0.4640810000000  0.4525500000000 1.0
C      1  0.5073400000000  0.5352260000000  0.4513490000000 1.0
C      1  0.4585960000000  0.4947750000000  0.4637220000000 1.0
C      1  0.4583680000000  0.5129050000000  0.5369110000000 1.0
C      1  0.5485020000000  0.4915910000000  0.5354340000000 1.0
C      1  0.5382480000000  0.4572470000000  0.5048630000000 1.0
C      1  0.5348380000000  0.5398360000000  0.5016020000000 1.0
C      1  0.4621230000000  0.4586830000000  0.4960680000000 1.0
C      1  0.4541230000000  0.4637070000000  0.5681860000000 1.0
C      1  0.5653700000000  0.4549990000000  0.4584100000000 1.0
C      1  0.4631900000000  0.5615280000000  0.4560500000000 1.0
C      1  0.5376690000000  0.5356550000000  0.5636650000000 1.0
C      1  0.5441440000000  0.4600000000000  0.4328370000000 1.0
C      1  0.4547920000000  0.5388460000000  0.4325530000000 1.0
C      1  0.4345630000000  0.5443480000000  0.4586110000000 1.0
C      1  0.4364120000000  0.4608860000000  0.5406600000000 1.0
C      1  0.5581360000000  0.5427350000000  0.5376230000000 1.0
C      1  0.5370300000000  0.4370150000000  0.4562920000000 1.0
C      1  0.5338690000000  0.5642330000000  0.5485940000000 1.0
C      1  0.4630710000000  0.4403290000000  0.5461170000000 1.0
C      1  0.4849580000000  0.5031000000000  0.4579500000000 1.0
C      1  0.4583430000000  0.4858260000000  0.5026630000000 1.0
C      1  0.4985950000000  0.4627280000000  0.4803940000000 1.0
C      1  0.5153570000000  0.4964760000000  0.4570950000000 1.0
C      1  0.5181350000000  0.4988700000000  0.5346600000000 1.0
C      1  0.4843610000000  0.4933860000000  0.5337400000000 1.0
C      1  0.5367890000000  0.5093230000000  0.5011850000000 1.0
C      1  0.5452550000000  0.4835790000000  0.4964110000000 1.0
C      1  0.4547350000000  0.5160330000000  0.4973230000000 1.0
C      1  0.4997820000000  0.5352250000000  0.4814250000000 1.0
C      1  0.4964120000000  0.4685520000000  0.5138570000000 1.0
C      1  0.4975270000000  0.5411600000000  0.5158300000000 1.0
C      1  0.4194480000000  0.5316180000000  0.5079020000000 1.0
C      1  0.5114730000000  0.4259680000000  0.5314960000000 1.0
C      1  0.5302260000000  0.5083720000000  0.4191120000000 1.0
C      1  0.5809960000000  0.4689790000000  0.5067430000000 1.0
C      1  0.5742020000000  0.5304270000000  0.4887930000000 1.0
C      1  0.4230350000000  0.4716470000000  0.4903530000000 1.0
C      1  0.4859100000000  0.5763510000000  0.5307910000000 1.0
C      1  0.4882740000000  0.4251530000000  0.4713770000000 1.0
C      1  0.5120010000000  0.5720350000000  0.4716510000000 1.0
C      1  0.4681660000000  0.4903740000000  0.4190750000000 1.0
C      1  0.4696530000000  0.5085060000000  0.5863310000000 1.0
C      1  0.5292340000000  0.4883900000000  0.5792720000000 1.0
C      1  0.4997640000000  0.4230630000000  0.5014600000000 1.0
C      1  0.4992150000000  0.4991420000000  0.4168550000000 1.0
C      1  0.4176180000000  0.5015050000000  0.4986020000000 1.0
C      1  0.4989630000000  0.5781220000000  0.5008400000000 1.0
C      1  0.4989660000000  0.4977370000000  0.5830720000000 1.0
C      1  0.5812690000000  0.5006930000000  0.4976720000000 1.0
C      1  0.5058290000000  0.5120330000000  0.5056210000000 1.0
END
