TITL C-2782239-8622-46 2.18927644308845e-07 125000 -43.4864179683618 0 0 8 (D(inf)h) n - 1
REM
REM in /home/nfs/bkarasulu/CARBON/AIRSS/Generating-Clusters/REBO/Higher-Symm/SD-CG/HFTN-CG
REM
REM
REM
REM
REM
REM ./C.cell (12c818d87b63d06a65506943cc24bca4)
REM
REM compiler GCC version 9.2.1 20190827 (Red Hat 9.2.1-1)
REM options -cpp -mtune=generic -march=x86-64 -g -O0 -fpre-include=/usr/include/finclude/math-vector-fortran.h
REM seed 1271470789 1424941497 130761215 1342246599 1111176211 -2012882722 -127431747 247317866 -656872729 -802026544 -416980465 1617379925 1484483518 -443069388 602800570 1362206608 47175493 -2112701747 -917886535 -401965384 1079315111 230560934 256670716 -86270083 -1354889585 1896555144 -990621048 442790519 1615279273 1126167927 -714181977 -960758425 -280338989
REM
CELL 1.54180   50.00000   50.00000   50.00000   90.00000   90.00000   90.00000
LATT -1
SFAC C  
C      1  0.4990470000000  0.5006920000000  0.4334230000000 1.0
C      1  0.4990470000000  0.5006920000000  0.5399460000000 1.0
C      1  0.4990470000000  0.5006920000000  0.5665770000000 1.0
C      1  0.4990470000000  0.5006920000000  0.4600540000000 1.0
C      1  0.4990470000000  0.5006920000000  0.5927840000000 1.0
C      1  0.4990470000000  0.5006920000000  0.4072160000000 1.0
C      1  0.4990470000000  0.5006920000000  0.4866850000000 1.0
C      1  0.4990470000000  0.5006920000000  0.5133150000000 1.0
END
