TITL C-2782229-3092-1110 0.00208414143703757 125000 -710.156524675437 0 0 123 (C1) n - 1
REM
REM in /home/nfs/bkarasulu/CARBON/AIRSS/Generating-Clusters/REBO/Higher-Symm/SD-CG/HFTN-CG
REM
REM
REM
REM
REM
REM ./C.cell (12c818d87b63d06a65506943cc24bca4)
REM
REM compiler GCC version 9.2.1 20190827 (Red Hat 9.2.1-1)
REM options -cpp -mtune=generic -march=x86-64 -g -O0 -fpre-include=/usr/include/finclude/math-vector-fortran.h
REM seed -2092073652 -545268041 -1212152567 1752729605 36672650 -341934599 1048054679 1500417449 -1419279805 -260333455 -735863619 -1075175705 -601575500 -1027837330 -1983705078 -1986837424 -447658632 1901130444 -1992135999 -1746425271 -1181140013 -703654370 -1274156967 130778771 -1719471663 346262767 -1177970244 1596969324 1935326235 99408096 -1171375688 645449094 -1469764064
REM
CELL 1.54180   50.00000   50.00000   50.00000   90.00000   90.00000   90.00000
LATT -1
SFAC C  
C      1  0.5165250000000  0.5882400000000  0.5792590000000 1.0
C      1  0.5576830000000  0.4504500000000  0.5917070000000 1.0
C      1  0.4284320000000  0.4765130000000  0.5742560000000 1.0
C      1  0.5103870000000  0.5955380000000  0.4167430000000 1.0
C      1  0.5646310000000  0.4581580000000  0.4263800000000 1.0
C      1  0.4277250000000  0.4783860000000  0.4206130000000 1.0
C      1  0.4885190000000  0.5817250000000  0.5703180000000 1.0
C      1  0.4381770000000  0.4506890000000  0.5764790000000 1.0
C      1  0.5733360000000  0.4707080000000  0.5798940000000 1.0
C      1  0.4840820000000  0.5892430000000  0.4296260000000 1.0
C      1  0.4434440000000  0.4560020000000  0.4135730000000 1.0
C      1  0.5726910000000  0.4775870000000  0.4095280000000 1.0
C      1  0.5657450000000  0.5095390000000  0.4431210000000 1.0
C      1  0.4904220000000  0.4269660000000  0.4414960000000 1.0
C      1  0.4436470000000  0.5509650000000  0.4432490000000 1.0
C      1  0.5660880000000  0.5275410000000  0.5648410000000 1.0
C      1  0.4860910000000  0.4247620000000  0.5714710000000 1.0
C      1  0.4557570000000  0.5348640000000  0.5528720000000 1.0
C      1  0.4318430000000  0.5296180000000  0.4468880000000 1.0
C      1  0.5141870000000  0.4315550000000  0.4359810000000 1.0
C      1  0.5508940000000  0.5317130000000  0.4384220000000 1.0
C      1  0.4428460000000  0.5141730000000  0.5544160000000 1.0
C      1  0.5105970000000  0.4237100000000  0.5766840000000 1.0
C      1  0.5549990000000  0.5481870000000  0.5567740000000 1.0
C      1  0.4683120000000  0.4463640000000  0.4557620000000 1.0
C      1  0.4680440000000  0.5714190000000  0.4538060000000 1.0
C      1  0.5733230000000  0.4863000000000  0.4540830000000 1.0
C      1  0.4512650000000  0.4616320000000  0.5403610000000 1.0
C      1  0.4737500000000  0.5619860000000  0.5468040000000 1.0
C      1  0.5659240000000  0.4746480000000  0.5473540000000 1.0
C      1  0.5560510000000  0.4577240000000  0.4590260000000 1.0
C      1  0.5270920000000  0.5544700000000  0.4472570000000 1.0
C      1  0.4276880000000  0.4959350000000  0.4498020000000 1.0
C      1  0.5378200000000  0.4576020000000  0.5477940000000 1.0
C      1  0.5281110000000  0.5560560000000  0.5392230000000 1.0
C      1  0.4294260000000  0.4860110000000  0.5438540000000 1.0
C      1  0.5453200000000  0.5714010000000  0.5054280000000 1.0
C      1  0.5397360000000  0.4162090000000  0.5238060000000 1.0
C      1  0.4010460000000  0.4987410000000  0.5190050000000 1.0
C      1  0.5498650000000  0.5738050000000  0.4760220000000 1.0
C      1  0.5464080000000  0.4184540000000  0.4944060000000 1.0
C      1  0.4039910000000  0.5004070000000  0.4891490000000 1.0
C      1  0.4465020000000  0.5742480000000  0.5207310000000 1.0
C      1  0.4558810000000  0.4165810000000  0.5165580000000 1.0
C      1  0.5934420000000  0.4998610000000  0.5123680000000 1.0
C      1  0.4504640000000  0.5746970000000  0.4907380000000 1.0
C      1  0.4608260000000  0.4218330000000  0.4871630000000 1.0
C      1  0.5977600000000  0.5034730000000  0.4825670000000 1.0
C      1  0.5332060000000  0.4985170000000  0.4635510000000 1.0
C      1  0.4827350000000  0.4738630000000  0.4657510000000 1.0
C      1  0.4902500000000  0.5262500000000  0.4696280000000 1.0
C      1  0.5234230000000  0.4990710000000  0.5242560000000 1.0
C      1  0.4812060000000  0.4766500000000  0.5402090000000 1.0
C      1  0.4850970000000  0.5298810000000  0.5255210000000 1.0
C      1  0.4696560000000  0.5009430000000  0.4706590000000 1.0
C      1  0.5134080000000  0.4733920000000  0.4711020000000 1.0
C      1  0.5168180000000  0.5255180000000  0.4579240000000 1.0
C      1  0.4688340000000  0.5024570000000  0.5264070000000 1.0
C      1  0.5133390000000  0.4741720000000  0.5362360000000 1.0
C      1  0.5146260000000  0.5278340000000  0.5313470000000 1.0
C      1  0.4617750000000  0.5394030000000  0.4768930000000 1.0
C      1  0.5582400000000  0.5060900000000  0.4850780000000 1.0
C      1  0.4860250000000  0.4522920000000  0.4910780000000 1.0
C      1  0.4579110000000  0.5377440000000  0.5100610000000 1.0
C      1  0.5539470000000  0.5008640000000  0.5161980000000 1.0
C      1  0.4851430000000  0.4491070000000  0.5234060000000 1.0
C      1  0.5431110000000  0.5344400000000  0.4775510000000 1.0
C      1  0.4407570000000  0.5142990000000  0.4826990000000 1.0
C      1  0.5206060000000  0.4468020000000  0.4840530000000 1.0
C      1  0.5408300000000  0.5319810000000  0.5099420000000 1.0
C      1  0.4383920000000  0.5117700000000  0.5148550000000 1.0
C      1  0.5175640000000  0.4481430000000  0.5149950000000 1.0
C      1  0.4446060000000  0.4507960000000  0.4794250000000 1.0
C      1  0.4835780000000  0.5722820000000  0.4826790000000 1.0
C      1  0.5820530000000  0.4737240000000  0.4845580000000 1.0
C      1  0.4428370000000  0.4460600000000  0.5132290000000 1.0
C      1  0.4803870000000  0.5708030000000  0.5167550000000 1.0
C      1  0.5792530000000  0.4704630000000  0.5184560000000 1.0
C      1  0.5618580000000  0.4467350000000  0.4886030000000 1.0
C      1  0.5168510000000  0.5678430000000  0.4772280000000 1.0
C      1  0.4254840000000  0.4779150000000  0.4775670000000 1.0
C      1  0.5566910000000  0.4450950000000  0.5223310000000 1.0
C      1  0.5129120000000  0.5691140000000  0.5115460000000 1.0
C      1  0.4242720000000  0.4746410000000  0.5119200000000 1.0
C      1  0.4850180000000  0.5202390000000  0.5864790000000 1.0
C      1  0.5281510000000  0.4986950000000  0.5778800000000 1.0
C      1  0.4854290000000  0.4734870000000  0.5798290000000 1.0
C      1  0.4884500000000  0.5283900000000  0.4188380000000 1.0
C      1  0.5306150000000  0.5038540000000  0.4142320000000 1.0
C      1  0.4879670000000  0.4790190000000  0.4209290000000 1.0
C      1  0.5145720000000  0.5229110000000  0.5803440000000 1.0
C      1  0.4710510000000  0.4966300000000  0.5882700000000 1.0
C      1  0.5136740000000  0.4745580000000  0.5790170000000 1.0
C      1  0.5176960000000  0.5284630000000  0.4163550000000 1.0
C      1  0.4743890000000  0.5044050000000  0.4186500000000 1.0
C      1  0.5164560000000  0.4800750000000  0.4230360000000 1.0
C      1  0.4803020000000  0.4173460000000  0.5327570000000 1.0
C      1  0.4296830000000  0.5489770000000  0.5261090000000 1.0
C      1  0.5774780000000  0.5242580000000  0.5237820000000 1.0
C      1  0.4909640000000  0.4203680000000  0.4807130000000 1.0
C      1  0.4304680000000  0.5527110000000  0.4808110000000 1.0
C      1  0.5825120000000  0.5281170000000  0.4743180000000 1.0
C      1  0.5103350000000  0.4189280000000  0.5303580000000 1.0
C      1  0.5654150000000  0.5523840000000  0.5188410000000 1.0
C      1  0.4120010000000  0.5244170000000  0.5312270000000 1.0
C      1  0.5211580000000  0.4148640000000  0.4765450000000 1.0
C      1  0.5687330000000  0.5533420000000  0.4664520000000 1.0
C      1  0.4102890000000  0.5291840000000  0.4801950000000 1.0
C      1  0.5118610000000  0.5619720000000  0.4208550000000 1.0
C      1  0.5322610000000  0.4560570000000  0.4346410000000 1.0
C      1  0.4467210000000  0.5031600000000  0.4217700000000 1.0
C      1  0.5183760000000  0.5553090000000  0.5706330000000 1.0
C      1  0.5303100000000  0.4472590000000  0.5766140000000 1.0
C      1  0.4426300000000  0.4948920000000  0.5908880000000 1.0
C      1  0.4784370000000  0.5564810000000  0.4251420000000 1.0
C      1  0.4695350000000  0.4566920000000  0.4252250000000 1.0
C      1  0.5572650000000  0.4999380000000  0.4052320000000 1.0
C      1  0.4849910000000  0.5490810000000  0.5759250000000 1.0
C      1  0.4689960000000  0.4499470000000  0.5673010000000 1.0
C      1  0.5576360000000  0.4987770000000  0.5698590000000 1.0
C      1  0.4957290000000  0.5363960000000  0.4973310000000 1.0
C      1  0.4670920000000  0.4891470000000  0.4990890000000 1.0
C      1  0.5208730000000  0.4956220000000  0.4943310000000 1.0
END
