TITL C-2782236-320-130 -6.14924478516374e-05 125000 -416.230920762009 0 0 71 (Ci) n - 1
REM
REM in /home/nfs/bkarasulu/CARBON/AIRSS/Generating-Clusters/REBO/Higher-Symm/SD-CG/HFTN-CG
REM
REM
REM
REM
REM
REM ./C.cell (12c818d87b63d06a65506943cc24bca4)
REM
REM compiler GCC version 9.2.1 20190827 (Red Hat 9.2.1-1)
REM options -cpp -mtune=generic -march=x86-64 -g -O0 -fpre-include=/usr/include/finclude/math-vector-fortran.h
REM seed 273563797 -2035659679 302216974 -720954542 1800359629 350051563 -639343726 1598217617 -2124704474 -446097046 1358048694 1006198617 -1789035751 -1546614677 -1698231560 -1316455151 449815696 553368673 -1721863365 -1875151349 -2022708385 22453276 -1263940023 -695806540 730767312 -362864489 -1841208665 -709205117 -1819327906 192317776 1157168810 1077196578 1424159480
REM
CELL 1.54180   50.00000   50.00000   50.00000   90.00000   90.00000   90.00000
LATT -1
SFAC C  
C      1  0.4331360000000  0.4601870000000  0.4890720000000 1.0
C      1  0.5671060000000  0.4598060000000  0.5111150000000 1.0
C      1  0.4321210000000  0.5388030000000  0.4900880000000 1.0
C      1  0.5660910000000  0.5384220000000  0.5121310000000 1.0
C      1  0.4985000000000  0.5527020000000  0.4521040000000 1.0
C      1  0.4998140000000  0.5521270000000  0.5493530000000 1.0
C      1  0.4994130000000  0.4464810000000  0.4518500000000 1.0
C      1  0.5007270000000  0.4459070000000  0.5490990000000 1.0
C      1  0.4235620000000  0.4579300000000  0.4618380000000 1.0
C      1  0.5764340000000  0.4577820000000  0.5384440000000 1.0
C      1  0.4227930000000  0.5408260000000  0.4627590000000 1.0
C      1  0.5756660000000  0.5406780000000  0.5393650000000 1.0
C      1  0.4943500000000  0.4735910000000  0.4411220000000 1.0
C      1  0.5055580000000  0.4730580000000  0.5597580000000 1.0
C      1  0.4936690000000  0.5255510000000  0.4414450000000 1.0
C      1  0.5048770000000  0.5250170000000  0.5600810000000 1.0
C      1  0.4711110000000  0.5225540000000  0.4841020000000 1.0
C      1  0.5268520000000  0.5228170000000  0.5192420000000 1.0
C      1  0.4723750000000  0.4757920000000  0.4819610000000 1.0
C      1  0.5281160000000  0.4760540000000  0.5171010000000 1.0
C      1  0.5449860000000  0.5580930000000  0.4720040000000 1.0
C      1  0.4535290000000  0.5604280000000  0.5291340000000 1.0
C      1  0.5456980000000  0.4381810000000  0.4720690000000 1.0
C      1  0.4542410000000  0.4405160000000  0.5291990000000 1.0
C      1  0.5353810000000  0.4848020000000  0.4875070000000 1.0
C      1  0.4650710000000  0.4825300000000  0.5112310000000 1.0
C      1  0.5341560000000  0.5160780000000  0.4899720000000 1.0
C      1  0.4638460000000  0.5138070000000  0.5136960000000 1.0
C      1  0.5232820000000  0.5662810000000  0.4553030000000 1.0
C      1  0.4756620000000  0.5669290000000  0.5460690000000 1.0
C      1  0.5235650000000  0.4316790000000  0.4551340000000 1.0
C      1  0.4759450000000  0.4323270000000  0.5459000000000 1.0
C      1  0.5731750000000  0.4856360000000  0.5004440000000 1.0
C      1  0.4267640000000  0.4858990000000  0.4996860000000 1.0
C      1  0.5724630000000  0.5127100000000  0.5015170000000 1.0
C      1  0.4260520000000  0.5129720000000  0.5007590000000 1.0
C      1  0.4836820000000  0.4452190000000  0.4809440000000 1.0
C      1  0.5167860000000  0.4451500000000  0.5201080000000 1.0
C      1  0.4824420000000  0.5534580000000  0.4810950000000 1.0
C      1  0.5155450000000  0.5533890000000  0.5202590000000 1.0
C      1  0.5326320000000  0.5141000000000  0.5487320000000 1.0
C      1  0.4664940000000  0.5148130000000  0.4532780000000 1.0
C      1  0.5327330000000  0.4837960000000  0.5479250000000 1.0
C      1  0.4665950000000  0.4845090000000  0.4524710000000 1.0
C      1  0.4546570000000  0.5550400000000  0.5004910000000 1.0
C      1  0.5435900000000  0.5541070000000  0.5009540000000 1.0
C      1  0.4556370000000  0.4445020000000  0.5002490000000 1.0
C      1  0.5445700000000  0.4435690000000  0.5007120000000 1.0
C      1  0.5568210000000  0.5268250000000  0.5606090000000 1.0
C      1  0.4421550000000  0.5275870000000  0.4415870000000 1.0
C      1  0.5570720000000  0.4710210000000  0.5596160000000 1.0
C      1  0.4424060000000  0.4717840000000  0.4405940000000 1.0
C      1  0.4410610000000  0.5159470000000  0.5376280000000 1.0
C      1  0.5547990000000  0.5120130000000  0.4657720000000 1.0
C      1  0.4444280000000  0.4865960000000  0.5354310000000 1.0
C      1  0.5581660000000  0.4826610000000  0.4635750000000 1.0
C      1  0.4371100000000  0.4599720000000  0.5422020000000 1.0
C      1  0.5642520000000  0.4558350000000  0.4588620000000 1.0
C      1  0.4349750000000  0.5427730000000  0.5423410000000 1.0
C      1  0.5621170000000  0.5386360000000  0.4590010000000 1.0
C      1  0.5858860000000  0.4849810000000  0.5556690000000 1.0
C      1  0.4134900000000  0.4852830000000  0.4451420000000 1.0
C      1  0.5857370000000  0.5133250000000  0.5560610000000 1.0
C      1  0.4133410000000  0.5136270000000  0.4455340000000 1.0
C      1  0.4930730000000  0.5270280000000  0.5194500000000 1.0
C      1  0.5049000000000  0.5272330000000  0.4817610000000 1.0
C      1  0.4943270000000  0.4713760000000  0.5194420000000 1.0
C      1  0.5061550000000  0.4715810000000  0.4817530000000 1.0
C      1  0.4923950000000  0.4987080000000  0.5678430000000 1.0
C      1  0.5068320000000  0.4999000000000  0.4333600000000 1.0
C      1  0.4996140000000  0.4993040000000  0.5006020000000 1.0
END
