TITL C-2782232-2968-802 0.000691393514499512 125000 -838.969698884864 0 0 145 (C1) n - 1
REM
REM in /home/nfs/bkarasulu/CARBON/AIRSS/Generating-Clusters/REBO/Higher-Symm/SD-CG/HFTN-CG
REM
REM
REM
REM
REM
REM ./C.cell (12c818d87b63d06a65506943cc24bca4)
REM
REM compiler GCC version 9.2.1 20190827 (Red Hat 9.2.1-1)
REM options -cpp -mtune=generic -march=x86-64 -g -O0 -fpre-include=/usr/include/finclude/math-vector-fortran.h
REM seed 1243912731 -190718114 742746100 -1559886524 -130029145 -920000853 386017878 2048721133 516236146 1968593465 571061784 -120012530 468131890 1065776462 -1687000464 1625437268 -1226022930 485112558 -1757157599 -4854425 1098765463 640743294 1538122998 -1888156090 516623540 -291711245 1160291000 1544272376 -561777309 99641246 -1634008502 -110091045 526361782
REM
CELL 1.54180   50.00000   50.00000   50.00000   90.00000   90.00000   90.00000
LATT -1
SFAC C  
C      1  0.4320280000000  0.5803190000000  0.4898240000000 1.0
C      1  0.5248930000000  0.5999450000000  0.4897170000000 1.0
C      1  0.5970820000000  0.5277490000000  0.4852200000000 1.0
C      1  0.5745050000000  0.4224760000000  0.4872450000000 1.0
C      1  0.4694480000000  0.4012960000000  0.4885320000000 1.0
C      1  0.3965930000000  0.4817780000000  0.4812580000000 1.0
C      1  0.4267480000000  0.5846380000000  0.5204240000000 1.0
C      1  0.5256700000000  0.5997180000000  0.5210930000000 1.0
C      1  0.6011120000000  0.5237370000000  0.5169140000000 1.0
C      1  0.5699980000000  0.4226840000000  0.5189400000000 1.0
C      1  0.4655880000000  0.4004090000000  0.5195190000000 1.0
C      1  0.3989770000000  0.4797580000000  0.5124470000000 1.0
C      1  0.4993080000000  0.4610950000000  0.5139310000000 1.0
C      1  0.4702370000000  0.4737560000000  0.5122490000000 1.0
C      1  0.4702700000000  0.5247090000000  0.5151330000000 1.0
C      1  0.4952390000000  0.5425300000000  0.5110980000000 1.0
C      1  0.5353220000000  0.5205200000000  0.5170480000000 1.0
C      1  0.5426240000000  0.4818580000000  0.5106560000000 1.0
C      1  0.5094770000000  0.4591670000000  0.4845340000000 1.0
C      1  0.4678370000000  0.4854720000000  0.4836780000000 1.0
C      1  0.4623200000000  0.5160620000000  0.4862920000000 1.0
C      1  0.5081630000000  0.5284030000000  0.4889340000000 1.0
C      1  0.5422030000000  0.5263960000000  0.4851740000000 1.0
C      1  0.5380320000000  0.4732130000000  0.4792540000000 1.0
C      1  0.5874380000000  0.5541960000000  0.5132210000000 1.0
C      1  0.5909940000000  0.4471790000000  0.5137070000000 1.0
C      1  0.4976690000000  0.3923890000000  0.5152720000000 1.0
C      1  0.4035730000000  0.4491890000000  0.5196010000000 1.0
C      1  0.4079190000000  0.5585230000000  0.5128870000000 1.0
C      1  0.4975080000000  0.6119360000000  0.5303210000000 1.0
C      1  0.5850620000000  0.5576350000000  0.4808720000000 1.0
C      1  0.5918780000000  0.4486970000000  0.4807020000000 1.0
C      1  0.4989870000000  0.3915380000000  0.4824060000000 1.0
C      1  0.4045740000000  0.4496050000000  0.4869890000000 1.0
C      1  0.4098230000000  0.5595210000000  0.4801970000000 1.0
C      1  0.4954610000000  0.6081890000000  0.4965770000000 1.0
C      1  0.4819850000000  0.4393920000000  0.5282280000000 1.0
C      1  0.4593830000000  0.4906990000000  0.5327510000000 1.0
C      1  0.4594670000000  0.5518840000000  0.5258780000000 1.0
C      1  0.5112040000000  0.5457790000000  0.5360500000000 1.0
C      1  0.5593510000000  0.5123120000000  0.5303960000000 1.0
C      1  0.5337060000000  0.4657480000000  0.5331330000000 1.0
C      1  0.4884840000000  0.4569890000000  0.4651670000000 1.0
C      1  0.4389750000000  0.4870750000000  0.4721130000000 1.0
C      1  0.4740010000000  0.5324270000000  0.4647890000000 1.0
C      1  0.5148740000000  0.5416830000000  0.4607110000000 1.0
C      1  0.5511940000000  0.5080990000000  0.4654240000000 1.0
C      1  0.5446050000000  0.4513140000000  0.4565990000000 1.0
C      1  0.4451250000000  0.5280220000000  0.4378460000000 1.0
C      1  0.4903510000000  0.5603290000000  0.4352770000000 1.0
C      1  0.5480470000000  0.5368180000000  0.4363980000000 1.0
C      1  0.5566630000000  0.4784360000000  0.4386970000000 1.0
C      1  0.5007300000000  0.4316960000000  0.4369980000000 1.0
C      1  0.4492090000000  0.4667150000000  0.4392720000000 1.0
C      1  0.4474120000000  0.5289390000000  0.5590490000000 1.0
C      1  0.4948330000000  0.5624420000000  0.5681550000000 1.0
C      1  0.5506650000000  0.5315600000000  0.5642980000000 1.0
C      1  0.5580100000000  0.4713510000000  0.5639140000000 1.0
C      1  0.5024410000000  0.4396460000000  0.5624980000000 1.0
C      1  0.4468550000000  0.4664160000000  0.5617680000000 1.0
C      1  0.5303630000000  0.5887310000000  0.4580320000000 1.0
C      1  0.5940830000000  0.5104940000000  0.4622770000000 1.0
C      1  0.5581400000000  0.4122750000000  0.4651820000000 1.0
C      1  0.4564120000000  0.4159530000000  0.4671900000000 1.0
C      1  0.4033260000000  0.4995320000000  0.4598520000000 1.0
C      1  0.4532910000000  0.5829580000000  0.4712050000000 1.0
C      1  0.5380440000000  0.5820550000000  0.5405590000000 1.0
C      1  0.5973980000000  0.5056550000000  0.5398800000000 1.0
C      1  0.5504480000000  0.4208480000000  0.5396130000000 1.0
C      1  0.4527710000000  0.4153340000000  0.5401330000000 1.0
C      1  0.4069950000000  0.4976620000000  0.5337960000000 1.0
C      1  0.4453270000000  0.5853040000000  0.5418780000000 1.0
C      1  0.5298450000000  0.5080230000000  0.4388240000000 1.0
C      1  0.5257720000000  0.4790640000000  0.4261430000000 1.0
C      1  0.4994530000000  0.4657150000000  0.4353890000000 1.0
C      1  0.4741840000000  0.4832090000000  0.4268740000000 1.0
C      1  0.4752780000000  0.5120940000000  0.4380350000000 1.0
C      1  0.5035390000000  0.5287980000000  0.4308310000000 1.0
C      1  0.5254760000000  0.5137620000000  0.5728350000000 1.0
C      1  0.5262310000000  0.4835940000000  0.5613910000000 1.0
C      1  0.4997730000000  0.4700060000000  0.5720150000000 1.0
C      1  0.4747400000000  0.4854500000000  0.5616380000000 1.0
C      1  0.4737800000000  0.5149360000000  0.5716270000000 1.0
C      1  0.5000120000000  0.5292460000000  0.5629100000000 1.0
C      1  0.4084320000000  0.5276990000000  0.5241560000000 1.0
C      1  0.4733640000000  0.5898750000000  0.5292900000000 1.0
C      1  0.5606140000000  0.5654700000000  0.5269390000000 1.0
C      1  0.5958960000000  0.4763140000000  0.5269970000000 1.0
C      1  0.5239910000000  0.4083100000000  0.5277400000000 1.0
C      1  0.4300250000000  0.4326650000000  0.5273170000000 1.0
C      1  0.4074000000000  0.5285130000000  0.4716930000000 1.0
C      1  0.4774670000000  0.5989900000000  0.4759540000000 1.0
C      1  0.5577030000000  0.5752180000000  0.4712780000000 1.0
C      1  0.5993240000000  0.4796860000000  0.4687490000000 1.0
C      1  0.5288770000000  0.4028220000000  0.4772520000000 1.0
C      1  0.4312780000000  0.4329560000000  0.4766380000000 1.0
C      1  0.4220620000000  0.5483120000000  0.4504540000000 1.0
C      1  0.4984470000000  0.5841910000000  0.4565520000000 1.0
C      1  0.5711680000000  0.5541710000000  0.4500070000000 1.0
C      1  0.5811320000000  0.4594950000000  0.4502400000000 1.0
C      1  0.5077440000000  0.4023210000000  0.4513350000000 1.0
C      1  0.4242710000000  0.4610650000000  0.4613300000000 1.0
C      1  0.4299550000000  0.5486420000000  0.5374480000000 1.0
C      1  0.4915950000000  0.5912870000000  0.5565110000000 1.0
C      1  0.5739250000000  0.5394860000000  0.5413470000000 1.0
C      1  0.5788540000000  0.4550430000000  0.5450530000000 1.0
C      1  0.4956780000000  0.4140500000000  0.5419150000000 1.0
C      1  0.4201120000000  0.4548390000000  0.5489400000000 1.0
C      1  0.5688930000000  0.4860810000000  0.4810440000000 1.0
C      1  0.5312470000000  0.4343150000000  0.4838060000000 1.0
C      1  0.4585030000000  0.4532310000000  0.4803430000000 1.0
C      1  0.4283300000000  0.5122640000000  0.4882230000000 1.0
C      1  0.4856740000000  0.5603010000000  0.4767610000000 1.0
C      1  0.5339430000000  0.5583900000000  0.4833950000000 1.0
C      1  0.5732170000000  0.4920270000000  0.5114280000000 1.0
C      1  0.5249670000000  0.4387710000000  0.5149770000000 1.0
C      1  0.4550410000000  0.4428580000000  0.5112840000000 1.0
C      1  0.4394760000000  0.5145580000000  0.5188500000000 1.0
C      1  0.4779070000000  0.5700770000000  0.5055850000000 1.0
C      1  0.5340880000000  0.5529660000000  0.5137010000000 1.0
C      1  0.4622550000000  0.5600660000000  0.5579810000000 1.0
C      1  0.5283150000000  0.5574100000000  0.5620660000000 1.0
C      1  0.5697880000000  0.5031970000000  0.5600880000000 1.0
C      1  0.5361270000000  0.4449360000000  0.5589570000000 1.0
C      1  0.4681170000000  0.4399020000000  0.5584190000000 1.0
C      1  0.4341000000000  0.4976160000000  0.5544020000000 1.0
C      1  0.4585400000000  0.5584920000000  0.4478560000000 1.0
C      1  0.5250110000000  0.5621340000000  0.4368950000000 1.0
C      1  0.5696470000000  0.5100620000000  0.4385320000000 1.0
C      1  0.5333800000000  0.4238250000000  0.4440070000000 1.0
C      1  0.4681900000000  0.4386470000000  0.4446980000000 1.0
C      1  0.4321220000000  0.4967010000000  0.4415370000000 1.0
C      1  0.5222630000000  0.4852110000000  0.6128500000000 1.0
C      1  0.4986350000000  0.4718880000000  0.6029560000000 1.0
C      1  0.4745370000000  0.4858010000000  0.6112150000000 1.0
C      1  0.4748080000000  0.5135530000000  0.6026470000000 1.0
C      1  0.4988460000000  0.5267950000000  0.6121890000000 1.0
C      1  0.5227880000000  0.5126310000000  0.6038430000000 1.0
C      1  0.5240880000000  0.4825070000000  0.3956190000000 1.0
C      1  0.4990530000000  0.4716100000000  0.3858470000000 1.0
C      1  0.4763240000000  0.4864990000000  0.3960190000000 1.0
C      1  0.4789230000000  0.5146710000000  0.3893690000000 1.0
C      1  0.5040040000000  0.5260520000000  0.3987040000000 1.0
C      1  0.5265470000000  0.5106510000000  0.3891890000000 1.0
C      1  0.5169110000000  0.4986820000000  0.4984050000000 1.0
END
