TITL C-2782234-8014-1494 -0.00121656361135141 125000 -296.6088422973 0 0 54 (D6) n - 1
REM
REM in /home/nfs/bkarasulu/CARBON/AIRSS/Generating-Clusters/REBO/Higher-Symm/SD-CG/HFTN-CG
REM
REM
REM
REM
REM
REM ./C.cell (12c818d87b63d06a65506943cc24bca4)
REM
REM compiler GCC version 9.2.1 20190827 (Red Hat 9.2.1-1)
REM options -cpp -mtune=generic -march=x86-64 -g -O0 -fpre-include=/usr/include/finclude/math-vector-fortran.h
REM seed 2010547405 -598871008 -1627779423 2082641736 635614495 -572058094 1928493805 1625327393 1646122805 214113536 -226408109 -453339817 -163328289 -517879474 2015633142 -911513369 -1039835317 251332055 1751095454 -1289243094 2009134751 -1592601796 102335523 -1098692943 -1138456015 1739997283 1414737759 -1838369806 -766827061 1453676020 -1234589714 -2001845665 -1887351524
REM
CELL 1.54180   50.00000   50.00000   50.00000   90.00000   90.00000   90.00000
LATT -1
SFAC C  
C      1  0.5274020000000  0.4797960000000  0.4817940000000 1.0
C      1  0.4979350000000  0.4797940000000  0.4671670000000 1.0
C      1  0.4705350000000  0.4797920000000  0.4853730000000 1.0
C      1  0.4726010000000  0.4797910000000  0.5182050000000 1.0
C      1  0.5020670000000  0.4797920000000  0.5328310000000 1.0
C      1  0.5294680000000  0.4797950000000  0.5146260000000 1.0
C      1  0.5274000000000  0.5226020000000  0.5182040000000 1.0
C      1  0.4979340000000  0.5225990000000  0.5328330000000 1.0
C      1  0.4705330000000  0.5225980000000  0.5146290000000 1.0
C      1  0.4725970000000  0.5225990000000  0.4817970000000 1.0
C      1  0.5020630000000  0.5226020000000  0.4671690000000 1.0
C      1  0.5294640000000  0.5226030000000  0.4853720000000 1.0
C      1  0.4711750000000  0.5602700000000  0.5012520000000 1.0
C      1  0.4866680000000  0.5602700000000  0.5255870000000 1.0
C      1  0.5154900000000  0.5602720000000  0.5243370000000 1.0
C      1  0.5288180000000  0.5602740000000  0.4987510000000 1.0
C      1  0.5133240000000  0.5602730000000  0.4744160000000 1.0
C      1  0.4845030000000  0.5602720000000  0.4756670000000 1.0
C      1  0.4711820000000  0.4421200000000  0.4987500000000 1.0
C      1  0.4866740000000  0.4421220000000  0.4744140000000 1.0
C      1  0.5154960000000  0.4421240000000  0.4756620000000 1.0
C      1  0.5288250000000  0.4421240000000  0.5012470000000 1.0
C      1  0.5133330000000  0.4421220000000  0.5255830000000 1.0
C      1  0.4845110000000  0.4421200000000  0.5243340000000 1.0
C      1  0.5383960000000  0.4902870000000  0.5456170000000 1.0
C      1  0.5587040000000  0.4902900000000  0.4895570000000 1.0
C      1  0.5203090000000  0.4902890000000  0.4439400000000 1.0
C      1  0.4616050000000  0.4902850000000  0.4543820000000 1.0
C      1  0.4412970000000  0.4902820000000  0.5104420000000 1.0
C      1  0.4796920000000  0.4902830000000  0.5560600000000 1.0
C      1  0.5383920000000  0.5121110000000  0.4543810000000 1.0
C      1  0.5587030000000  0.5121110000000  0.5104400000000 1.0
C      1  0.5203110000000  0.5121070000000  0.5560590000000 1.0
C      1  0.4616070000000  0.5121040000000  0.5456200000000 1.0
C      1  0.4412950000000  0.5121040000000  0.4895610000000 1.0
C      1  0.4796880000000  0.5121080000000  0.4439410000000 1.0
C      1  0.4458250000000  0.5431740000000  0.5026060000000 1.0
C      1  0.4751670000000  0.5431750000000  0.5482180000000 1.0
C      1  0.5293390000000  0.5431780000000  0.5456140000000 1.0
C      1  0.5541700000000  0.5431810000000  0.4973970000000 1.0
C      1  0.5248280000000  0.5431810000000  0.4517840000000 1.0
C      1  0.4706550000000  0.5431770000000  0.4543890000000 1.0
C      1  0.4458300000000  0.4592130000000  0.4973970000000 1.0
C      1  0.4751690000000  0.4592160000000  0.4517830000000 1.0
C      1  0.5293420000000  0.4592190000000  0.4543850000000 1.0
C      1  0.5541750000000  0.4592190000000  0.5026000000000 1.0
C      1  0.5248360000000  0.4592160000000  0.5482140000000 1.0
C      1  0.4706630000000  0.4592130000000  0.5456130000000 1.0
C      1  0.4999980000000  0.5011990000000  0.4212920000000 1.0
C      1  0.5000020000000  0.5011950000000  0.5787080000000 1.0
C      1  0.4318380000000  0.5011910000000  0.5393560000000 1.0
C      1  0.5681640000000  0.5012000000000  0.5393520000000 1.0
C      1  0.5681620000000  0.5012020000000  0.4606440000000 1.0
C      1  0.4318360000000  0.5011940000000  0.4606480000000 1.0
END
