TITL C-2782232-2968-969 1.32342879900076e-07 125000 -115.256532850917 0 0 21 (C3) n - 1
REM
REM in /home/nfs/bkarasulu/CARBON/AIRSS/Generating-Clusters/REBO/Higher-Symm/SD-CG/HFTN-CG
REM
REM
REM
REM
REM
REM ./C.cell (12c818d87b63d06a65506943cc24bca4)
REM
REM compiler GCC version 9.2.1 20190827 (Red Hat 9.2.1-1)
REM options -cpp -mtune=generic -march=x86-64 -g -O0 -fpre-include=/usr/include/finclude/math-vector-fortran.h
REM seed 507958944 -1015227795 831999116 -533531448 1019430616 1853004407 -1584371712 -1162266202 25171632 892915142 905851041 1801203205 -1550804314 -1708010909 565278157 105614229 1945644318 1025646139 1524524945 -1800715701 -1290836418 -1233842697 -978240974 776106432 -1974646333 -622796757 1208589162 -738999635 -1531931994 580248525 631587861 -1780636712 -1851617574
REM
CELL 1.54180   50.00000   50.00000   50.00000   90.00000   90.00000   90.00000
LATT -1
SFAC C  
C      1  0.5110940000000  0.4522110000000  0.5064170000000 1.0
C      1  0.5113300000000  0.5184700000000  0.4555190000000 1.0
C      1  0.5105860000000  0.5294190000000  0.5383470000000 1.0
C      1  0.4989090000000  0.4564200000000  0.4814160000000 1.0
C      1  0.4987470000000  0.5378690000000  0.4715370000000 1.0
C      1  0.4981970000000  0.5056990000000  0.5470110000000 1.0
C      1  0.5180750000000  0.4583500000000  0.5320560000000 1.0
C      1  0.5186900000000  0.4932820000000  0.4480910000000 1.0
C      1  0.5179030000000  0.5485330000000  0.5203220000000 1.0
C      1  0.4709120000000  0.5023710000000  0.5404370000000 1.0
C      1  0.4715350000000  0.4634510000000  0.4815410000000 1.0
C      1  0.4713580000000  0.5339180000000  0.4772830000000 1.0
C      1  0.5136350000000  0.4829990000000  0.5532180000000 1.0
C      1  0.5145070000000  0.4625800000000  0.4588140000000 1.0
C      1  0.5139760000000  0.5545490000000  0.4883300000000 1.0
C      1  0.4544350000000  0.5007060000000  0.5182890000000 1.0
C      1  0.4547220000000  0.4832640000000  0.4910020000000 1.0
C      1  0.4546360000000  0.5156170000000  0.4895400000000 1.0
C      1  0.5329260000000  0.4687020000000  0.4327270000000 1.0
C      1  0.5319700000000  0.5742970000000  0.5068610000000 1.0
C      1  0.5318580000000  0.4572930000000  0.5612410000000 1.0
END
