TITL C-2782236-320-606 0.0058652952663419 125000 -1146.41042343826 0 0 190 (C1) n - 1
REM
REM in /home/nfs/bkarasulu/CARBON/AIRSS/Generating-Clusters/REBO/Higher-Symm/SD-CG/HFTN-CG
REM
REM
REM
REM
REM
REM ./C.cell (12c818d87b63d06a65506943cc24bca4)
REM
REM compiler GCC version 9.2.1 20190827 (Red Hat 9.2.1-1)
REM options -cpp -mtune=generic -march=x86-64 -g -O0 -fpre-include=/usr/include/finclude/math-vector-fortran.h
REM seed -1783701569 1229856635 991656242 1015677964 1333079148 1380626184 1729244361 -1001098531 1280166268 1158997668 -41138379 -2044690981 -151183429 -969204930 -1321700301 -1614810158 -440947071 1107106195 1733308093 -888435670 12304376 -1415760654 1727826595 1249913147 1219002876 -37291782 626945917 -988801329 670064040 -2063646528 407090080 -1774690814 831598344
REM
CELL 1.54180   50.00000   50.00000   50.00000   90.00000   90.00000   90.00000
LATT -1
SFAC C  
C      1  0.5026880000000  0.4936650000000  0.5443040000000 1.0
C      1  0.4571230000000  0.4829970000000  0.4815960000000 1.0
C      1  0.5283330000000  0.4824390000000  0.4856610000000 1.0
C      1  0.4891570000000  0.5219950000000  0.5442540000000 1.0
C      1  0.4619220000000  0.5154910000000  0.4763080000000 1.0
C      1  0.5356220000000  0.5089600000000  0.4711590000000 1.0
C      1  0.4745810000000  0.4759290000000  0.5365070000000 1.0
C      1  0.4828400000000  0.4866010000000  0.4589530000000 1.0
C      1  0.5371290000000  0.4827260000000  0.5149120000000 1.0
C      1  0.4611640000000  0.5273350000000  0.5468330000000 1.0
C      1  0.4840060000000  0.5192310000000  0.4512490000000 1.0
C      1  0.5438290000000  0.5142070000000  0.5040630000000 1.0
C      1  0.4790550000000  0.5984060000000  0.4578680000000 1.0
C      1  0.5395290000000  0.6073080000000  0.5016180000000 1.0
C      1  0.4752830000000  0.6076340000000  0.5395620000000 1.0
C      1  0.4640710000000  0.3789760000000  0.4623290000000 1.0
C      1  0.5401500000000  0.3906920000000  0.5053660000000 1.0
C      1  0.4745520000000  0.3999880000000  0.5281580000000 1.0
C      1  0.4520990000000  0.6033260000000  0.4710550000000 1.0
C      1  0.5561660000000  0.5983390000000  0.4764730000000 1.0
C      1  0.4949510000000  0.5909670000000  0.5568010000000 1.0
C      1  0.4383130000000  0.3958510000000  0.4683220000000 1.0
C      1  0.5455620000000  0.4037750000000  0.4766330000000 1.0
C      1  0.4920510000000  0.4080140000000  0.5533610000000 1.0
C      1  0.4617220000000  0.4544140000000  0.5584830000000 1.0
C      1  0.4535820000000  0.4293590000000  0.4344140000000 1.0
C      1  0.5665590000000  0.4426330000000  0.5073260000000 1.0
C      1  0.4591000000000  0.5500430000000  0.5655450000000 1.0
C      1  0.4705840000000  0.5481970000000  0.4462840000000 1.0
C      1  0.5885360000000  0.5731720000000  0.4952230000000 1.0
C      1  0.4292230000000  0.4616370000000  0.5654060000000 1.0
C      1  0.4862360000000  0.4650380000000  0.3925700000000 1.0
C      1  0.5906570000000  0.4756340000000  0.5390210000000 1.0
C      1  0.4138350000000  0.5239190000000  0.5659530000000 1.0
C      1  0.4874530000000  0.5293670000000  0.3949540000000 1.0
C      1  0.6025030000000  0.5405660000000  0.5495240000000 1.0
C      1  0.4988020000000  0.4465330000000  0.5963380000000 1.0
C      1  0.4084560000000  0.4466840000000  0.4429380000000 1.0
C      1  0.5805750000000  0.4496910000000  0.4599030000000 1.0
C      1  0.4974130000000  0.5466340000000  0.5974080000000 1.0
C      1  0.4213890000000  0.5503890000000  0.4520110000000 1.0
C      1  0.5919310000000  0.5579100000000  0.4485520000000 1.0
C      1  0.4734370000000  0.4367010000000  0.5125410000000 1.0
C      1  0.4907650000000  0.4391280000000  0.4713190000000 1.0
C      1  0.5253120000000  0.4305440000000  0.5111330000000 1.0
C      1  0.4755780000000  0.5785430000000  0.5058710000000 1.0
C      1  0.4998820000000  0.5668230000000  0.4764000000000 1.0
C      1  0.5204620000000  0.5708600000000  0.5012560000000 1.0
C      1  0.4787550000000  0.3729620000000  0.4851990000000 1.0
C      1  0.5162380000000  0.3801460000000  0.5140960000000 1.0
C      1  0.4882540000000  0.3824380000000  0.5100600000000 1.0
C      1  0.4882130000000  0.6031420000000  0.4878810000000 1.0
C      1  0.5143320000000  0.6161650000000  0.5034540000000 1.0
C      1  0.4854390000000  0.6193360000000  0.5171180000000 1.0
C      1  0.4740190000000  0.4567570000000  0.5869690000000 1.0
C      1  0.4313370000000  0.4477340000000  0.4249540000000 1.0
C      1  0.5829460000000  0.4576160000000  0.4883560000000 1.0
C      1  0.4693710000000  0.5435370000000  0.5924330000000 1.0
C      1  0.4429530000000  0.5427920000000  0.4347630000000 1.0
C      1  0.5994600000000  0.5560480000000  0.4761890000000 1.0
C      1  0.5205760000000  0.5737040000000  0.4330230000000 1.0
C      1  0.5472390000000  0.5780740000000  0.5509960000000 1.0
C      1  0.4483990000000  0.5818750000000  0.5224070000000 1.0
C      1  0.5230250000000  0.4113940000000  0.4322040000000 1.0
C      1  0.5375020000000  0.4199360000000  0.5410830000000 1.0
C      1  0.4428790000000  0.4322870000000  0.5096280000000 1.0
C      1  0.3984390000000  0.5590660000000  0.4958030000000 1.0
C      1  0.5661960000000  0.5629490000000  0.4099510000000 1.0
C      1  0.5449190000000  0.5503360000000  0.5880850000000 1.0
C      1  0.3857520000000  0.4370470000000  0.4866750000000 1.0
C      1  0.5606240000000  0.4425480000000  0.4175180000000 1.0
C      1  0.5451780000000  0.4367330000000  0.5940090000000 1.0
C      1  0.3975440000000  0.4636560000000  0.5262330000000 1.0
C      1  0.5329480000000  0.4862250000000  0.3994220000000 1.0
C      1  0.5716540000000  0.4837640000000  0.5813200000000 1.0
C      1  0.3888480000000  0.5133720000000  0.5245390000000 1.0
C      1  0.5366210000000  0.5166520000000  0.3958420000000 1.0
C      1  0.5732870000000  0.5132540000000  0.5840810000000 1.0
C      1  0.4344040000000  0.5218620000000  0.4179010000000 1.0
C      1  0.6108770000000  0.5307100000000  0.4815910000000 1.0
C      1  0.4612380000000  0.5230160000000  0.6108630000000 1.0
C      1  0.4281090000000  0.4739490000000  0.4125060000000 1.0
C      1  0.5995270000000  0.4818000000000  0.4897550000000 1.0
C      1  0.4638900000000  0.4759990000000  0.6047190000000 1.0
C      1  0.3624090000000  0.4660180000000  0.4380820000000 1.0
C      1  0.6142520000000  0.4591320000000  0.4238750000000 1.0
C      1  0.5157380000000  0.4520980000000  0.6437440000000 1.0
C      1  0.3718510000000  0.5441100000000  0.4430540000000 1.0
C      1  0.6210780000000  0.5363990000000  0.4133760000000 1.0
C      1  0.5164510000000  0.5443460000000  0.6443400000000 1.0
C      1  0.4665190000000  0.4807570000000  0.3807420000000 1.0
C      1  0.6120670000000  0.4915110000000  0.5311840000000 1.0
C      1  0.4236970000000  0.4770210000000  0.5904820000000 1.0
C      1  0.4689470000000  0.5125880000000  0.3831290000000 1.0
C      1  0.6187730000000  0.5237030000000  0.5338460000000 1.0
C      1  0.4159380000000  0.5090750000000  0.5891760000000 1.0
C      1  0.4132640000000  0.5055740000000  0.5421520000000 1.0
C      1  0.5080110000000  0.5146440000000  0.4116490000000 1.0
C      1  0.5784320000000  0.5250470000000  0.5553460000000 1.0
C      1  0.4124570000000  0.4760930000000  0.5452000000000 1.0
C      1  0.5029520000000  0.4823400000000  0.4096430000000 1.0
C      1  0.5676150000000  0.4931350000000  0.5501740000000 1.0
C      1  0.5307300000000  0.4631130000000  0.4427090000000 1.0
C      1  0.5395640000000  0.4554370000000  0.5591490000000 1.0
C      1  0.4306250000000  0.4631690000000  0.5037960000000 1.0
C      1  0.5354720000000  0.5450760000000  0.4335420000000 1.0
C      1  0.5495780000000  0.5602220000000  0.5262580000000 1.0
C      1  0.4285610000000  0.5355440000000  0.5073540000000 1.0
C      1  0.5190130000000  0.4288390000000  0.5863590000000 1.0
C      1  0.4144460000000  0.4382660000000  0.4709730000000 1.0
C      1  0.5646260000000  0.4320830000000  0.4438460000000 1.0
C      1  0.5167700000000  0.5534890000000  0.5760600000000 1.0
C      1  0.4241780000000  0.5652860000000  0.4798510000000 1.0
C      1  0.5725530000000  0.5730980000000  0.4347910000000 1.0
C      1  0.5431460000000  0.4560820000000  0.5250140000000 1.0
C      1  0.4827330000000  0.4658900000000  0.5065630000000 1.0
C      1  0.4993240000000  0.4703590000000  0.4814670000000 1.0
C      1  0.5260500000000  0.5410130000000  0.5129060000000 1.0
C      1  0.5044910000000  0.5204630000000  0.5014740000000 1.0
C      1  0.5080300000000  0.5364510000000  0.4776050000000 1.0
C      1  0.4837270000000  0.5123500000000  0.6252530000000 1.0
C      1  0.4078850000000  0.5142850000000  0.4253530000000 1.0
C      1  0.6125220000000  0.5157750000000  0.4578150000000 1.0
C      1  0.4844470000000  0.4843460000000  0.6227960000000 1.0
C      1  0.4044790000000  0.4869290000000  0.4225200000000 1.0
C      1  0.6079520000000  0.4888760000000  0.4624590000000 1.0
C      1  0.5161090000000  0.5192300000000  0.4446050000000 1.0
C      1  0.5564800000000  0.5275160000000  0.5333850000000 1.0
C      1  0.4400500000000  0.5134330000000  0.5275380000000 1.0
C      1  0.5039060000000  0.4726780000000  0.4379940000000 1.0
C      1  0.5357700000000  0.5013310000000  0.5408520000000 1.0
C      1  0.4506430000000  0.4870960000000  0.5150290000000 1.0
C      1  0.5093930000000  0.5290310000000  0.6217570000000 1.0
C      1  0.3959940000000  0.5309440000000  0.4487720000000 1.0
C      1  0.6018840000000  0.5313490000000  0.4333480000000 1.0
C      1  0.5087750000000  0.4657870000000  0.6201930000000 1.0
C      1  0.3893230000000  0.4714840000000  0.4439420000000 1.0
C      1  0.5956890000000  0.4710200000000  0.4414520000000 1.0
C      1  0.4273380000000  0.4306570000000  0.5581370000000 1.0
C      1  0.4918390000000  0.4377440000000  0.3972430000000 1.0
C      1  0.5868730000000  0.4475410000000  0.5420210000000 1.0
C      1  0.4203920000000  0.5498780000000  0.5555540000000 1.0
C      1  0.4913350000000  0.5569190000000  0.3927270000000 1.0
C      1  0.5977610000000  0.5677850000000  0.5567470000000 1.0
C      1  0.5098490000000  0.4605360000000  0.5471590000000 1.0
C      1  0.4445320000000  0.4541110000000  0.4747150000000 1.0
C      1  0.5350250000000  0.4567110000000  0.4697220000000 1.0
C      1  0.5042870000000  0.5466000000000  0.5459870000000 1.0
C      1  0.4468100000000  0.5401040000000  0.4818920000000 1.0
C      1  0.5453970000000  0.5381100000000  0.4637870000000 1.0
C      1  0.5002940000000  0.4389920000000  0.5294850000000 1.0
C      1  0.4658590000000  0.4397870000000  0.4587760000000 1.0
C      1  0.5195220000000  0.4356350000000  0.4814440000000 1.0
C      1  0.4984020000000  0.5665830000000  0.5254360000000 1.0
C      1  0.4683760000000  0.5644930000000  0.4763410000000 1.0
C      1  0.5332460000000  0.5664470000000  0.4702470000000 1.0
C      1  0.3947840000000  0.5123470000000  0.4733990000000 1.0
C      1  0.5776310000000  0.5152970000000  0.4233860000000 1.0
C      1  0.5324740000000  0.5111310000000  0.6116180000000 1.0
C      1  0.3936410000000  0.4856920000000  0.4715670000000 1.0
C      1  0.5750220000000  0.4890330000000  0.4269900000000 1.0
C      1  0.5310410000000  0.4830480000000  0.6086260000000 1.0
C      1  0.5483360000000  0.5853620000000  0.4490110000000 1.0
C      1  0.5197080000000  0.5802940000000  0.5609980000000 1.0
C      1  0.4399010000000  0.5888420000000  0.4906950000000 1.0
C      1  0.5445150000000  0.4131260000000  0.4508120000000 1.0
C      1  0.5174890000000  0.4152050000000  0.5613500000000 1.0
C      1  0.4327180000000  0.4172980000000  0.4846340000000 1.0
C      1  0.5561460000000  0.5330650000000  0.4111210000000 1.0
C      1  0.5529550000000  0.5256060000000  0.5985190000000 1.0
C      1  0.3979920000000  0.5273110000000  0.4990780000000 1.0
C      1  0.5512140000000  0.4723770000000  0.4187550000000 1.0
C      1  0.5484520000000  0.4677420000000  0.5893440000000 1.0
C      1  0.3984810000000  0.4662490000000  0.4945940000000 1.0
C      1  0.5637040000000  0.4332690000000  0.5501390000000 1.0
C      1  0.4292300000000  0.4211270000000  0.5351490000000 1.0
C      1  0.5058250000000  0.4207440000000  0.4133630000000 1.0
C      1  0.5738380000000  0.5814430000000  0.5614050000000 1.0
C      1  0.4299750000000  0.5573910000000  0.5307820000000 1.0
C      1  0.5053170000000  0.5768050000000  0.4047300000000 1.0
C      1  0.5612160000000  0.4154830000000  0.5021070000000 1.0
C      1  0.4661710000000  0.4251200000000  0.5496720000000 1.0
C      1  0.4511220000000  0.4003270000000  0.4390900000000 1.0
C      1  0.5597020000000  0.5801190000000  0.5052330000000 1.0
C      1  0.4635830000000  0.5780640000000  0.5526670000000 1.0
C      1  0.4874810000000  0.5767410000000  0.4403140000000 1.0
C      1  0.4458280000000  0.4971820000000  0.4012330000000 1.0
C      1  0.6102410000000  0.5107410000000  0.5041050000000 1.0
C      1  0.4433820000000  0.5001510000000  0.6038100000000 1.0
C      1  0.4812710000000  0.5074520000000  0.5014810000000 1.0
END
