TITL C-2782230-7391-204 0.00287888800067481 125000 -1071.80302316282 0 0 184 (C1) n - 1
REM
REM in /home/nfs/bkarasulu/CARBON/AIRSS/Generating-Clusters/REBO/Higher-Symm/SD-CG/HFTN-CG
REM
REM
REM
REM
REM
REM ./C.cell (12c818d87b63d06a65506943cc24bca4)
REM
REM compiler GCC version 9.2.1 20190827 (Red Hat 9.2.1-1)
REM options -cpp -mtune=generic -march=x86-64 -g -O0 -fpre-include=/usr/include/finclude/math-vector-fortran.h
REM seed 549183528 -1098069064 552399651 1298898580 -1655640692 871250349 -1721608005 -1626673902 -383879824 -1925431452 1603740939 1161331330 325872817 -1081718589 162017279 411660907 -296472030 -1621570474 -376582378 -1248923145 1957428937 2046389827 -84029679 724866738 1754587123 1341295801 -1099892051 -445842319 1569460556 48640800 -1001598921 1834552141 997594958
REM
CELL 1.54180   50.00000   50.00000   50.00000   90.00000   90.00000   90.00000
LATT -1
SFAC C  
C      1  0.4597980000000  0.4198970000000  0.4859520000000 1.0
C      1  0.5409330000000  0.5803600000000  0.4858430000000 1.0
C      1  0.4578950000000  0.4206020000000  0.5198260000000 1.0
C      1  0.5424390000000  0.5793490000000  0.5197740000000 1.0
C      1  0.5607050000000  0.4628710000000  0.5788050000000 1.0
C      1  0.4404810000000  0.5373540000000  0.5768830000000 1.0
C      1  0.5569500000000  0.4583870000000  0.4207900000000 1.0
C      1  0.4430470000000  0.5419880000000  0.4205060000000 1.0
C      1  0.4603240000000  0.4893500000000  0.3988320000000 1.0
C      1  0.5384890000000  0.5105440000000  0.3983540000000 1.0
C      1  0.4612560000000  0.4830200000000  0.6053090000000 1.0
C      1  0.5362670000000  0.5138180000000  0.6044640000000 1.0
C      1  0.4982600000000  0.5832960000000  0.5733880000000 1.0
C      1  0.5045160000000  0.4155390000000  0.5715280000000 1.0
C      1  0.4913970000000  0.5811480000000  0.4345290000000 1.0
C      1  0.5092280000000  0.4186510000000  0.4347530000000 1.0
C      1  0.4634230000000  0.4563700000000  0.4545350000000 1.0
C      1  0.5379220000000  0.5433720000000  0.4530430000000 1.0
C      1  0.4652740000000  0.4560490000000  0.5491930000000 1.0
C      1  0.5354830000000  0.5438580000000  0.5481170000000 1.0
C      1  0.5601020000000  0.5119330000000  0.5869380000000 1.0
C      1  0.4365570000000  0.4887120000000  0.5900800000000 1.0
C      1  0.5683010000000  0.5062420000000  0.3998850000000 1.0
C      1  0.4306070000000  0.4942630000000  0.4013000000000 1.0
C      1  0.4929430000000  0.4234840000000  0.4811430000000 1.0
C      1  0.5081880000000  0.5783930000000  0.4787550000000 1.0
C      1  0.4918480000000  0.4228400000000  0.5211200000000 1.0
C      1  0.5085330000000  0.5766050000000  0.5190220000000 1.0
C      1  0.5490480000000  0.4016370000000  0.4753550000000 1.0
C      1  0.4515770000000  0.5993410000000  0.4737140000000 1.0
C      1  0.5476400000000  0.4010190000000  0.5334190000000 1.0
C      1  0.4541890000000  0.5977150000000  0.5310760000000 1.0
C      1  0.4362910000000  0.4430540000000  0.4395760000000 1.0
C      1  0.5648760000000  0.5575320000000  0.4393570000000 1.0
C      1  0.4355570000000  0.4449450000000  0.5596790000000 1.0
C      1  0.5644130000000  0.5551230000000  0.5596830000000 1.0
C      1  0.4831270000000  0.4903050000000  0.5595270000000 1.0
C      1  0.5153600000000  0.5034250000000  0.5575630000000 1.0
C      1  0.4820720000000  0.4929730000000  0.4406050000000 1.0
C      1  0.5148010000000  0.5062440000000  0.4422310000000 1.0
C      1  0.6041380000000  0.4591260000000  0.5116430000000 1.0
C      1  0.3954480000000  0.5410710000000  0.5110460000000 1.0
C      1  0.6031390000000  0.4604340000000  0.4866880000000 1.0
C      1  0.3966130000000  0.5401950000000  0.4861670000000 1.0
C      1  0.5193070000000  0.4018950000000  0.5194360000000 1.0
C      1  0.4820770000000  0.5986110000000  0.5173550000000 1.0
C      1  0.5198850000000  0.4028090000000  0.4873050000000 1.0
C      1  0.4808950000000  0.5985720000000  0.4853160000000 1.0
C      1  0.5118480000000  0.4352350000000  0.4085150000000 1.0
C      1  0.4878970000000  0.5644490000000  0.4081590000000 1.0
C      1  0.5206890000000  0.4368050000000  0.5929210000000 1.0
C      1  0.4815930000000  0.5609840000000  0.5931260000000 1.0
C      1  0.4031720000000  0.5335080000000  0.5434240000000 1.0
C      1  0.5963350000000  0.4655970000000  0.5443020000000 1.0
C      1  0.4059420000000  0.5331400000000  0.4541140000000 1.0
C      1  0.5946500000000  0.4673750000000  0.4543330000000 1.0
C      1  0.4418230000000  0.5576620000000  0.5162060000000 1.0
C      1  0.5578230000000  0.4461240000000  0.5159940000000 1.0
C      1  0.4409820000000  0.5541640000000  0.4844850000000 1.0
C      1  0.5591850000000  0.4478910000000  0.4843130000000 1.0
C      1  0.4389420000000  0.4906580000000  0.5384320000000 1.0
C      1  0.5605640000000  0.5095730000000  0.5373950000000 1.0
C      1  0.4385150000000  0.4907390000000  0.4523180000000 1.0
C      1  0.5626660000000  0.5097530000000  0.4513670000000 1.0
C      1  0.4517400000000  0.4186480000000  0.5510790000000 1.0
C      1  0.5489660000000  0.5812700000000  0.5508340000000 1.0
C      1  0.4549800000000  0.4176330000000  0.4522620000000 1.0
C      1  0.5454440000000  0.5823720000000  0.4520910000000 1.0
C      1  0.5069340000000  0.6027630000000  0.5397270000000 1.0
C      1  0.4936590000000  0.3946120000000  0.5396770000000 1.0
C      1  0.5024950000000  0.6076840000000  0.4620630000000 1.0
C      1  0.4978230000000  0.3943740000000  0.4641360000000 1.0
C      1  0.5003210000000  0.5451940000000  0.5166350000000 1.0
C      1  0.4989680000000  0.4543950000000  0.5163730000000 1.0
C      1  0.5023330000000  0.5457160000000  0.4842330000000 1.0
C      1  0.4982150000000  0.4570110000000  0.4841210000000 1.0
C      1  0.4843810000000  0.5172620000000  0.5779240000000 1.0
C      1  0.5137370000000  0.4802750000000  0.5825260000000 1.0
C      1  0.4839360000000  0.5186640000000  0.4210900000000 1.0
C      1  0.5146090000000  0.4809990000000  0.4217850000000 1.0
C      1  0.4932310000000  0.4465140000000  0.5936620000000 1.0
C      1  0.5089220000000  0.5502940000000  0.5931030000000 1.0
C      1  0.4868320000000  0.4472610000000  0.4057830000000 1.0
C      1  0.5127740000000  0.5516210000000  0.4063640000000 1.0
C      1  0.4538600000000  0.4911740000000  0.5105440000000 1.0
C      1  0.5454290000000  0.5085990000000  0.5091530000000 1.0
C      1  0.4531700000000  0.4893620000000  0.4764750000000 1.0
C      1  0.5471410000000  0.5108190000000  0.4751130000000 1.0
C      1  0.5678170000000  0.5613170000000  0.4773630000000 1.0
C      1  0.4328770000000  0.4389370000000  0.4775960000000 1.0
C      1  0.5671550000000  0.5584930000000  0.5105180000000 1.0
C      1  0.4328850000000  0.4415220000000  0.5109960000000 1.0
C      1  0.5282370000000  0.4820450000000  0.6129290000000 1.0
C      1  0.4709650000000  0.5147330000000  0.6090790000000 1.0
C      1  0.5255940000000  0.4801440000000  0.3900420000000 1.0
C      1  0.4732450000000  0.5194350000000  0.3892890000000 1.0
C      1  0.4900040000000  0.4426330000000  0.4482600000000 1.0
C      1  0.5110620000000  0.5570110000000  0.4472990000000 1.0
C      1  0.4926610000000  0.4422910000000  0.5539680000000 1.0
C      1  0.5082080000000  0.5571250000000  0.5539340000000 1.0
C      1  0.5220640000000  0.5946590000000  0.4408740000000 1.0
C      1  0.4787070000000  0.4050430000000  0.4416380000000 1.0
C      1  0.5266630000000  0.5958310000000  0.5620890000000 1.0
C      1  0.4742000000000  0.4042940000000  0.5622420000000 1.0
C      1  0.4721510000000  0.5687840000000  0.4588100000000 1.0
C      1  0.5283410000000  0.4313270000000  0.4590020000000 1.0
C      1  0.4723400000000  0.5725790000000  0.5560360000000 1.0
C      1  0.5293550000000  0.4291810000000  0.5547080000000 1.0
C      1  0.4406180000000  0.5764100000000  0.5523940000000 1.0
C      1  0.5602130000000  0.4222190000000  0.5568400000000 1.0
C      1  0.4417130000000  0.5766800000000  0.4515270000000 1.0
C      1  0.5589750000000  0.4239170000000  0.4523670000000 1.0
C      1  0.5349020000000  0.4519630000000  0.4035110000000 1.0
C      1  0.4646050000000  0.5481790000000  0.4025880000000 1.0
C      1  0.5410600000000  0.4558760000000  0.5981670000000 1.0
C      1  0.4601720000000  0.5427970000000  0.5966200000000 1.0
C      1  0.4925230000000  0.4850290000000  0.3954390000000 1.0
C      1  0.5062330000000  0.5146880000000  0.3947590000000 1.0
C      1  0.4941100000000  0.4822340000000  0.6107770000000 1.0
C      1  0.5043020000000  0.5130580000000  0.6054810000000 1.0
C      1  0.5399270000000  0.4771890000000  0.4524540000000 1.0
C      1  0.4604040000000  0.5238960000000  0.4529860000000 1.0
C      1  0.5393400000000  0.4759590000000  0.5393360000000 1.0
C      1  0.4583390000000  0.5251870000000  0.5424460000000 1.0
C      1  0.5274700000000  0.4405840000000  0.5249440000000 1.0
C      1  0.4723000000000  0.5608660000000  0.5254960000000 1.0
C      1  0.5270420000000  0.4419110000000  0.4908750000000 1.0
C      1  0.4730950000000  0.5599030000000  0.4914240000000 1.0
C      1  0.4701290000000  0.4682450000000  0.4235990000000 1.0
C      1  0.5282950000000  0.5292340000000  0.4244460000000 1.0
C      1  0.4745330000000  0.4668740000000  0.5796570000000 1.0
C      1  0.5255420000000  0.5283370000000  0.5754140000000 1.0
C      1  0.4274620000000  0.5887140000000  0.5175620000000 1.0
C      1  0.5704580000000  0.4153660000000  0.5193610000000 1.0
C      1  0.4299440000000  0.5839210000000  0.4885810000000 1.0
C      1  0.5695550000000  0.4181760000000  0.4900620000000 1.0
C      1  0.5976070000000  0.5155840000000  0.5238620000000 1.0
C      1  0.4024250000000  0.4847940000000  0.5237120000000 1.0
C      1  0.5961390000000  0.5190310000000  0.4710950000000 1.0
C      1  0.4045860000000  0.4816600000000  0.4712620000000 1.0
C      1  0.4308850000000  0.5310220000000  0.5265990000000 1.0
C      1  0.5697240000000  0.4720450000000  0.5272480000000 1.0
C      1  0.4348280000000  0.5303550000000  0.4698280000000 1.0
C      1  0.5655330000000  0.4712880000000  0.4691800000000 1.0
C      1  0.5579780000000  0.4895560000000  0.4262450000000 1.0
C      1  0.4422070000000  0.5111170000000  0.4270410000000 1.0
C      1  0.5570770000000  0.4906070000000  0.5645970000000 1.0
C      1  0.4413370000000  0.5076680000000  0.5664120000000 1.0
C      1  0.5939350000000  0.4998650000000  0.4440940000000 1.0
C      1  0.4073370000000  0.5006180000000  0.4441180000000 1.0
C      1  0.5934200000000  0.4989720000000  0.5508180000000 1.0
C      1  0.4054220000000  0.5003740000000  0.5510190000000 1.0
C      1  0.5419600000000  0.5404900000000  0.4854860000000 1.0
C      1  0.4584780000000  0.4597230000000  0.4865240000000 1.0
C      1  0.5411940000000  0.5394650000000  0.5192930000000 1.0
C      1  0.4587590000000  0.4605160000000  0.5203920000000 1.0
C      1  0.5182150000000  0.4570730000000  0.4412860000000 1.0
C      1  0.4826450000000  0.5427070000000  0.4411830000000 1.0
C      1  0.5196900000000  0.4613430000000  0.5582060000000 1.0
C      1  0.4798860000000  0.5403310000000  0.5589170000000 1.0
C      1  0.4950810000000  0.4829320000000  0.5298700000000 1.0
C      1  0.5037970000000  0.5161250000000  0.5286520000000 1.0
C      1  0.4952420000000  0.4844160000000  0.4693780000000 1.0
C      1  0.5021640000000  0.5181700000000  0.4702810000000 1.0
C      1  0.5758990000000  0.4453640000000  0.5623430000000 1.0
C      1  0.4256450000000  0.5535890000000  0.5592010000000 1.0
C      1  0.5730610000000  0.4450900000000  0.4399980000000 1.0
C      1  0.4273300000000  0.5555250000000  0.4397230000000 1.0
C      1  0.5828990000000  0.4945900000000  0.4823330000000 1.0
C      1  0.4176060000000  0.5064050000000  0.4826020000000 1.0
C      1  0.5838860000000  0.4934910000000  0.5095440000000 1.0
C      1  0.4166320000000  0.5072510000000  0.5100180000000 1.0
C      1  0.5818970000000  0.5317810000000  0.4366170000000 1.0
C      1  0.4196230000000  0.4687500000000  0.4370420000000 1.0
C      1  0.5783050000000  0.5293920000000  0.5559370000000 1.0
C      1  0.4210980000000  0.4702250000000  0.5559310000000 1.0
C      1  0.4077190000000  0.4573530000000  0.4843040000000 1.0
C      1  0.5931270000000  0.5432450000000  0.4843010000000 1.0
C      1  0.4052740000000  0.4590000000000  0.5139200000000 1.0
C      1  0.5949670000000  0.5413930000000  0.5140440000000 1.0
C      1  0.5239530000000  0.4853610000000  0.5132270000000 1.0
C      1  0.4737570000000  0.5153610000000  0.5158910000000 1.0
C      1  0.5254820000000  0.4877230000000  0.4815330000000 1.0
C      1  0.4723470000000  0.5139770000000  0.4835450000000 1.0
END
