TITL C-2782232-2968-32 -0.00855854731365864 125000 -500.723805684099 0 0 87 (C1) n - 1
REM
REM in /home/nfs/bkarasulu/CARBON/AIRSS/Generating-Clusters/REBO/Higher-Symm/SD-CG/HFTN-CG
REM
REM
REM
REM
REM
REM ./C.cell (12c818d87b63d06a65506943cc24bca4)
REM
REM compiler GCC version 9.2.1 20190827 (Red Hat 9.2.1-1)
REM options -cpp -mtune=generic -march=x86-64 -g -O0 -fpre-include=/usr/include/finclude/math-vector-fortran.h
REM seed 1269844547 -1277696325 209921117 1294209557 1712721196 1669821053 388008685 -352940819 -1833054869 -1344236966 834401472 1479585057 -2026876229 1491018337 -2052047547 488038077 2127811876 994063196 -978754764 481413045 1895687108 1414526463 -333133942 1172414528 -615118679 -1557508323 -1866228405 58775902 -137231288 1630986897 1261789564 -1936419078 -1512459384
REM
CELL 1.54180   50.00000   50.00000   50.00000   90.00000   90.00000   90.00000
LATT -1
SFAC C  
C      1  0.5066960000000  0.4113060000000  0.5123290000000 1.0
C      1  0.5929520000000  0.4675690000000  0.5149040000000 1.0
C      1  0.5419060000000  0.5607650000000  0.5175050000000 1.0
C      1  0.4318810000000  0.5679010000000  0.5155440000000 1.0
C      1  0.4209370000000  0.4666740000000  0.5199100000000 1.0
C      1  0.5034650000000  0.4123710000000  0.4828150000000 1.0
C      1  0.5932160000000  0.4698760000000  0.4865620000000 1.0
C      1  0.5403860000000  0.5607520000000  0.4884060000000 1.0
C      1  0.4303880000000  0.5676450000000  0.4866140000000 1.0
C      1  0.4131880000000  0.4688190000000  0.4922390000000 1.0
C      1  0.4769290000000  0.4709630000000  0.5557790000000 1.0
C      1  0.5273000000000  0.4633380000000  0.5607910000000 1.0
C      1  0.5477710000000  0.5073770000000  0.5609380000000 1.0
C      1  0.5115060000000  0.5420480000000  0.5564140000000 1.0
C      1  0.4643390000000  0.5175440000000  0.5699200000000 1.0
C      1  0.4677000000000  0.4658850000000  0.4428090000000 1.0
C      1  0.5178310000000  0.4580000000000  0.4428460000000 1.0
C      1  0.5411110000000  0.5080060000000  0.4339810000000 1.0
C      1  0.5045260000000  0.5494420000000  0.4464330000000 1.0
C      1  0.4585520000000  0.5147440000000  0.4359180000000 1.0
C      1  0.4793690000000  0.5049500000000  0.4573530000000 1.0
C      1  0.4876770000000  0.4748450000000  0.4664170000000 1.0
C      1  0.5198310000000  0.4757260000000  0.4709540000000 1.0
C      1  0.5296600000000  0.5048330000000  0.4660360000000 1.0
C      1  0.5037150000000  0.5238530000000  0.4658020000000 1.0
C      1  0.4813080000000  0.5059620000000  0.5224050000000 1.0
C      1  0.4959440000000  0.4774290000000  0.5305480000000 1.0
C      1  0.5265480000000  0.4817700000000  0.5350940000000 1.0
C      1  0.5316330000000  0.5128570000000  0.5308870000000 1.0
C      1  0.5028320000000  0.5284410000000  0.5283920000000 1.0
C      1  0.4307560000000  0.4883910000000  0.4702740000000 1.0
C      1  0.4834430000000  0.4281800000000  0.4682440000000 1.0
C      1  0.5662950000000  0.4689970000000  0.4655110000000 1.0
C      1  0.5517450000000  0.5428730000000  0.4693290000000 1.0
C      1  0.4584560000000  0.5579000000000  0.4702580000000 1.0
C      1  0.4322130000000  0.4916660000000  0.5366920000000 1.0
C      1  0.4936010000000  0.4376490000000  0.5291780000000 1.0
C      1  0.5657230000000  0.4648020000000  0.5354970000000 1.0
C      1  0.5566030000000  0.5435970000000  0.5357870000000 1.0
C      1  0.4598830000000  0.5560890000000  0.5309900000000 1.0
C      1  0.5311590000000  0.4162230000000  0.4683460000000 1.0
C      1  0.5923640000000  0.4986720000000  0.4712210000000 1.0
C      1  0.5188350000000  0.5752660000000  0.4775770000000 1.0
C      1  0.4128390000000  0.5458830000000  0.4749120000000 1.0
C      1  0.4303630000000  0.4487880000000  0.4744570000000 1.0
C      1  0.5342340000000  0.4111340000000  0.5261880000000 1.0
C      1  0.5920790000000  0.4947780000000  0.5328990000000 1.0
C      1  0.5199820000000  0.5739430000000  0.5300860000000 1.0
C      1  0.4145110000000  0.5474130000000  0.5290950000000 1.0
C      1  0.4381760000000  0.4440880000000  0.5250390000000 1.0
C      1  0.4665330000000  0.4491050000000  0.5231800000000 1.0
C      1  0.5469600000000  0.4404800000000  0.5321420000000 1.0
C      1  0.5729210000000  0.5211710000000  0.5300990000000 1.0
C      1  0.4880520000000  0.5694200000000  0.5396680000000 1.0
C      1  0.4250940000000  0.5192870000000  0.5291940000000 1.0
C      1  0.4604480000000  0.4397540000000  0.4797060000000 1.0
C      1  0.5503680000000  0.4426020000000  0.4657930000000 1.0
C      1  0.5707690000000  0.5229360000000  0.4739470000000 1.0
C      1  0.4870580000000  0.5710380000000  0.4660700000000 1.0
C      1  0.4252430000000  0.5177820000000  0.4744920000000 1.0
C      1  0.4919860000000  0.4432260000000  0.4428930000000 1.0
C      1  0.5457340000000  0.4756490000000  0.4414220000000 1.0
C      1  0.5352810000000  0.5386110000000  0.4461750000000 1.0
C      1  0.4713210000000  0.5421070000000  0.4438760000000 1.0
C      1  0.4471690000000  0.4862790000000  0.4427730000000 1.0
C      1  0.5019740000000  0.4500240000000  0.5589690000000 1.0
C      1  0.5548350000000  0.4794830000000  0.5628190000000 1.0
C      1  0.5396590000000  0.5382010000000  0.5604480000000 1.0
C      1  0.4774630000000  0.5415200000000  0.5562430000000 1.0
C      1  0.4574520000000  0.4917600000000  0.5579740000000 1.0
C      1  0.5619280000000  0.4924420000000  0.5158410000000 1.0
C      1  0.4972180000000  0.5925630000000  0.5179630000000 1.0
C      1  0.4484210000000  0.5316820000000  0.5148640000000 1.0
C      1  0.4579690000000  0.4817190000000  0.5192710000000 1.0
C      1  0.5226760000000  0.4475960000000  0.5152210000000 1.0
C      1  0.5614750000000  0.4938870000000  0.4871510000000 1.0
C      1  0.4960780000000  0.5925070000000  0.4904890000000 1.0
C      1  0.4481970000000  0.5320820000000  0.4873030000000 1.0
C      1  0.4527430000000  0.4712690000000  0.4900390000000 1.0
C      1  0.5293740000000  0.4419270000000  0.4892000000000 1.0
C      1  0.4774450000000  0.5055010000000  0.4895170000000 1.0
C      1  0.4914050000000  0.4757630000000  0.4985480000000 1.0
C      1  0.5274850000000  0.5182260000000  0.4974410000000 1.0
C      1  0.5236430000000  0.4855160000000  0.5028650000000 1.0
C      1  0.4970550000000  0.5323140000000  0.4968820000000 1.0
C      1  0.4589450000000  0.5205930000000  0.5971150000000 1.0
C      1  0.5448470000000  0.5107060000000  0.4061920000000 1.0
END
