TITL C-2782233-7966-753 0.0051921631860475 125000 -768.987586453776 0 0 130 (C1) n - 1
REM
REM in /home/nfs/bkarasulu/CARBON/AIRSS/Generating-Clusters/REBO/Higher-Symm/SD-CG/HFTN-CG
REM
REM
REM
REM
REM
REM ./C.cell (12c818d87b63d06a65506943cc24bca4)
REM
REM compiler GCC version 9.2.1 20190827 (Red Hat 9.2.1-1)
REM options -cpp -mtune=generic -march=x86-64 -g -O0 -fpre-include=/usr/include/finclude/math-vector-fortran.h
REM seed 2103521084 329062971 -1409927974 -1949999961 -907106987 2001976747 -1020100098 1847216533 -327702559 -296668661 1568531075 -846450884 -288964438 -47945950 -1880190088 1599769367 -1290283214 708142772 -269606734 -1070381797 -272307973 -1836221476 -42118506 -80753466 494286626 80375898 633880155 229016968 -1838882288 1072663492 771694110 1275646745 1082962430
REM
CELL 1.54180   50.00000   50.00000   50.00000   90.00000   90.00000   90.00000
LATT -1
SFAC C  
C      1  0.5152480000000  0.5455540000000  0.4487940000000 1.0
C      1  0.4890270000000  0.5453060000000  0.5487100000000 1.0
C      1  0.5112240000000  0.4626340000000  0.3973070000000 1.0
C      1  0.4827210000000  0.4605080000000  0.5828970000000 1.0
C      1  0.5183280000000  0.4915140000000  0.4038650000000 1.0
C      1  0.4780710000000  0.4903830000000  0.5900680000000 1.0
C      1  0.5411200000000  0.4802730000000  0.6047890000000 1.0
C      1  0.4521710000000  0.4833500000000  0.4015210000000 1.0
C      1  0.5378200000000  0.5243280000000  0.4969220000000 1.0
C      1  0.4758230000000  0.5242680000000  0.5011260000000 1.0
C      1  0.5025050000000  0.5833100000000  0.4638840000000 1.0
C      1  0.4968790000000  0.5845130000000  0.5482780000000 1.0
C      1  0.5010040000000  0.4874580000000  0.4609840000000 1.0
C      1  0.4992670000000  0.4940410000000  0.5365590000000 1.0
C      1  0.5716500000000  0.4462710000000  0.5266050000000 1.0
C      1  0.4284600000000  0.4431960000000  0.4748900000000 1.0
C      1  0.5214260000000  0.4221630000000  0.5225260000000 1.0
C      1  0.4833650000000  0.4225990000000  0.4782980000000 1.0
C      1  0.4683670000000  0.5531380000000  0.4322700000000 1.0
C      1  0.5255770000000  0.5475780000000  0.5751850000000 1.0
C      1  0.4219550000000  0.4553150000000  0.5298150000000 1.0
C      1  0.5826560000000  0.4510910000000  0.4688470000000 1.0
C      1  0.5390110000000  0.4428360000000  0.4467240000000 1.0
C      1  0.4665330000000  0.4499490000000  0.5550780000000 1.0
C      1  0.4573010000000  0.4799080000000  0.5568810000000 1.0
C      1  0.5443220000000  0.4712480000000  0.4404840000000 1.0
C      1  0.5597200000000  0.4810360000000  0.5111160000000 1.0
C      1  0.4446200000000  0.4774780000000  0.4873320000000 1.0
C      1  0.5427950000000  0.5013010000000  0.5602690000000 1.0
C      1  0.4577350000000  0.5046710000000  0.4451520000000 1.0
C      1  0.5649610000000  0.4935540000000  0.4249060000000 1.0
C      1  0.4310880000000  0.4940930000000  0.5715770000000 1.0
C      1  0.5583050000000  0.4705000000000  0.5822450000000 1.0
C      1  0.4364150000000  0.4715580000000  0.4239660000000 1.0
C      1  0.4205090000000  0.5186950000000  0.4418880000000 1.0
C      1  0.5750490000000  0.5241910000000  0.5657080000000 1.0
C      1  0.5238970000000  0.4798950000000  0.5478780000000 1.0
C      1  0.4749890000000  0.4814260000000  0.4495120000000 1.0
C      1  0.4749110000000  0.5715650000000  0.4548520000000 1.0
C      1  0.5209460000000  0.5686140000000  0.5548590000000 1.0
C      1  0.4195310000000  0.4882690000000  0.4408870000000 1.0
C      1  0.5748040000000  0.4907270000000  0.5626040000000 1.0
C      1  0.5839670000000  0.4700310000000  0.4406140000000 1.0
C      1  0.4182040000000  0.4733390000000  0.5517910000000 1.0
C      1  0.5455630000000  0.5066660000000  0.5933420000000 1.0
C      1  0.4482010000000  0.5093800000000  0.4148610000000 1.0
C      1  0.4475240000000  0.4154600000000  0.5111340000000 1.0
C      1  0.5558200000000  0.4152660000000  0.4893660000000 1.0
C      1  0.4536910000000  0.5284380000000  0.5443680000000 1.0
C      1  0.5460460000000  0.5205070000000  0.4473430000000 1.0
C      1  0.4458410000000  0.5681900000000  0.5113140000000 1.0
C      1  0.5571790000000  0.5706370000000  0.4672570000000 1.0
C      1  0.4601490000000  0.4963880000000  0.5077880000000 1.0
C      1  0.5407660000000  0.4948730000000  0.4899560000000 1.0
C      1  0.4928990000000  0.5234260000000  0.4455610000000 1.0
C      1  0.5113120000000  0.5321540000000  0.5380050000000 1.0
C      1  0.5900260000000  0.4883560000000  0.4996470000000 1.0
C      1  0.4252460000000  0.5053690000000  0.4885110000000 1.0
C      1  0.5514340000000  0.4371960000000  0.5440400000000 1.0
C      1  0.4514560000000  0.4375500000000  0.4594440000000 1.0
C      1  0.4561330000000  0.5230770000000  0.4663550000000 1.0
C      1  0.5380340000000  0.5256950000000  0.5441230000000 1.0
C      1  0.5222160000000  0.4964800000000  0.4432150000000 1.0
C      1  0.4775760000000  0.5049880000000  0.5507520000000 1.0
C      1  0.5140920000000  0.4333380000000  0.4394750000000 1.0
C      1  0.4887090000000  0.4279850000000  0.5611900000000 1.0
C      1  0.5058360000000  0.5301140000000  0.5070770000000 1.0
C      1  0.4845410000000  0.5370710000000  0.4726340000000 1.0
C      1  0.3942480000000  0.4903730000000  0.5209120000000 1.0
C      1  0.5934680000000  0.4823250000000  0.4709650000000 1.0
C      1  0.4813900000000  0.4765330000000  0.4057030000000 1.0
C      1  0.5119020000000  0.4710750000000  0.5986900000000 1.0
C      1  0.5511020000000  0.5342610000000  0.5811550000000 1.0
C      1  0.4437920000000  0.5378550000000  0.4280510000000 1.0
C      1  0.5558180000000  0.4933460000000  0.4637080000000 1.0
C      1  0.4422600000000  0.4997310000000  0.5335930000000 1.0
C      1  0.5917760000000  0.5357200000000  0.4546600000000 1.0
C      1  0.4095650000000  0.5365000000000  0.5321010000000 1.0
C      1  0.4912470000000  0.4472780000000  0.4201850000000 1.0
C      1  0.5110930000000  0.4413610000000  0.5822990000000 1.0
C      1  0.4940040000000  0.5394900000000  0.4156410000000 1.0
C      1  0.5036360000000  0.5311610000000  0.5845000000000 1.0
C      1  0.5213340000000  0.4247630000000  0.5542230000000 1.0
C      1  0.4821220000000  0.4285470000000  0.4472810000000 1.0
C      1  0.4161350000000  0.5280840000000  0.4683120000000 1.0
C      1  0.5803030000000  0.5380240000000  0.5421130000000 1.0
C      1  0.5328540000000  0.5496860000000  0.4767320000000 1.0
C      1  0.4754120000000  0.5616570000000  0.5238490000000 1.0
C      1  0.5412780000000  0.4581420000000  0.5626410000000 1.0
C      1  0.4580470000000  0.4595110000000  0.4403860000000 1.0
C      1  0.6100970000000  0.4870700000000  0.5219270000000 1.0
C      1  0.4008110000000  0.4855570000000  0.4949170000000 1.0
C      1  0.5565220000000  0.5323720000000  0.5192270000000 1.0
C      1  0.4433490000000  0.5309190000000  0.4970560000000 1.0
C      1  0.5839800000000  0.5579420000000  0.4619610000000 1.0
C      1  0.4238470000000  0.5575280000000  0.5225610000000 1.0
C      1  0.5299890000000  0.5763400000000  0.4475050000000 1.0
C      1  0.4699380000000  0.5805320000000  0.5586540000000 1.0
C      1  0.4531380000000  0.5565110000000  0.5602990000000 1.0
C      1  0.5519120000000  0.5520860000000  0.4361690000000 1.0
C      1  0.4250750000000  0.4354010000000  0.5024160000000 1.0
C      1  0.5746270000000  0.4384410000000  0.4995350000000 1.0
C      1  0.4274290000000  0.5546520000000  0.4786080000000 1.0
C      1  0.5670930000000  0.5636390000000  0.5283960000000 1.0
C      1  0.5045680000000  0.5039200000000  0.5923790000000 1.0
C      1  0.4926690000000  0.5054340000000  0.4167110000000 1.0
C      1  0.4507880000000  0.5761740000000  0.4784230000000 1.0
C      1  0.5369680000000  0.5673020000000  0.5300760000000 1.0
C      1  0.5307300000000  0.4692330000000  0.5188030000000 1.0
C      1  0.4651280000000  0.4574380000000  0.5034330000000 1.0
C      1  0.4528910000000  0.4437110000000  0.5293000000000 1.0
C      1  0.5575400000000  0.4319510000000  0.4642520000000 1.0
C      1  0.5143910000000  0.4471960000000  0.5095950000000 1.0
C      1  0.4896510000000  0.4460550000000  0.4941360000000 1.0
C      1  0.4166170000000  0.4723570000000  0.4682150000000 1.0
C      1  0.5821530000000  0.4762760000000  0.5365790000000 1.0
C      1  0.4925070000000  0.4891460000000  0.5097140000000 1.0
C      1  0.5098860000000  0.4869540000000  0.4880450000000 1.0
C      1  0.5837020000000  0.5073130000000  0.4500090000000 1.0
C      1  0.4122700000000  0.5084000000000  0.5336900000000 1.0
C      1  0.4565980000000  0.5087000000000  0.5844170000000 1.0
C      1  0.5406190000000  0.5086600000000  0.4098960000000 1.0
C      1  0.5224750000000  0.5596640000000  0.5067530000000 1.0
C      1  0.4787560000000  0.5625790000000  0.4906540000000 1.0
C      1  0.4656640000000  0.4050560000000  0.4920150000000 1.0
C      1  0.5369100000000  0.4045440000000  0.5070580000000 1.0
C      1  0.4959050000000  0.5881020000000  0.5166600000000 1.0
C      1  0.5044250000000  0.5929630000000  0.4901620000000 1.0
C      1  0.4730020000000  0.5363560000000  0.5777820000000 1.0
C      1  0.5280330000000  0.5378240000000  0.4170920000000 1.0
END
