TITL C-2782239-8622-970 0.00148526600673451 125000 -841.234268474064 0 0 144 (C1) n - 1
REM
REM in /home/nfs/bkarasulu/CARBON/AIRSS/Generating-Clusters/REBO/Higher-Symm/SD-CG/HFTN-CG
REM
REM
REM
REM
REM
REM ./C.cell (12c818d87b63d06a65506943cc24bca4)
REM
REM compiler GCC version 9.2.1 20190827 (Red Hat 9.2.1-1)
REM options -cpp -mtune=generic -march=x86-64 -g -O0 -fpre-include=/usr/include/finclude/math-vector-fortran.h
REM seed 917079610 -2131140614 1732786348 1470603079 968895859 -341608477 -1862354335 269133093 -313871607 -396874111 1800606953 -462536882 355722732 1024490025 876006244 -1290927985 -1752685157 -509181068 -721437634 1765810747 1724843643 2010680768 -2101908805 920402330 -836025077 748457840 182550545 -529719640 -924417746 -1170300811 -266089042 -1104758121 -1132625729
REM
CELL 1.54180   50.00000   50.00000   50.00000   90.00000   90.00000   90.00000
LATT -1
SFAC C  
C      1  0.4247980000000  0.4742640000000  0.5269160000000 1.0
C      1  0.4359950000000  0.5568130000000  0.4670370000000 1.0
C      1  0.5088380000000  0.5885370000000  0.5357510000000 1.0
C      1  0.5777170000000  0.5260120000000  0.4770610000000 1.0
C      1  0.5622560000000  0.4382530000000  0.5248560000000 1.0
C      1  0.4841180000000  0.4127870000000  0.4655450000000 1.0
C      1  0.4252590000000  0.5336220000000  0.5696060000000 1.0
C      1  0.4889770000000  0.5806400000000  0.4304390000000 1.0
C      1  0.5630880000000  0.5532250000000  0.5637210000000 1.0
C      1  0.5737800000000  0.4670990000000  0.4358120000000 1.0
C      1  0.5073440000000  0.4180550000000  0.5709340000000 1.0
C      1  0.4371760000000  0.4512530000000  0.4320320000000 1.0
C      1  0.5718070000000  0.4790580000000  0.5662850000000 1.0
C      1  0.5201750000000  0.4322820000000  0.4283060000000 1.0
C      1  0.4548660000000  0.4547460000000  0.5719850000000 1.0
C      1  0.4343120000000  0.5150820000000  0.4308190000000 1.0
C      1  0.4825940000000  0.5648180000000  0.5761630000000 1.0
C      1  0.5473400000000  0.5462820000000  0.4322470000000 1.0
C      1  0.5233920000000  0.4099260000000  0.5468620000000 1.0
C      1  0.4388890000000  0.4334980000000  0.4570840000000 1.0
C      1  0.4120150000000  0.5227380000000  0.5442570000000 1.0
C      1  0.4738180000000  0.5883020000000  0.4559280000000 1.0
C      1  0.5599840000000  0.5694680000000  0.5382790000000 1.0
C      1  0.5862260000000  0.4796210000000  0.4604700000000 1.0
C      1  0.4541530000000  0.4173530000000  0.5079020000000 1.0
C      1  0.4083330000000  0.4954830000000  0.4844990000000 1.0
C      1  0.4518320000000  0.5859460000000  0.5095350000000 1.0
C      1  0.5336700000000  0.5808490000000  0.4870920000000 1.0
C      1  0.5937350000000  0.5040790000000  0.5183740000000 1.0
C      1  0.5462620000000  0.4196500000000  0.4811100000000 1.0
C      1  0.4134490000000  0.5084960000000  0.4575640000000 1.0
C      1  0.4566940000000  0.5802970000000  0.5386420000000 1.0
C      1  0.5440040000000  0.5693000000000  0.4571240000000 1.0
C      1  0.5939970000000  0.4843070000000  0.5410040000000 1.0
C      1  0.5370800000000  0.4159170000000  0.4537520000000 1.0
C      1  0.4524950000000  0.4252140000000  0.5371110000000 1.0
C      1  0.4772910000000  0.4538880000000  0.5487670000000 1.0
C      1  0.4550730000000  0.4974720000000  0.4491260000000 1.0
C      1  0.4702720000000  0.5454970000000  0.5524630000000 1.0
C      1  0.5169900000000  0.5414350000000  0.4476830000000 1.0
C      1  0.5524770000000  0.5009060000000  0.5517170000000 1.0
C      1  0.5285210000000  0.4548060000000  0.4502400000000 1.0
C      1  0.5125230000000  0.5542350000000  0.4899420000000 1.0
C      1  0.5553400000000  0.5127230000000  0.5139050000000 1.0
C      1  0.5372850000000  0.4573690000000  0.4891610000000 1.0
C      1  0.4847410000000  0.4422520000000  0.5107960000000 1.0
C      1  0.4473720000000  0.4889860000000  0.4872810000000 1.0
C      1  0.4607650000000  0.5475130000000  0.5113110000000 1.0
C      1  0.4339800000000  0.5628000000000  0.4968360000000 1.0
C      1  0.5145270000000  0.5978170000000  0.5071660000000 1.0
C      1  0.5906310000000  0.5286070000000  0.5041200000000 1.0
C      1  0.5678550000000  0.4328330000000  0.4960930000000 1.0
C      1  0.4828630000000  0.4114460000000  0.4961070000000 1.0
C      1  0.4133420000000  0.4713290000000  0.4995760000000 1.0
C      1  0.4854260000000  0.4219750000000  0.5452110000000 1.0
C      1  0.4393320000000  0.4729230000000  0.4580870000000 1.0
C      1  0.4392800000000  0.5516890000000  0.5446550000000 1.0
C      1  0.5106170000000  0.5738560000000  0.4552650000000 1.0
C      1  0.5659900000000  0.5302390000000  0.5409220000000 1.0
C      1  0.5572710000000  0.4527290000000  0.4617390000000 1.0
C      1  0.5141980000000  0.5503250000000  0.5566430000000 1.0
C      1  0.5409610000000  0.5094880000000  0.4463030000000 1.0
C      1  0.5360520000000  0.4643190000000  0.5562570000000 1.0
C      1  0.4891670000000  0.4569910000000  0.4439610000000 1.0
C      1  0.4593670000000  0.4893070000000  0.5526110000000 1.0
C      1  0.4662750000000  0.5352390000000  0.4438980000000 1.0
C      1  0.5298580000000  0.5238160000000  0.5567250000000 1.0
C      1  0.5230200000000  0.4861410000000  0.4429170000000 1.0
C      1  0.5051820000000  0.4638500000000  0.5599560000000 1.0
C      1  0.4837710000000  0.4887280000000  0.4367370000000 1.0
C      1  0.4770510000000  0.5128580000000  0.5564980000000 1.0
C      1  0.4927540000000  0.5215320000000  0.4367060000000 1.0
C      1  0.5050740000000  0.4460930000000  0.4715260000000 1.0
C      1  0.4655480000000  0.4733770000000  0.5253350000000 1.0
C      1  0.4562510000000  0.5226090000000  0.4714040000000 1.0
C      1  0.4950440000000  0.5515930000000  0.5309110000000 1.0
C      1  0.5345720000000  0.5275100000000  0.4709430000000 1.0
C      1  0.5425840000000  0.4787720000000  0.5292480000000 1.0
C      1  0.5766090000000  0.4628790000000  0.4880960000000 1.0
C      1  0.5047980000000  0.4099730000000  0.5196920000000 1.0
C      1  0.4313920000000  0.4527610000000  0.4836000000000 1.0
C      1  0.4222280000000  0.5405120000000  0.5170370000000 1.0
C      1  0.4949950000000  0.5888330000000  0.4816710000000 1.0
C      1  0.5682200000000  0.5500260000000  0.5127300000000 1.0
C      1  0.4546600000000  0.5182920000000  0.5238850000000 1.0
C      1  0.4872480000000  0.5457300000000  0.4811840000000 1.0
C      1  0.5298540000000  0.5332560000000  0.5241130000000 1.0
C      1  0.5379710000000  0.4891990000000  0.4810490000000 1.0
C      1  0.5107190000000  0.4544230000000  0.5270450000000 1.0
C      1  0.4740200000000  0.4694290000000  0.4787080000000 1.0
C      1  0.5593680000000  0.4773440000000  0.4147130000000 1.0
C      1  0.5135640000000  0.4377940000000  0.5890730000000 1.0
C      1  0.4512100000000  0.4573740000000  0.4089300000000 1.0
C      1  0.4411180000000  0.5218620000000  0.5889450000000 1.0
C      1  0.4870500000000  0.5621590000000  0.4101640000000 1.0
C      1  0.5491400000000  0.5452990000000  0.5858800000000 1.0
C      1  0.4681660000000  0.4859650000000  0.4081420000000 1.0
C      1  0.4751650000000  0.5211400000000  0.5880770000000 1.0
C      1  0.5059540000000  0.5339020000000  0.4088100000000 1.0
C      1  0.5392020000000  0.5127910000000  0.5875080000000 1.0
C      1  0.5254930000000  0.4757010000000  0.4116600000000 1.0
C      1  0.4954220000000  0.4663790000000  0.5922430000000 1.0
C      1  0.5320040000000  0.5671170000000  0.5254610000000 1.0
C      1  0.5676060000000  0.4991320000000  0.4739350000000 1.0
C      1  0.5348580000000  0.4331350000000  0.5315880000000 1.0
C      1  0.4661710000000  0.4374870000000  0.4701200000000 1.0
C      1  0.4305100000000  0.5035920000000  0.5292390000000 1.0
C      1  0.4655960000000  0.5635960000000  0.4718860000000 1.0
C      1  0.5055640000000  0.4106620000000  0.4488410000000 1.0
C      1  0.4376820000000  0.4519140000000  0.5442600000000 1.0
C      1  0.4240030000000  0.5380920000000  0.4519370000000 1.0
C      1  0.4829260000000  0.5834760000000  0.5515780000000 1.0
C      1  0.5682390000000  0.5454230000000  0.4590540000000 1.0
C      1  0.5762900000000  0.4571800000000  0.5403760000000 1.0
C      1  0.5292710000000  0.4657160000000  0.5956020000000 1.0
C      1  0.4820840000000  0.4571950000000  0.3977360000000 1.0
C      1  0.4570890000000  0.4956350000000  0.5996260000000 1.0
C      1  0.4725170000000  0.5344570000000  0.4024260000000 1.0
C      1  0.5197230000000  0.5393650000000  0.5965020000000 1.0
C      1  0.5434010000000  0.5031010000000  0.4033020000000 1.0
C      1  0.5653520000000  0.5108030000000  0.4357670000000 1.0
C      1  0.5503000000000  0.4454580000000  0.5683410000000 1.0
C      1  0.4767950000000  0.4367690000000  0.4315760000000 1.0
C      1  0.4362160000000  0.4894230000000  0.5661100000000 1.0
C      1  0.4539610000000  0.5548160000000  0.4313800000000 1.0
C      1  0.5218280000000  0.5707650000000  0.5715440000000 1.0
C      1  0.4875230000000  0.5216120000000  0.5255790000000 1.0
C      1  0.5206090000000  0.5133610000000  0.4980870000000 1.0
C      1  0.5150020000000  0.4837820000000  0.5131160000000 1.0
C      1  0.5060890000000  0.4797580000000  0.4717820000000 1.0
C      1  0.4844710000000  0.4879460000000  0.5043450000000 1.0
C      1  0.4801190000000  0.5176120000000  0.4933210000000 1.0
C      1  0.4547860000000  0.5132480000000  0.4073180000000 1.0
C      1  0.4929560000000  0.5446280000000  0.5939880000000 1.0
C      1  0.5351710000000  0.5294310000000  0.4090050000000 1.0
C      1  0.5485270000000  0.4848540000000  0.5881390000000 1.0
C      1  0.5086260000000  0.4513110000000  0.4064270000000 1.0
C      1  0.4657220000000  0.4697680000000  0.5936980000000 1.0
C      1  0.4519810000000  0.4502820000000  0.5060200000000 1.0
C      1  0.4306010000000  0.5186510000000  0.4922300000000 1.0
C      1  0.4830580000000  0.5734530000000  0.5093560000000 1.0
C      1  0.5465260000000  0.5503860000000  0.4922050000000 1.0
C      1  0.5691220000000  0.4820680000000  0.5099170000000 1.0
C      1  0.5185980000000  0.4293720000000  0.4954690000000 1.0
END
