TITL C-2782231-7322-530 -2.02922559222485e-07 125000 -117.286579975696 0 0 22 (C1) n - 1
REM
REM in /home/nfs/bkarasulu/CARBON/AIRSS/Generating-Clusters/REBO/Higher-Symm/SD-CG/HFTN-CG
REM
REM
REM
REM
REM
REM ./C.cell (12c818d87b63d06a65506943cc24bca4)
REM
REM compiler GCC version 9.2.1 20190827 (Red Hat 9.2.1-1)
REM options -cpp -mtune=generic -march=x86-64 -g -O0 -fpre-include=/usr/include/finclude/math-vector-fortran.h
REM seed 1052141947 1295559057 -1243590626 -602129763 -1565231093 944854917 522290140 -906757160 -2023257194 -1517637536 42177030 795050970 -337902878 595153837 -1532604673 18723355 1316121386 1629521784 -1709594590 -372746382 -200216854 -396736612 -426445129 260160915 1810551868 1389709905 -1502041214 -1195320808 -1387171552 -1429288074 -601946574 195285139 76725567
REM
CELL 1.54180   50.00000   50.00000   50.00000   90.00000   90.00000   90.00000
LATT -1
SFAC C  
C      1  0.4956060000000  0.5241480000000  0.4760310000000 1.0
C      1  0.5291680000000  0.4715910000000  0.5171130000000 1.0
C      1  0.4842630000000  0.4858770000000  0.4997100000000 1.0
C      1  0.4369810000000  0.4706720000000  0.5063240000000 1.0
C      1  0.5191770000000  0.4515060000000  0.5326130000000 1.0
C      1  0.4732910000000  0.4683990000000  0.5690910000000 1.0
C      1  0.4463150000000  0.5094290000000  0.4801890000000 1.0
C      1  0.4742240000000  0.5073880000000  0.4838140000000 1.0
C      1  0.5567060000000  0.4764280000000  0.5162870000000 1.0
C      1  0.5191080000000  0.5707110000000  0.4795700000000 1.0
C      1  0.4956640000000  0.5507930000000  0.4692300000000 1.0
C      1  0.4740770000000  0.4382570000000  0.5040030000000 1.0
C      1  0.4284310000000  0.4916360000000  0.4911080000000 1.0
C      1  0.4950330000000  0.5823090000000  0.4611090000000 1.0
C      1  0.5825070000000  0.4809590000000  0.5155140000000 1.0
C      1  0.5234050000000  0.5105090000000  0.4837320000000 1.0
C      1  0.5373620000000  0.5004770000000  0.4612220000000 1.0
C      1  0.4669750000000  0.4642480000000  0.5131650000000 1.0
C      1  0.5388790000000  0.5588100000000  0.4952740000000 1.0
C      1  0.5402730000000  0.5317740000000  0.4992000000000 1.0
C      1  0.4704350000000  0.4665220000000  0.5438020000000 1.0
C      1  0.5121210000000  0.4875580000000  0.5019000000000 1.0
END
