TITL C-2782226-7400-68 -0.00294796045371448 125000 -286.940015021921 0 0 50 (C1) n - 1
REM
REM in /home/nfs/bkarasulu/CARBON/AIRSS/Generating-Clusters/REBO/Higher-Symm/SD-CG/HFTN-CG
REM
REM
REM
REM
REM
REM ./C.cell (12c818d87b63d06a65506943cc24bca4)
REM
REM compiler GCC version 9.2.1 20190827 (Red Hat 9.2.1-1)
REM options -cpp -mtune=generic -march=x86-64 -g -O0 -fpre-include=/usr/include/finclude/math-vector-fortran.h
REM seed 2046402765 -484288 737509593 -234548947 1190361326 -599183705 -1569258313 -765967861 -628457821 -836975615 -1891043979 -734017404 451098615 423146298 -320289827 2049552082 -1946314743 1384164886 -206864315 402472662 1505334763 400084179 -112543844 959756321 1035146482 400570348 54460383 -2114401514 1602448542 -1531992118 1732452701 -1273328739 1938870560
REM
CELL 1.54180   50.00000   50.00000   50.00000   90.00000   90.00000   90.00000
LATT -1
SFAC C  
C      1  0.5496380000000  0.5218730000000  0.5392870000000 1.0
C      1  0.5471350000000  0.5358820000000  0.4800650000000 1.0
C      1  0.5482490000000  0.4772010000000  0.4668420000000 1.0
C      1  0.5497400000000  0.4611550000000  0.5232370000000 1.0
C      1  0.4570430000000  0.5222460000000  0.4600940000000 1.0
C      1  0.4543530000000  0.5395170000000  0.5225850000000 1.0
C      1  0.4560410000000  0.4795830000000  0.5340140000000 1.0
C      1  0.4551270000000  0.4626890000000  0.4771730000000 1.0
C      1  0.5490370000000  0.4606790000000  0.4936570000000 1.0
C      1  0.5476380000000  0.4922710000000  0.5340310000000 1.0
C      1  0.5504190000000  0.5379380000000  0.5128650000000 1.0
C      1  0.5469420000000  0.5058980000000  0.4699000000000 1.0
C      1  0.4562860000000  0.4638120000000  0.5068310000000 1.0
C      1  0.4592710000000  0.4929030000000  0.4655940000000 1.0
C      1  0.4492790000000  0.5377510000000  0.4893950000000 1.0
C      1  0.4548930000000  0.5121460000000  0.5345740000000 1.0
C      1  0.5295430000000  0.4421360000000  0.5352070000000 1.0
C      1  0.5294480000000  0.5314660000000  0.5617310000000 1.0
C      1  0.5296770000000  0.5558980000000  0.4657620000000 1.0
C      1  0.5305950000000  0.4673020000000  0.4449950000000 1.0
C      1  0.4750070000000  0.4429990000000  0.4657090000000 1.0
C      1  0.4792310000000  0.5311730000000  0.4404300000000 1.0
C      1  0.4796260000000  0.5586000000000  0.5288420000000 1.0
C      1  0.4742760000000  0.4685860000000  0.5548460000000 1.0
C      1  0.4963620000000  0.4318190000000  0.4845660000000 1.0
C      1  0.4969700000000  0.4826770000000  0.5738010000000 1.0
C      1  0.4992410000000  0.5631180000000  0.5050580000000 1.0
C      1  0.5009970000000  0.5098300000000  0.4395810000000 1.0
C      1  0.5073750000000  0.4317580000000  0.5163110000000 1.0
C      1  0.5072590000000  0.4845850000000  0.4292210000000 1.0
C      1  0.5062660000000  0.5745110000000  0.4796560000000 1.0
C      1  0.5077480000000  0.5098440000000  0.5677540000000 1.0
C      1  0.5210090000000  0.4884370000000  0.5193780000000 1.0
C      1  0.5192050000000  0.5390440000000  0.5083620000000 1.0
C      1  0.5166880000000  0.5140550000000  0.4661110000000 1.0
C      1  0.5234860000000  0.4493710000000  0.4844260000000 1.0
C      1  0.4853360000000  0.4881530000000  0.4817800000000 1.0
C      1  0.4784140000000  0.5277050000000  0.4933720000000 1.0
C      1  0.4860220000000  0.5044150000000  0.5421600000000 1.0
C      1  0.4812110000000  0.4510910000000  0.5159200000000 1.0
C      1  0.4981490000000  0.5577100000000  0.4509410000000 1.0
C      1  0.4977800000000  0.4561460000000  0.4440660000000 1.0
C      1  0.5067480000000  0.4562500000000  0.5562310000000 1.0
C      1  0.5020400000000  0.5509390000000  0.5535460000000 1.0
C      1  0.5025070000000  0.4699700000000  0.5267940000000 1.0
C      1  0.5041740000000  0.5277770000000  0.5323640000000 1.0
C      1  0.4967250000000  0.5362680000000  0.4754690000000 1.0
C      1  0.5033520000000  0.4696730000000  0.4738400000000 1.0
C      1  0.5148630000000  0.5093490000000  0.4982480000000 1.0
C      1  0.4844500000000  0.5014290000000  0.5100930000000 1.0
END
