TITL C-2782229-3092-721 0.00221817080460534 125000 -1102.39670387435 0 0 186 (C1) n - 1
REM
REM in /home/nfs/bkarasulu/CARBON/AIRSS/Generating-Clusters/REBO/Higher-Symm/SD-CG/HFTN-CG
REM
REM
REM
REM
REM
REM ./C.cell (12c818d87b63d06a65506943cc24bca4)
REM
REM compiler GCC version 9.2.1 20190827 (Red Hat 9.2.1-1)
REM options -cpp -mtune=generic -march=x86-64 -g -O0 -fpre-include=/usr/include/finclude/math-vector-fortran.h
REM seed -1281606906 80300925 298723246 158847949 -1130604410 1448802781 1119614246 501401075 1607172640 -787985500 -674114332 -361630665 928326850 -646979902 2085681333 -1943514360 -1053436203 -623330305 472136373 -1657740756 -38282836 104239654 -1635843546 59018261 -1958738211 2095402290 -861379962 -1827580386 1051525362 -515575183 1584931052 907592782 -1556545930
REM
CELL 1.54180   50.00000   50.00000   50.00000   90.00000   90.00000   90.00000
LATT -1
SFAC C  
C      1  0.4891300000000  0.3858650000000  0.5264920000000 1.0
C      1  0.4988730000000  0.5267610000000  0.3802740000000 1.0
C      1  0.4880200000000  0.6024620000000  0.5738730000000 1.0
C      1  0.5081940000000  0.5601980000000  0.4871150000000 1.0
C      1  0.5020950000000  0.4846100000000  0.5558330000000 1.0
C      1  0.4960120000000  0.4621940000000  0.4584920000000 1.0
C      1  0.5277760000000  0.6111140000000  0.5019730000000 1.0
C      1  0.5437640000000  0.4449820000000  0.5825180000000 1.0
C      1  0.5237290000000  0.4491650000000  0.4087580000000 1.0
C      1  0.6267930000000  0.4833920000000  0.5285370000000 1.0
C      1  0.6414130000000  0.4897250000000  0.4832890000000 1.0
C      1  0.6168800000000  0.5471920000000  0.5054000000000 1.0
C      1  0.4011260000000  0.5232160000000  0.4832030000000 1.0
C      1  0.4064690000000  0.4982260000000  0.5390350000000 1.0
C      1  0.3955450000000  0.4708090000000  0.4916520000000 1.0
C      1  0.4533280000000  0.4572930000000  0.5241840000000 1.0
C      1  0.4486560000000  0.5036500000000  0.4460150000000 1.0
C      1  0.4377230000000  0.5423120000000  0.5239540000000 1.0
C      1  0.4271500000000  0.4926650000000  0.5795860000000 1.0
C      1  0.4171600000000  0.4403800000000  0.4492420000000 1.0
C      1  0.4234560000000  0.5614090000000  0.4689960000000 1.0
C      1  0.5457030000000  0.5157040000000  0.5319450000000 1.0
C      1  0.5368440000000  0.4535960000000  0.4985340000000 1.0
C      1  0.5398090000000  0.5242360000000  0.4617850000000 1.0
C      1  0.5775050000000  0.4917330000000  0.4507200000000 1.0
C      1  0.5719650000000  0.5485720000000  0.5162290000000 1.0
C      1  0.5747670000000  0.4592570000000  0.5266320000000 1.0
C      1  0.5474570000000  0.5768370000000  0.5351240000000 1.0
C      1  0.5457220000000  0.4244420000000  0.5486010000000 1.0
C      1  0.5486020000000  0.4871960000000  0.4132210000000 1.0
C      1  0.4444040000000  0.5839190000000  0.4435010000000 1.0
C      1  0.4489200000000  0.5105670000000  0.6078060000000 1.0
C      1  0.4493820000000  0.4065180000000  0.4511110000000 1.0
C      1  0.4808400000000  0.4065600000000  0.4265740000000 1.0
C      1  0.4824000000000  0.5962810000000  0.4753600000000 1.0
C      1  0.4849620000000  0.4783630000000  0.6026250000000 1.0
C      1  0.5649780000000  0.4515510000000  0.5560910000000 1.0
C      1  0.5660400000000  0.4719760000000  0.4331340000000 1.0
C      1  0.5695530000000  0.5798840000000  0.5141510000000 1.0
C      1  0.4958780000000  0.4610230000000  0.5317970000000 1.0
C      1  0.4927720000000  0.4949610000000  0.4498440000000 1.0
C      1  0.4974890000000  0.5417190000000  0.5040830000000 1.0
C      1  0.4950520000000  0.5337410000000  0.5513490000000 1.0
C      1  0.4850530000000  0.4373050000000  0.4878140000000 1.0
C      1  0.4891790000000  0.5291810000000  0.4492930000000 1.0
C      1  0.5158640000000  0.4668520000000  0.4336190000000 1.0
C      1  0.5108910000000  0.5847600000000  0.5008750000000 1.0
C      1  0.5205790000000  0.4586010000000  0.5631270000000 1.0
C      1  0.6148490000000  0.5290970000000  0.4697880000000 1.0
C      1  0.6157740000000  0.5069540000000  0.5398780000000 1.0
C      1  0.6114720000000  0.4536350000000  0.4860160000000 1.0
C      1  0.5385100000000  0.4776330000000  0.5413790000000 1.0
C      1  0.5340520000000  0.4740320000000  0.4616260000000 1.0
C      1  0.5445040000000  0.5377150000000  0.4988570000000 1.0
C      1  0.5766760000000  0.5380440000000  0.5469140000000 1.0
C      1  0.5718580000000  0.4369710000000  0.5082470000000 1.0
C      1  0.5742090000000  0.5204860000000  0.4419240000000 1.0
C      1  0.4182730000000  0.4127010000000  0.4906660000000 1.0
C      1  0.4104200000000  0.5421020000000  0.4293990000000 1.0
C      1  0.4082450000000  0.5360990000000  0.5812920000000 1.0
C      1  0.4335050000000  0.4604700000000  0.4980310000000 1.0
C      1  0.4393340000000  0.5238010000000  0.4713200000000 1.0
C      1  0.4416260000000  0.5164420000000  0.5434710000000 1.0
C      1  0.5644520000000  0.4431830000000  0.4332180000000 1.0
C      1  0.5696380000000  0.5915010000000  0.4886330000000 1.0
C      1  0.5731990000000  0.4712140000000  0.5826050000000 1.0
C      1  0.4641580000000  0.4377730000000  0.5713660000000 1.0
C      1  0.4694170000000  0.4793550000000  0.4075010000000 1.0
C      1  0.4689930000000  0.5975480000000  0.5324830000000 1.0
C      1  0.5555910000000  0.4496040000000  0.4714810000000 1.0
C      1  0.5614070000000  0.5473020000000  0.4708180000000 1.0
C      1  0.5603420000000  0.4966280000000  0.5557540000000 1.0
C      1  0.5178180000000  0.5076210000000  0.3758210000000 1.0
C      1  0.5143820000000  0.6076830000000  0.5689490000000 1.0
C      1  0.5089580000000  0.3891860000000  0.5446990000000 1.0
C      1  0.5483020000000  0.5660500000000  0.4314900000000 1.0
C      1  0.5478730000000  0.5291130000000  0.5882580000000 1.0
C      1  0.5500620000000  0.4016240000000  0.4797420000000 1.0
C      1  0.4200600000000  0.5662240000000  0.4386360000000 1.0
C      1  0.4207960000000  0.5177850000000  0.5973280000000 1.0
C      1  0.4238970000000  0.4129250000000  0.4627260000000 1.0
C      1  0.4550890000000  0.4815490000000  0.6056670000000 1.0
C      1  0.4532390000000  0.4191840000000  0.4235150000000 1.0
C      1  0.4484460000000  0.5920390000000  0.4740760000000 1.0
C      1  0.5858680000000  0.4426230000000  0.4820110000000 1.0
C      1  0.5898870000000  0.5381530000000  0.4611580000000 1.0
C      1  0.5885590000000  0.5115520000000  0.5519220000000 1.0
C      1  0.5138350000000  0.4443100000000  0.4785000000000 1.0
C      1  0.5149750000000  0.5457990000000  0.4594410000000 1.0
C      1  0.5131060000000  0.5105170000000  0.5590010000000 1.0
C      1  0.4608990000000  0.4790900000000  0.4984830000000 1.0
C      1  0.4618250000000  0.5009610000000  0.4780170000000 1.0
C      1  0.4669030000000  0.5260050000000  0.5240120000000 1.0
C      1  0.4125120000000  0.5199720000000  0.4511500000000 1.0
C      1  0.4112200000000  0.5297940000000  0.5510590000000 1.0
C      1  0.4073720000000  0.4399600000000  0.5006870000000 1.0
C      1  0.4992590000000  0.5234580000000  0.6050630000000 1.0
C      1  0.4958760000000  0.3900150000000  0.4758930000000 1.0
C      1  0.4976370000000  0.5875450000000  0.4305570000000 1.0
C      1  0.5516940000000  0.4642370000000  0.6064220000000 1.0
C      1  0.5412490000000  0.4291960000000  0.4185920000000 1.0
C      1  0.5473710000000  0.6103040000000  0.4818180000000 1.0
C      1  0.4413100000000  0.4261860000000  0.5320220000000 1.0
C      1  0.4499870000000  0.5190680000000  0.4165350000000 1.0
C      1  0.4262030000000  0.5685170000000  0.5401740000000 1.0
C      1  0.4136100000000  0.4663930000000  0.4303750000000 1.0
C      1  0.4043890000000  0.5550800000000  0.4954810000000 1.0
C      1  0.4201580000000  0.4712250000000  0.5554380000000 1.0
C      1  0.5517760000000  0.4171000000000  0.5067850000000 1.0
C      1  0.5543790000000  0.5360620000000  0.4266810000000 1.0
C      1  0.5590680000000  0.5457900000000  0.5663670000000 1.0
C      1  0.4653310000000  0.4586570000000  0.4535230000000 1.0
C      1  0.4677440000000  0.5710860000000  0.4930750000000 1.0
C      1  0.4754690000000  0.4840070000000  0.5715550000000 1.0
C      1  0.4427170000000  0.4626870000000  0.5800860000000 1.0
C      1  0.4333950000000  0.4406940000000  0.4200830000000 1.0
C      1  0.4190760000000  0.5857010000000  0.4902970000000 1.0
C      1  0.4549090000000  0.5005920000000  0.3950830000000 1.0
C      1  0.4445980000000  0.5944650000000  0.5348690000000 1.0
C      1  0.4498660000000  0.4171090000000  0.5576630000000 1.0
C      1  0.4964150000000  0.5153650000000  0.5231420000000 1.0
C      1  0.4901630000000  0.4661010000000  0.5021420000000 1.0
C      1  0.4923120000000  0.5123260000000  0.4776750000000 1.0
C      1  0.3996840000000  0.5522500000000  0.5282540000000 1.0
C      1  0.4159670000000  0.4466210000000  0.5330990000000 1.0
C      1  0.4055940000000  0.4891090000000  0.4436090000000 1.0
C      1  0.4406880000000  0.4486280000000  0.4690840000000 1.0
C      1  0.4525330000000  0.5523230000000  0.4720300000000 1.0
C      1  0.4549770000000  0.5048410000000  0.5687840000000 1.0
C      1  0.5222220000000  0.4134400000000  0.5158260000000 1.0
C      1  0.5198960000000  0.5386850000000  0.4256110000000 1.0
C      1  0.5307920000000  0.5611540000000  0.5719750000000 1.0
C      1  0.4676870000000  0.5852210000000  0.5704440000000 1.0
C      1  0.4751660000000  0.3909240000000  0.5032320000000 1.0
C      1  0.4928730000000  0.5395650000000  0.4047640000000 1.0
C      1  0.5083890000000  0.4317430000000  0.5363650000000 1.0
C      1  0.5125640000000  0.5054940000000  0.4249650000000 1.0
C      1  0.5095530000000  0.5605140000000  0.5466370000000 1.0
C      1  0.5813160000000  0.4857790000000  0.5069950000000 1.0
C      1  0.5923450000000  0.4877120000000  0.4755950000000 1.0
C      1  0.5742030000000  0.5143390000000  0.5148120000000 1.0
C      1  0.4570970000000  0.5612860000000  0.5532730000000 1.0
C      1  0.4453580000000  0.4066660000000  0.5082040000000 1.0
C      1  0.4678160000000  0.5406280000000  0.4175190000000 1.0
C      1  0.5204790000000  0.5392890000000  0.5956580000000 1.0
C      1  0.5221130000000  0.3957140000000  0.4910750000000 1.0
C      1  0.5203530000000  0.5731310000000  0.4208100000000 1.0
C      1  0.4655480000000  0.5598440000000  0.5198320000000 1.0
C      1  0.4698240000000  0.4617740000000  0.5507200000000 1.0
C      1  0.4578130000000  0.4766500000000  0.4332610000000 1.0
C      1  0.4678670000000  0.5514170000000  0.4468170000000 1.0
C      1  0.4683440000000  0.5356150000000  0.5661560000000 1.0
C      1  0.4547200000000  0.4283740000000  0.4871570000000 1.0
C      1  0.4959510000000  0.4350570000000  0.5668830000000 1.0
C      1  0.4996000000000  0.4808380000000  0.4070990000000 1.0
C      1  0.4979390000000  0.5853230000000  0.5323550000000 1.0
C      1  0.5363170000000  0.4489060000000  0.5277320000000 1.0
C      1  0.5390420000000  0.4996720000000  0.4432580000000 1.0
C      1  0.5347990000000  0.5472220000000  0.5301190000000 1.0
C      1  0.5363790000000  0.4935330000000  0.3895530000000 1.0
C      1  0.5337290000000  0.5900270000000  0.5585960000000 1.0
C      1  0.5309480000000  0.4027550000000  0.5533130000000 1.0
C      1  0.3967720000000  0.4910060000000  0.4731120000000 1.0
C      1  0.3987410000000  0.5211350000000  0.5151090000000 1.0
C      1  0.4000930000000  0.4729560000000  0.5213280000000 1.0
C      1  0.5321630000000  0.6016070000000  0.4579410000000 1.0
C      1  0.5326610000000  0.4871290000000  0.6101410000000 1.0
C      1  0.5276020000000  0.4090410000000  0.4372370000000 1.0
C      1  0.5185460000000  0.4818250000000  0.4913660000000 1.0
C      1  0.5223060000000  0.5156780000000  0.4869980000000 1.0
C      1  0.5205880000000  0.4968990000000  0.5221600000000 1.0
C      1  0.6120020000000  0.4728650000000  0.5069750000000 1.0
C      1  0.6181260000000  0.5014730000000  0.4759300000000 1.0
C      1  0.6049890000000  0.5265520000000  0.5188480000000 1.0
C      1  0.5171090000000  0.6117300000000  0.5294840000000 1.0
C      1  0.5173310000000  0.4268500000000  0.5869500000000 1.0
C      1  0.5136800000000  0.4611190000000  0.3839160000000 1.0
C      1  0.5521000000000  0.4206270000000  0.4559220000000 1.0
C      1  0.5558160000000  0.5773240000000  0.4608780000000 1.0
C      1  0.5538850000000  0.4991670000000  0.5875240000000 1.0
C      1  0.5025220000000  0.3989350000000  0.4436090000000 1.0
C      1  0.5037860000000  0.5992010000000  0.4561440000000 1.0
C      1  0.5059730000000  0.4957530000000  0.6108440000000 1.0
C      1  0.4743790000000  0.4112870000000  0.4689800000000 1.0
C      1  0.4708120000000  0.5785690000000  0.4298080000000 1.0
C      1  0.4712810000000  0.5272830000000  0.5975520000000 1.0
END
