TITL C-2782235-7892-739 2.2752924701911e-05 125000 -801.599770053559 0 0 132 (C1) n - 1
REM
REM in /home/nfs/bkarasulu/CARBON/AIRSS/Generating-Clusters/REBO/Higher-Symm/SD-CG/HFTN-CG
REM
REM
REM
REM
REM
REM ./C.cell (12c818d87b63d06a65506943cc24bca4)
REM
REM compiler GCC version 9.2.1 20190827 (Red Hat 9.2.1-1)
REM options -cpp -mtune=generic -march=x86-64 -g -O0 -fpre-include=/usr/include/finclude/math-vector-fortran.h
REM seed -391695015 712442901 -257769237 1385557390 -41326730 -1971681327 -666980715 1760929855 -2056699158 -602598135 181970062 1395686708 228483620 -826208030 -1202802150 -1921663852 1147796649 -1703397379 -45213491 615816910 591129095 2079827431 -1764934596 -1367015677 -433589843 -300299453 344186369 420196892 94610701 -1025076696 1136276466 -980343805 1941676285
REM
CELL 1.54180   50.00000   50.00000   50.00000   90.00000   90.00000   90.00000
LATT -1
SFAC C  
C      1  0.5650460000000  0.4093690000000  0.4516560000000 1.0
C      1  0.5462840000000  0.4146010000000  0.5517550000000 1.0
C      1  0.5453150000000  0.5061230000000  0.6000320000000 1.0
C      1  0.5605170000000  0.5922520000000  0.5428510000000 1.0
C      1  0.5413990000000  0.5876310000000  0.4550010000000 1.0
C      1  0.5442360000000  0.4952600000000  0.4000380000000 1.0
C      1  0.4566980000000  0.4854180000000  0.4752570000000 1.0
C      1  0.4566610000000  0.4711750000000  0.5000710000000 1.0
C      1  0.4566140000000  0.4855410000000  0.5248230000000 1.0
C      1  0.4565990000000  0.5141530000000  0.5248100000000 1.0
C      1  0.4566790000000  0.5283910000000  0.5000070000000 1.0
C      1  0.4566990000000  0.5140430000000  0.4752340000000 1.0
C      1  0.5706830000000  0.3839540000000  0.4597620000000 1.0
C      1  0.5260970000000  0.4112260000000  0.5699350000000 1.0
C      1  0.5273950000000  0.5228180000000  0.6121960000000 1.0
C      1  0.5669750000000  0.6165820000000  0.5323800000000 1.0
C      1  0.5229620000000  0.5900620000000  0.4347660000000 1.0
C      1  0.5266010000000  0.4783760000000  0.3877330000000 1.0
C      1  0.4774640000000  0.4730360000000  0.5474520000000 1.0
C      1  0.4774910000000  0.5275160000000  0.5470050000000 1.0
C      1  0.4774550000000  0.5543540000000  0.4996060000000 1.0
C      1  0.4777110000000  0.5265560000000  0.4526970000000 1.0
C      1  0.4777110000000  0.4720550000000  0.4531400000000 1.0
C      1  0.4774610000000  0.4452180000000  0.5006190000000 1.0
C      1  0.5668100000000  0.4439950000000  0.4875760000000 1.0
C      1  0.5589510000000  0.4614520000000  0.5414820000000 1.0
C      1  0.5575070000000  0.5177020000000  0.5532090000000 1.0
C      1  0.5706160000000  0.5552270000000  0.5126340000000 1.0
C      1  0.5588310000000  0.5386660000000  0.4592680000000 1.0
C      1  0.5576350000000  0.4829940000000  0.4464240000000 1.0
C      1  0.4626500000000  0.4608850000000  0.4178280000000 1.0
C      1  0.4584850000000  0.4079870000000  0.4919340000000 1.0
C      1  0.4626180000000  0.4481060000000  0.5749380000000 1.0
C      1  0.4625360000000  0.5388340000000  0.5823120000000 1.0
C      1  0.4585090000000  0.5916570000000  0.5082820000000 1.0
C      1  0.4629750000000  0.5516470000000  0.4252910000000 1.0
C      1  0.5132720000000  0.5587700000000  0.4829200000000 1.0
C      1  0.5135340000000  0.5142070000000  0.4406270000000 1.0
C      1  0.5133470000000  0.4550660000000  0.4578360000000 1.0
C      1  0.5131730000000  0.4407590000000  0.5175160000000 1.0
C      1  0.5132200000000  0.4853590000000  0.5596980000000 1.0
C      1  0.5131510000000  0.5445080000000  0.5424940000000 1.0
C      1  0.5146250000000  0.4338720000000  0.5827170000000 1.0
C      1  0.5150630000000  0.5433150000000  0.5968360000000 1.0
C      1  0.5783210000000  0.6216950000000  0.5078470000000 1.0
C      1  0.5144440000000  0.5678700000000  0.4189910000000 1.0
C      1  0.5149150000000  0.4572960000000  0.4027980000000 1.0
C      1  0.5750530000000  0.3782550000000  0.4862900000000 1.0
C      1  0.5281850000000  0.4938040000000  0.5316230000000 1.0
C      1  0.5282460000000  0.5242090000000  0.5211750000000 1.0
C      1  0.5283300000000  0.5301740000000  0.4895900000000 1.0
C      1  0.5282800000000  0.5057900000000  0.4687760000000 1.0
C      1  0.5283250000000  0.4753660000000  0.4792270000000 1.0
C      1  0.5282530000000  0.4693580000000  0.5107990000000 1.0
C      1  0.5323320000000  0.4476120000000  0.4228860000000 1.0
C      1  0.5734070000000  0.3978130000000  0.5052220000000 1.0
C      1  0.5324800000000  0.4557640000000  0.5828810000000 1.0
C      1  0.5321770000000  0.5531860000000  0.5765510000000 1.0
C      1  0.5844360000000  0.6011790000000  0.4905720000000 1.0
C      1  0.5333750000000  0.5467640000000  0.4182020000000 1.0
C      1  0.4822380000000  0.5625530000000  0.4691220000000 1.0
C      1  0.4825960000000  0.5042780000000  0.4302760000000 1.0
C      1  0.4821990000000  0.4414170000000  0.4612740000000 1.0
C      1  0.4820640000000  0.4369990000000  0.5311390000000 1.0
C      1  0.4822560000000  0.4953160000000  0.5699220000000 1.0
C      1  0.4820110000000  0.5581630000000  0.5389740000000 1.0
C      1  0.4302000000000  0.5424860000000  0.5473320000000 1.0
C      1  0.4306320000000  0.5598930000000  0.4865990000000 1.0
C      1  0.4302500000000  0.5192200000000  0.4383030000000 1.0
C      1  0.4304330000000  0.4573250000000  0.4528940000000 1.0
C      1  0.4305110000000  0.4396970000000  0.5135330000000 1.0
C      1  0.4299890000000  0.4805420000000  0.5616880000000 1.0
C      1  0.4699400000000  0.3834300000000  0.4867180000000 1.0
C      1  0.4869440000000  0.4383890000000  0.5848320000000 1.0
C      1  0.4870850000000  0.5443280000000  0.5944760000000 1.0
C      1  0.4699480000000  0.6162180000000  0.5135060000000 1.0
C      1  0.4870850000000  0.5619840000000  0.4154530000000 1.0
C      1  0.4870050000000  0.4554580000000  0.4052820000000 1.0
C      1  0.4169010000000  0.4939180000000  0.4731090000000 1.0
C      1  0.4168790000000  0.4737520000000  0.4918350000000 1.0
C      1  0.4168180000000  0.4795080000000  0.5186840000000 1.0
C      1  0.4167870000000  0.5057910000000  0.5269640000000 1.0
C      1  0.4168380000000  0.5259610000000  0.5082310000000 1.0
C      1  0.4168940000000  0.5202110000000  0.4813880000000 1.0
C      1  0.5063300000000  0.5459830000000  0.4514500000000 1.0
C      1  0.5065010000000  0.4805590000000  0.4358810000000 1.0
C      1  0.5060960000000  0.4341990000000  0.4845710000000 1.0
C      1  0.5060520000000  0.4535440000000  0.5489610000000 1.0
C      1  0.5061980000000  0.5190110000000  0.5644030000000 1.0
C      1  0.5059910000000  0.5654210000000  0.5157880000000 1.0
C      1  0.4541140000000  0.5625030000000  0.4545230000000 1.0
C      1  0.4545920000000  0.4919630000000  0.4224370000000 1.0
C      1  0.4540300000000  0.4288940000000  0.4679870000000 1.0
C      1  0.4539070000000  0.4371150000000  0.5456740000000 1.0
C      1  0.4542960000000  0.5077420000000  0.5777250000000 1.0
C      1  0.4539210000000  0.5708030000000  0.5322240000000 1.0
C      1  0.4948820000000  0.5043060000000  0.5298280000000 1.0
C      1  0.4949450000000  0.5280470000000  0.5111500000000 1.0
C      1  0.4949250000000  0.5234260000000  0.4814100000000 1.0
C      1  0.4950010000000  0.4952660000000  0.4703960000000 1.0
C      1  0.4949700000000  0.4715490000000  0.4890920000000 1.0
C      1  0.4948780000000  0.4761250000000  0.5188980000000 1.0
C      1  0.4288160000000  0.5532850000000  0.5172300000000 1.0
C      1  0.4287750000000  0.5406110000000  0.4608270000000 1.0
C      1  0.4290760000000  0.4876610000000  0.4447080000000 1.0
C      1  0.4288970000000  0.4464080000000  0.4829410000000 1.0
C      1  0.4286270000000  0.4590440000000  0.5392330000000 1.0
C      1  0.4288460000000  0.5121360000000  0.5553970000000 1.0
C      1  0.5652460000000  0.4805600000000  0.5210620000000 1.0
C      1  0.5651030000000  0.5084890000000  0.5271620000000 1.0
C      1  0.5684730000000  0.5275620000000  0.5061840000000 1.0
C      1  0.5659350000000  0.5192950000000  0.4789900000000 1.0
C      1  0.5653390000000  0.4913680000000  0.4727430000000 1.0
C      1  0.5670000000000  0.4719750000000  0.4937790000000 1.0
C      1  0.5608170000000  0.5644400000000  0.5380110000000 1.0
C      1  0.5554290000000  0.5662620000000  0.4644920000000 1.0
C      1  0.5523560000000  0.5024490000000  0.4260840000000 1.0
C      1  0.5620090000000  0.4359610000000  0.4603950000000 1.0
C      1  0.5587820000000  0.4335750000000  0.5349740000000 1.0
C      1  0.5529480000000  0.4985250000000  0.5739370000000 1.0
C      1  0.4515290000000  0.5263570000000  0.4188260000000 1.0
C      1  0.4509140000000  0.4433060000000  0.4366830000000 1.0
C      1  0.4501360000000  0.4175990000000  0.5173480000000 1.0
C      1  0.4510810000000  0.4733690000000  0.5813390000000 1.0
C      1  0.4507030000000  0.5564650000000  0.5635510000000 1.0
C      1  0.4502960000000  0.5819840000000  0.4828520000000 1.0
C      1  0.5513430000000  0.4552990000000  0.4423170000000 1.0
C      1  0.5676950000000  0.4251030000000  0.5092490000000 1.0
C      1  0.5498930000000  0.4711480000000  0.5668740000000 1.0
C      1  0.5507230000000  0.5454870000000  0.5566320000000 1.0
C      1  0.5804940000000  0.5744950000000  0.4945220000000 1.0
C      1  0.5497690000000  0.5296370000000  0.4336510000000 1.0
END
