TITL C-2782237-5345-203 -0.00184166649843087 125000 -205.493816126579 0 0 38 (C1) n - 1
REM
REM in /home/nfs/bkarasulu/CARBON/AIRSS/Generating-Clusters/REBO/Higher-Symm/SD-CG/HFTN-CG
REM
REM
REM
REM
REM
REM ./C.cell (12c818d87b63d06a65506943cc24bca4)
REM
REM compiler GCC version 9.2.1 20190827 (Red Hat 9.2.1-1)
REM options -cpp -mtune=generic -march=x86-64 -g -O0 -fpre-include=/usr/include/finclude/math-vector-fortran.h
REM seed 1456427214 796725530 2071085588 -277799278 1780614622 -702829897 2117444754 119882804 -1040607629 -155488751 -701992119 1179366848 -75950925 2023398367 1341034472 856683877 -1163053918 964807171 -722448412 225666732 -805917457 -1153571673 1852982269 1889020247 -1829233314 1632051074 -1668801971 569898024 1501047434 427295746 230737358 -1689554072 -203277299
REM
CELL 1.54180   50.00000   50.00000   50.00000   90.00000   90.00000   90.00000
LATT -1
SFAC C  
C      1  0.5193530000000  0.5235340000000  0.4823680000000 1.0
C      1  0.5150930000000  0.4800680000000  0.4852100000000 1.0
C      1  0.5103380000000  0.5155580000000  0.4551710000000 1.0
C      1  0.5074250000000  0.4879060000000  0.4576400000000 1.0
C      1  0.4894320000000  0.5113080000000  0.5359530000000 1.0
C      1  0.4878560000000  0.4802200000000  0.5405160000000 1.0
C      1  0.5485110000000  0.4767440000000  0.4882200000000 1.0
C      1  0.5522680000000  0.5243670000000  0.4878330000000 1.0
C      1  0.4877980000000  0.5310570000000  0.4475810000000 1.0
C      1  0.4849720000000  0.4731590000000  0.4495050000000 1.0
C      1  0.4487800000000  0.5308510000000  0.4183270000000 1.0
C      1  0.4461540000000  0.4747100000000  0.4200820000000 1.0
C      1  0.5088300000000  0.4566130000000  0.5430870000000 1.0
C      1  0.5073890000000  0.5387080000000  0.5396870000000 1.0
C      1  0.4887410000000  0.4841640000000  0.5067460000000 1.0
C      1  0.4932080000000  0.5162780000000  0.5023340000000 1.0
C      1  0.4831670000000  0.5505780000000  0.4692390000000 1.0
C      1  0.4815140000000  0.4522530000000  0.4697130000000 1.0
C      1  0.4676530000000  0.5168600000000  0.4322250000000 1.0
C      1  0.4662420000000  0.4877460000000  0.4331400000000 1.0
C      1  0.4613370000000  0.5280150000000  0.5410530000000 1.0
C      1  0.4618820000000  0.4728340000000  0.5547860000000 1.0
C      1  0.4692850000000  0.4616860000000  0.4963080000000 1.0
C      1  0.4710400000000  0.5370850000000  0.4942040000000 1.0
C      1  0.5525150000000  0.5279280000000  0.5492690000000 1.0
C      1  0.5531210000000  0.4732320000000  0.5490820000000 1.0
C      1  0.5341050000000  0.4606750000000  0.5603500000000 1.0
C      1  0.5311780000000  0.5374730000000  0.5594040000000 1.0
C      1  0.5219420000000  0.4631480000000  0.5137960000000 1.0
C      1  0.5246050000000  0.5390230000000  0.5117350000000 1.0
C      1  0.5476540000000  0.4852850000000  0.5203180000000 1.0
C      1  0.5495620000000  0.5164350000000  0.5199720000000 1.0
C      1  0.4967300000000  0.4339450000000  0.5236780000000 1.0
C      1  0.4914450000000  0.5593800000000  0.5202850000000 1.0
C      1  0.5041080000000  0.4426210000000  0.4927850000000 1.0
C      1  0.5042290000000  0.5589920000000  0.4923950000000 1.0
C      1  0.4619740000000  0.5494910000000  0.5207420000000 1.0
C      1  0.4685610000000  0.4400710000000  0.5152580000000 1.0
END
