TITL C-2782229-3092-361 -0.00505173513366089 125000 -1013.33029866882 0 0 177 (C1) n - 1
REM
REM in /home/nfs/bkarasulu/CARBON/AIRSS/Generating-Clusters/REBO/Higher-Symm/SD-CG/HFTN-CG
REM
REM
REM
REM
REM
REM ./C.cell (12c818d87b63d06a65506943cc24bca4)
REM
REM compiler GCC version 9.2.1 20190827 (Red Hat 9.2.1-1)
REM options -cpp -mtune=generic -march=x86-64 -g -O0 -fpre-include=/usr/include/finclude/math-vector-fortran.h
REM seed -1152479998 -910271494 -1765205064 1144331057 2056948250 -865819224 612070078 -2073364256 102497101 1555654547 -805323564 -1414556650 -1813027864 -964646737 1383642043 192521127 -1980756171 -1355515044 1090624765 969436804 -1043873997 33861289 -1801969511 -2109128506 -827281084 -575005745 1795707571 -162052651 1290115645 590568312 -1697116005 1692104350 1202787188
REM
CELL 1.54180   50.00000   50.00000   50.00000   90.00000   90.00000   90.00000
LATT -1
SFAC C  
C      1  0.4971790000000  0.4838060000000  0.4483280000000 1.0
C      1  0.4992120000000  0.5571060000000  0.4703260000000 1.0
C      1  0.4960120000000  0.5631930000000  0.5314630000000 1.0
C      1  0.4907930000000  0.4857140000000  0.5710000000000 1.0
C      1  0.4947170000000  0.4236360000000  0.5071020000000 1.0
C      1  0.5108100000000  0.5359290000000  0.4488070000000 1.0
C      1  0.5119980000000  0.4557050000000  0.4490450000000 1.0
C      1  0.5025650000000  0.4374420000000  0.5342720000000 1.0
C      1  0.5022490000000  0.5112140000000  0.5558650000000 1.0
C      1  0.5019750000000  0.5711110000000  0.5011980000000 1.0
C      1  0.4852430000000  0.4315510000000  0.4098190000000 1.0
C      1  0.4862610000000  0.5642990000000  0.4151910000000 1.0
C      1  0.4797820000000  0.6076660000000  0.5318110000000 1.0
C      1  0.4799340000000  0.5138890000000  0.6075120000000 1.0
C      1  0.4824200000000  0.3888010000000  0.5418920000000 1.0
C      1  0.5267390000000  0.5617940000000  0.4228980000000 1.0
C      1  0.5227170000000  0.4451070000000  0.4069980000000 1.0
C      1  0.5213030000000  0.3898170000000  0.5331610000000 1.0
C      1  0.5174460000000  0.4987170000000  0.6138910000000 1.0
C      1  0.5192720000000  0.6078420000000  0.5378990000000 1.0
C      1  0.5334410000000  0.5164800000000  0.5959260000000 1.0
C      1  0.5305750000000  0.4132560000000  0.5493780000000 1.0
C      1  0.5346680000000  0.4271000000000  0.4330670000000 1.0
C      1  0.5295300000000  0.5304520000000  0.4142660000000 1.0
C      1  0.5292510000000  0.5986030000000  0.5106250000000 1.0
C      1  0.4653770000000  0.4891630000000  0.6016130000000 1.0
C      1  0.4705110000000  0.5871470000000  0.5508350000000 1.0
C      1  0.4756770000000  0.5726880000000  0.4420800000000 1.0
C      1  0.4740340000000  0.4617780000000  0.4064190000000 1.0
C      1  0.4697510000000  0.3937400000000  0.5157700000000 1.0
C      1  0.5096630000000  0.5764250000000  0.4449970000000 1.0
C      1  0.5045490000000  0.5856820000000  0.5542180000000 1.0
C      1  0.4972250000000  0.4783570000000  0.6016010000000 1.0
C      1  0.5029580000000  0.3929070000000  0.5078440000000 1.0
C      1  0.5053320000000  0.4629830000000  0.3959010000000 1.0
C      1  0.5017570000000  0.4261440000000  0.4351490000000 1.0
C      1  0.4971680000000  0.4123020000000  0.5557400000000 1.0
C      1  0.5024300000000  0.5244000000000  0.5872600000000 1.0
C      1  0.4956980000000  0.6025420000000  0.5062050000000 1.0
C      1  0.4974710000000  0.5358230000000  0.4157930000000 1.0
C      1  0.4136730000000  0.4179910000000  0.5193660000000 1.0
C      1  0.4114570000000  0.4564800000000  0.4287070000000 1.0
C      1  0.4201880000000  0.5829720000000  0.4276680000000 1.0
C      1  0.4120010000000  0.5779860000000  0.5356120000000 1.0
C      1  0.4124600000000  0.4876770000000  0.6020520000000 1.0
C      1  0.5905850000000  0.5815390000000  0.5142240000000 1.0
C      1  0.5929450000000  0.5412760000000  0.4177710000000 1.0
C      1  0.5873310000000  0.4445180000000  0.4396620000000 1.0
C      1  0.5856600000000  0.4167760000000  0.5714530000000 1.0
C      1  0.5957880000000  0.5192340000000  0.5772270000000 1.0
C      1  0.5893880000000  0.4342840000000  0.4099740000000 1.0
C      1  0.5802140000000  0.5104290000000  0.4111840000000 1.0
C      1  0.5727930000000  0.5893120000000  0.4865300000000 1.0
C      1  0.5731370000000  0.5444540000000  0.5727500000000 1.0
C      1  0.5850700000000  0.4451230000000  0.5575040000000 1.0
C      1  0.4129500000000  0.5665090000000  0.4535870000000 1.0
C      1  0.4199910000000  0.4750980000000  0.4027100000000 1.0
C      1  0.4268210000000  0.4215970000000  0.4884500000000 1.0
C      1  0.4174280000000  0.4684270000000  0.5776010000000 1.0
C      1  0.4201220000000  0.5577610000000  0.5613080000000 1.0
C      1  0.4120220000000  0.4479030000000  0.4932430000000 1.0
C      1  0.4225580000000  0.4946890000000  0.4300950000000 1.0
C      1  0.4005430000000  0.5488410000000  0.4701180000000 1.0
C      1  0.4010590000000  0.5406840000000  0.5438020000000 1.0
C      1  0.4033390000000  0.4679130000000  0.5539710000000 1.0
C      1  0.5798980000000  0.5555390000000  0.4859280000000 1.0
C      1  0.5723660000000  0.4974240000000  0.4417340000000 1.0
C      1  0.5794930000000  0.4392130000000  0.4877480000000 1.0
C      1  0.5950710000000  0.4678720000000  0.5461060000000 1.0
C      1  0.5833230000000  0.5334450000000  0.5421690000000 1.0
C      1  0.5458670000000  0.3933070000000  0.4863020000000 1.0
C      1  0.5421850000000  0.4931170000000  0.3932690000000 1.0
C      1  0.5494930000000  0.5946110000000  0.4639810000000 1.0
C      1  0.5456710000000  0.5645370000000  0.5731660000000 1.0
C      1  0.5355600000000  0.4511940000000  0.5938510000000 1.0
C      1  0.4603700000000  0.5987540000000  0.4879280000000 1.0
C      1  0.4574270000000  0.5156380000000  0.4008460000000 1.0
C      1  0.4639490000000  0.4074280000000  0.4567850000000 1.0
C      1  0.4566570000000  0.4336090000000  0.5691120000000 1.0
C      1  0.4676050000000  0.5437810000000  0.5840370000000 1.0
C      1  0.5541440000000  0.4969210000000  0.5366550000000 1.0
C      1  0.5554220000000  0.4672830000000  0.5199000000000 1.0
C      1  0.5379810000000  0.4778730000000  0.4697940000000 1.0
C      1  0.5447170000000  0.5112940000000  0.4670800000000 1.0
C      1  0.5407930000000  0.5403410000000  0.5006600000000 1.0
C      1  0.4364130000000  0.5062250000000  0.5282870000000 1.0
C      1  0.4354810000000  0.5299000000000  0.5068200000000 1.0
C      1  0.4507660000000  0.5208360000000  0.4813030000000 1.0
C      1  0.4450430000000  0.4814470000000  0.4667820000000 1.0
C      1  0.4455330000000  0.4769680000000  0.5143300000000 1.0
C      1  0.3877390000000  0.4917920000000  0.5487820000000 1.0
C      1  0.3995540000000  0.4451280000000  0.5223460000000 1.0
C      1  0.4058590000000  0.4748500000000  0.4522280000000 1.0
C      1  0.3993330000000  0.5213630000000  0.4625930000000 1.0
C      1  0.3944710000000  0.5580570000000  0.5195000000000 1.0
C      1  0.6042640000000  0.5079470000000  0.5495530000000 1.0
C      1  0.5936080000000  0.5503140000000  0.5159640000000 1.0
C      1  0.5905190000000  0.5251300000000  0.4454130000000 1.0
C      1  0.5850590000000  0.4543800000000  0.4648780000000 1.0
C      1  0.6102870000000  0.4649300000000  0.5187950000000 1.0
C      1  0.5163650000000  0.4857360000000  0.3833300000000 1.0
C      1  0.5233850000000  0.6014710000000  0.4547290000000 1.0
C      1  0.5222640000000  0.5792190000000  0.5786350000000 1.0
C      1  0.5094140000000  0.4513070000000  0.6045440000000 1.0
C      1  0.5197900000000  0.3846260000000  0.4844890000000 1.0
C      1  0.4832160000000  0.5205430000000  0.3946530000000 1.0
C      1  0.4901850000000  0.4020770000000  0.4483250000000 1.0
C      1  0.4802460000000  0.4213650000000  0.5785310000000 1.0
C      1  0.4904710000000  0.5517290000000  0.6008760000000 1.0
C      1  0.4843730000000  0.6159770000000  0.4808940000000 1.0
C      1  0.4447600000000  0.5733610000000  0.5438080000000 1.0
C      1  0.4412160000000  0.4915440000000  0.5841700000000 1.0
C      1  0.4468600000000  0.4124180000000  0.5143340000000 1.0
C      1  0.4435510000000  0.4551850000000  0.4171610000000 1.0
C      1  0.4437420000000  0.5617630000000  0.4399290000000 1.0
C      1  0.5629530000000  0.4213830000000  0.5467010000000 1.0
C      1  0.5638420000000  0.5147510000000  0.5859730000000 1.0
C      1  0.5580480000000  0.5862140000000  0.5171270000000 1.0
C      1  0.5596300000000  0.5352390000000  0.4221580000000 1.0
C      1  0.5594840000000  0.4444880000000  0.4227390000000 1.0
C      1  0.5530590000000  0.5609740000000  0.4672070000000 1.0
C      1  0.5406130000000  0.5460270000000  0.5501540000000 1.0
C      1  0.5417660000000  0.4624000000000  0.5697480000000 1.0
C      1  0.5514690000000  0.4239270000000  0.4882440000000 1.0
C      1  0.5442060000000  0.4945380000000  0.4240620000000 1.0
C      1  0.4599480000000  0.4327750000000  0.4685810000000 1.0
C      1  0.4569180000000  0.4535960000000  0.5491560000000 1.0
C      1  0.4647340000000  0.5323120000000  0.5587220000000 1.0
C      1  0.4566180000000  0.5719390000000  0.4921180000000 1.0
C      1  0.4519170000000  0.5071390000000  0.4300520000000 1.0
C      1  0.4042510000000  0.5126910000000  0.5340400000000 1.0
C      1  0.4123690000000  0.4754650000000  0.5219260000000 1.0
C      1  0.4150810000000  0.4759100000000  0.4821170000000 1.0
C      1  0.4265670000000  0.5075910000000  0.4609530000000 1.0
C      1  0.4050530000000  0.5366600000000  0.4990530000000 1.0
C      1  0.5842310000000  0.4940200000000  0.5269260000000 1.0
C      1  0.5684950000000  0.5275510000000  0.5120000000000 1.0
C      1  0.5749790000000  0.5260510000000  0.4726740000000 1.0
C      1  0.5716870000000  0.4819160000000  0.4680830000000 1.0
C      1  0.5830820000000  0.4555640000000  0.5100750000000 1.0
C      1  0.5503000000000  0.4346060000000  0.5187470000000 1.0
C      1  0.5420000000000  0.4659560000000  0.4381860000000 1.0
C      1  0.5445090000000  0.5387060000000  0.4502230000000 1.0
C      1  0.5467370000000  0.5579960000000  0.5259890000000 1.0
C      1  0.5503720000000  0.4910930000000  0.5668350000000 1.0
C      1  0.4496290000000  0.5550100000000  0.5163800000000 1.0
C      1  0.4558740000000  0.5314250000000  0.4493640000000 1.0
C      1  0.4517200000000  0.4555130000000  0.4501990000000 1.0
C      1  0.4537560000000  0.4456750000000  0.5185130000000 1.0
C      1  0.4500750000000  0.5059890000000  0.5550800000000 1.0
C      1  0.5266150000000  0.4788850000000  0.5145120000000 1.0
C      1  0.5087390000000  0.4766720000000  0.4875490000000 1.0
C      1  0.5126010000000  0.5073480000000  0.4741310000000 1.0
C      1  0.5120610000000  0.5263620000000  0.4992430000000 1.0
C      1  0.5279850000000  0.5101710000000  0.5232680000000 1.0
C      1  0.4950380000000  0.5011200000000  0.5247750000000 1.0
C      1  0.4804390000000  0.5137500000000  0.4966160000000 1.0
C      1  0.4746880000000  0.4903100000000  0.4725450000000 1.0
C      1  0.4769480000000  0.4743850000000  0.5012090000000 1.0
C      1  0.4981370000000  0.4670960000000  0.5248190000000 1.0
C      1  0.5324480000000  0.5193350000000  0.5616900000000 1.0
C      1  0.5325410000000  0.4469690000000  0.5454320000000 1.0
C      1  0.5335010000000  0.4353830000000  0.4660260000000 1.0
C      1  0.5158920000000  0.5060230000000  0.4348110000000 1.0
C      1  0.5324420000000  0.5707030000000  0.4909340000000 1.0
C      1  0.4669780000000  0.4786210000000  0.5567350000000 1.0
C      1  0.4733770000000  0.5467410000000  0.5360050000000 1.0
C      1  0.4681360000000  0.5551840000000  0.4704160000000 1.0
C      1  0.4690330000000  0.4804320000000  0.4342930000000 1.0
C      1  0.4720810000000  0.4356760000000  0.4941140000000 1.0
C      1  0.4985830000000  0.5063800000000  0.3761360000000 1.0
C      1  0.5076010000000  0.5736620000000  0.6020580000000 1.0
C      1  0.4927790000000  0.4289610000000  0.6023070000000 1.0
C      1  0.5045210000000  0.6214560000000  0.4619460000000 1.0
C      1  0.5065150000000  0.3827480000000  0.4599680000000 1.0
C      1  0.4068290000000  0.5024970000000  0.5016870000000 1.0
C      1  0.5796990000000  0.5005000000000  0.4947030000000 1.0
END
