TITL C-2782227-3064-1325 -0.000122928080194201 125000 -668.974332936346 0 0 112 (T23) n - 1
REM
REM in /home/nfs/bkarasulu/CARBON/AIRSS/Generating-Clusters/REBO/Higher-Symm/SD-CG/HFTN-CG
REM
REM
REM
REM
REM
REM ./C.cell (12c818d87b63d06a65506943cc24bca4)
REM
REM compiler GCC version 9.2.1 20190827 (Red Hat 9.2.1-1)
REM options -cpp -mtune=generic -march=x86-64 -g -O0 -fpre-include=/usr/include/finclude/math-vector-fortran.h
REM seed -50493022 -120780734 -1606171024 -1174923819 -1022154168 1969337481 594580408 1395645161 1448774878 1303303759 1158704287 -1831982309 1441691410 -1344849343 -1148404945 686654538 -863747417 -907949881 1925717545 790067198 2100814202 -1695486604 206708914 1510024926 805371932 -1994958844 -162322830 -36491265 -1998014590 -1271458058 -1461906023 -225868317 -2094288637
REM
CELL 1.54180   50.00000   50.00000   50.00000   90.00000   90.00000   90.00000
LATT -1
SFAC C  
C      1  0.4879840000000  0.5534880000000  0.5716240000000 1.0
C      1  0.5719380000000  0.4875920000000  0.5534490000000 1.0
C      1  0.5538260000000  0.5716090000000  0.4876160000000 1.0
C      1  0.4878820000000  0.4471630000000  0.4289780000000 1.0
C      1  0.5133100000000  0.4471010000000  0.5715750000000 1.0
C      1  0.5132880000000  0.5535300000000  0.4290060000000 1.0
C      1  0.5719010000000  0.5129960000000  0.4470810000000 1.0
C      1  0.4293400000000  0.5130100000000  0.5535200000000 1.0
C      1  0.4292840000000  0.4876840000000  0.4471340000000 1.0
C      1  0.5537830000000  0.4289920000000  0.5129290000000 1.0
C      1  0.4473950000000  0.4290410000000  0.4876100000000 1.0
C      1  0.4474600000000  0.5716390000000  0.5130270000000 1.0
C      1  0.5489040000000  0.4398620000000  0.4871230000000 1.0
C      1  0.4874780000000  0.5486640000000  0.4398740000000 1.0
C      1  0.4401870000000  0.4871960000000  0.5486340000000 1.0
C      1  0.5489610000000  0.5607420000000  0.5134260000000 1.0
C      1  0.4523160000000  0.5607880000000  0.4872090000000 1.0
C      1  0.4522830000000  0.4398890000000  0.5134240000000 1.0
C      1  0.4874950000000  0.4519870000000  0.5607290000000 1.0
C      1  0.5137010000000  0.4520210000000  0.4398280000000 1.0
C      1  0.5137900000000  0.5486100000000  0.5607520000000 1.0
C      1  0.4401550000000  0.5134900000000  0.4520100000000 1.0
C      1  0.5610870000000  0.5134100000000  0.5485910000000 1.0
C      1  0.5610350000000  0.4871860000000  0.4519480000000 1.0
C      1  0.4261390000000  0.5380340000000  0.4562620000000 1.0
C      1  0.4565250000000  0.4258510000000  0.5379570000000 1.0
C      1  0.5382370000000  0.4562540000000  0.4257910000000 1.0
C      1  0.4261490000000  0.4626630000000  0.5443940000000 1.0
C      1  0.5750550000000  0.4626390000000  0.4561700000000 1.0
C      1  0.5751210000000  0.5379460000000  0.5443570000000 1.0
C      1  0.4565480000000  0.5748230000000  0.4626720000000 1.0
C      1  0.5447400000000  0.5747620000000  0.5379730000000 1.0
C      1  0.5446510000000  0.4258450000000  0.4625800000000 1.0
C      1  0.5383340000000  0.5443590000000  0.5747670000000 1.0
C      1  0.4629310000000  0.5444410000000  0.4258560000000 1.0
C      1  0.4629620000000  0.4562280000000  0.5747680000000 1.0
C      1  0.5299790000000  0.5160750000000  0.5441250000000 1.0
C      1  0.5444710000000  0.5296360000000  0.5160690000000 1.0
C      1  0.5164270000000  0.5441410000000  0.5296430000000 1.0
C      1  0.5299290000000  0.4845440000000  0.4564400000000 1.0
C      1  0.4712910000000  0.4845340000000  0.5441390000000 1.0
C      1  0.4712650000000  0.5161290000000  0.4564770000000 1.0
C      1  0.5444350000000  0.4709720000000  0.4844840000000 1.0
C      1  0.4567750000000  0.4709930000000  0.5160860000000 1.0
C      1  0.4567830000000  0.5296810000000  0.4845440000000 1.0
C      1  0.5163690000000  0.4564880000000  0.4709350000000 1.0
C      1  0.4848310000000  0.4564790000000  0.5296250000000 1.0
C      1  0.4848380000000  0.5441740000000  0.4709800000000 1.0
C      1  0.5687340000000  0.4850150000000  0.5005340000000 1.0
C      1  0.5009090000000  0.5684500000000  0.4850400000000 1.0
C      1  0.4853660000000  0.5005750000000  0.5684260000000 1.0
C      1  0.5687450000000  0.5155750000000  0.4999980000000 1.0
C      1  0.4324980000000  0.5156260000000  0.5006040000000 1.0
C      1  0.4324870000000  0.4850660000000  0.5000460000000 1.0
C      1  0.5008710000000  0.4321910000000  0.5155510000000 1.0
C      1  0.5003100000000  0.4322020000000  0.4849910000000 1.0
C      1  0.5003740000000  0.5684390000000  0.5156010000000 1.0
C      1  0.4853060000000  0.5000770000000  0.4321780000000 1.0
C      1  0.5159260000000  0.5000160000000  0.5684130000000 1.0
C      1  0.5158670000000  0.5006130000000  0.4321650000000 1.0
C      1  0.5972110000000  0.4425340000000  0.4993320000000 1.0
C      1  0.4997260000000  0.5969580000000  0.4425800000000 1.0
C      1  0.4429070000000  0.4994060000000  0.5969370000000 1.0
C      1  0.5972540000000  0.5580350000000  0.5011760000000 1.0
C      1  0.4040210000000  0.5581080000000  0.4994580000000 1.0
C      1  0.4039780000000  0.4426050000000  0.5012180000000 1.0
C      1  0.4997040000000  0.4036830000000  0.5580120000000 1.0
C      1  0.5014560000000  0.4037250000000  0.4425090000000 1.0
C      1  0.5015780000000  0.5969160000000  0.5580810000000 1.0
C      1  0.4428230000000  0.5012780000000  0.4037050000000 1.0
C      1  0.5584090000000  0.5011650000000  0.5968870000000 1.0
C      1  0.5583250000000  0.4994330000000  0.4036540000000 1.0
C      1  0.5818770000000  0.5725940000000  0.4830170000000 1.0
C      1  0.4834080000000  0.5815420000000  0.5726310000000 1.0
C      1  0.5729430000000  0.4829940000000  0.5814990000000 1.0
C      1  0.5818380000000  0.4279860000000  0.5175040000000 1.0
C      1  0.4193400000000  0.4280590000000  0.4830350000000 1.0
C      1  0.4194090000000  0.5726420000000  0.5176270000000 1.0
C      1  0.4832840000000  0.4191120000000  0.4279760000000 1.0
C      1  0.5178870000000  0.4190460000000  0.5725560000000 1.0
C      1  0.5178850000000  0.5815820000000  0.4280200000000 1.0
C      1  0.5728850000000  0.5175930000000  0.4190290000000 1.0
C      1  0.4283600000000  0.5175880000000  0.5815750000000 1.0
C      1  0.4282760000000  0.4831070000000  0.4190790000000 1.0
C      1  0.5747040000000  0.4732330000000  0.5294850000000 1.0
C      1  0.5298630000000  0.5744050000000  0.4732610000000 1.0
C      1  0.4736100000000  0.5295350000000  0.5744030000000 1.0
C      1  0.5746990000000  0.5273530000000  0.4710420000000 1.0
C      1  0.4265530000000  0.5273870000000  0.5295690000000 1.0
C      1  0.4265080000000  0.4733090000000  0.4710870000000 1.0
C      1  0.5298320000000  0.4262140000000  0.5273050000000 1.0
C      1  0.4713450000000  0.4262560000000  0.4732320000000 1.0
C      1  0.4714240000000  0.5744070000000  0.5273850000000 1.0
C      1  0.4735240000000  0.4711260000000  0.4262110000000 1.0
C      1  0.5276870000000  0.4710520000000  0.5743590000000 1.0
C      1  0.5276440000000  0.5295690000000  0.4262090000000 1.0
C      1  0.5383980000000  0.5175890000000  0.5849270000000 1.0
C      1  0.5852790000000  0.5380220000000  0.5175860000000 1.0
C      1  0.5179770000000  0.5849410000000  0.5380580000000 1.0
C      1  0.5383120000000  0.4830240000000  0.4156320000000 1.0
C      1  0.4629070000000  0.4829900000000  0.5849470000000 1.0
C      1  0.4628470000000  0.5176790000000  0.4156770000000 1.0
C      1  0.5852360000000  0.4625560000000  0.4829320000000 1.0
C      1  0.4159680000000  0.4626070000000  0.5176320000000 1.0
C      1  0.4159820000000  0.5380970000000  0.4830330000000 1.0
C      1  0.5178810000000  0.4156870000000  0.4625180000000 1.0
C      1  0.4832870000000  0.4156720000000  0.5380110000000 1.0
C      1  0.4833180000000  0.5849820000000  0.4625950000000 1.0
C      1  0.5586290000000  0.5582440000000  0.5582580000000 1.0
C      1  0.5585360000000  0.4423530000000  0.4422830000000 1.0
C      1  0.4426530000000  0.4423550000000  0.5582660000000 1.0
C      1  0.4426460000000  0.5583300000000  0.4423750000000 1.0
END
