TITL C-2782230-7391-589 -0.00246023868041741 125000 -660.065948694722 0 0 114 (C1) n - 1
REM
REM in /home/nfs/bkarasulu/CARBON/AIRSS/Generating-Clusters/REBO/Higher-Symm/SD-CG/HFTN-CG
REM
REM
REM
REM
REM
REM ./C.cell (12c818d87b63d06a65506943cc24bca4)
REM
REM compiler GCC version 9.2.1 20190827 (Red Hat 9.2.1-1)
REM options -cpp -mtune=generic -march=x86-64 -g -O0 -fpre-include=/usr/include/finclude/math-vector-fortran.h
REM seed -1177904645 609446404 597905923 -2004928602 -1117151420 2032954778 -1428684320 -367402516 -1465541522 -1375713955 680403513 719847470 1516397904 529506252 -664218603 1481867646 1740984810 -1212903718 -1353585351 -864059135 -36089426 2013962430 -680798308 480620955 -1131874293 -1418820551 1642950183 1400349023 -416527373 -1332002730 -516067548 -1895959720 -480346714
REM
CELL 1.54180   50.00000   50.00000   50.00000   90.00000   90.00000   90.00000
LATT -1
SFAC C  
C      1  0.5278050000000  0.4989100000000  0.5556420000000 1.0
C      1  0.4754430000000  0.5560000000000  0.5006920000000 1.0
C      1  0.5292950000000  0.5009470000000  0.4473070000000 1.0
C      1  0.4725450000000  0.4427010000000  0.4986820000000 1.0
C      1  0.5308950000000  0.4500790000000  0.5746750000000 1.0
C      1  0.4700070000000  0.5766920000000  0.5500570000000 1.0
C      1  0.5295130000000  0.5486550000000  0.4242860000000 1.0
C      1  0.4688910000000  0.4266890000000  0.4482290000000 1.0
C      1  0.4328270000000  0.4456460000000  0.4994100000000 1.0
C      1  0.5674790000000  0.4997910000000  0.5519500000000 1.0
C      1  0.4362450000000  0.5492000000000  0.5032570000000 1.0
C      1  0.5691150000000  0.5021780000000  0.4485530000000 1.0
C      1  0.4693390000000  0.4179480000000  0.5196220000000 1.0
C      1  0.5321860000000  0.5204680000000  0.5807960000000 1.0
C      1  0.4657080000000  0.5815600000000  0.4807340000000 1.0
C      1  0.5362050000000  0.4818470000000  0.4197470000000 1.0
C      1  0.5214910000000  0.5539860000000  0.5621780000000 1.0
C      1  0.4779960000000  0.5609550000000  0.4490650000000 1.0
C      1  0.5216560000000  0.4499340000000  0.4384670000000 1.0
C      1  0.4799030000000  0.4373440000000  0.5528970000000 1.0
C      1  0.5208010000000  0.5646350000000  0.4773060000000 1.0
C      1  0.4801870000000  0.4789950000000  0.4339390000000 1.0
C      1  0.5199960000000  0.4261590000000  0.5261640000000 1.0
C      1  0.4795260000000  0.5260710000000  0.5671360000000 1.0
C      1  0.5573030000000  0.5496870000000  0.5450590000000 1.0
C      1  0.4414770000000  0.5450540000000  0.4520000000000 1.0
C      1  0.5582920000000  0.4512880000000  0.4544350000000 1.0
C      1  0.4420090000000  0.4491870000000  0.5490620000000 1.0
C      1  0.4593790000000  0.5473880000000  0.5643460000000 1.0
C      1  0.5397560000000  0.5645560000000  0.4528500000000 1.0
C      1  0.4619970000000  0.4544200000000  0.4296810000000 1.0
C      1  0.5399520000000  0.4292740000000  0.5491480000000 1.0
C      1  0.5000280000000  0.4633600000000  0.5832680000000 1.0
C      1  0.4994570000000  0.5873660000000  0.5354370000000 1.0
C      1  0.4995350000000  0.5343560000000  0.4149820000000 1.0
C      1  0.4986690000000  0.4146930000000  0.4608270000000 1.0
C      1  0.5590740000000  0.4754800000000  0.4394150000000 1.0
C      1  0.4441310000000  0.4336940000000  0.5256890000000 1.0
C      1  0.5561180000000  0.5268260000000  0.5622430000000 1.0
C      1  0.4436880000000  0.5607390000000  0.4759080000000 1.0
C      1  0.5584980000000  0.5495730000000  0.5138870000000 1.0
C      1  0.4388850000000  0.5132580000000  0.4503830000000 1.0
C      1  0.5587080000000  0.4502730000000  0.4864270000000 1.0
C      1  0.4424540000000  0.4807920000000  0.5514060000000 1.0
C      1  0.4524200000000  0.4371160000000  0.4729170000000 1.0
C      1  0.5481060000000  0.4738470000000  0.5627390000000 1.0
C      1  0.4551550000000  0.5600670000000  0.5269970000000 1.0
C      1  0.5488740000000  0.5269310000000  0.4368140000000 1.0
C      1  0.5593110000000  0.4307350000000  0.5241730000000 1.0
C      1  0.4370230000000  0.5274840000000  0.5640360000000 1.0
C      1  0.5603370000000  0.5695490000000  0.4761850000000 1.0
C      1  0.4405030000000  0.4769670000000  0.4306500000000 1.0
C      1  0.5038900000000  0.5321080000000  0.5789090000000 1.0
C      1  0.4957200000000  0.5761100000000  0.4727050000000 1.0
C      1  0.5059200000000  0.4750760000000  0.4236110000000 1.0
C      1  0.4951240000000  0.4159100000000  0.5337490000000 1.0
C      1  0.4701330000000  0.4796430000000  0.5802460000000 1.0
C      1  0.5301330000000  0.5893100000000  0.5279890000000 1.0
C      1  0.4692060000000  0.5289850000000  0.4123860000000 1.0
C      1  0.5285820000000  0.4115560000000  0.4670210000000 1.0
C      1  0.3998740000000  0.5210560000000  0.4900690000000 1.0
C      1  0.5960280000000  0.4890490000000  0.4749610000000 1.0
C      1  0.4051040000000  0.4839500000000  0.5036270000000 1.0
C      1  0.5959830000000  0.5009980000000  0.5130680000000 1.0
C      1  0.5290050000000  0.4488260000000  0.5033090000000 1.0
C      1  0.4718900000000  0.4988960000000  0.5519610000000 1.0
C      1  0.5292130000000  0.5471840000000  0.4983990000000 1.0
C      1  0.4695190000000  0.4984390000000  0.4524900000000 1.0
C      1  0.4574360000000  0.5258710000000  0.5288620000000 1.0
C      1  0.5525560000000  0.5309200000000  0.4702910000000 1.0
C      1  0.4541420000000  0.4713380000000  0.4779570000000 1.0
C      1  0.5461020000000  0.4762840000000  0.5283210000000 1.0
C      1  0.4431990000000  0.5010150000000  0.5787520000000 1.0
C      1  0.5490510000000  0.5809100000000  0.5041420000000 1.0
C      1  0.4497750000000  0.5057390000000  0.4189010000000 1.0
C      1  0.5449900000000  0.4200900000000  0.4949510000000 1.0
C      1  0.5509740000000  0.5010300000000  0.4808640000000 1.0
C      1  0.4441860000000  0.4771880000000  0.5088150000000 1.0
C      1  0.5552710000000  0.5064920000000  0.5199560000000 1.0
C      1  0.4408180000000  0.5160220000000  0.5009090000000 1.0
C      1  0.5414770000000  0.4278240000000  0.4458360000000 1.0
C      1  0.4608650000000  0.4497210000000  0.5740060000000 1.0
C      1  0.5417370000000  0.5746020000000  0.5519560000000 1.0
C      1  0.4578500000000  0.5524040000000  0.4277180000000 1.0
C      1  0.5142890000000  0.5249780000000  0.5125810000000 1.0
C      1  0.4792050000000  0.5118840000000  0.4759590000000 1.0
C      1  0.5144210000000  0.4727630000000  0.4913960000000 1.0
C      1  0.4851740000000  0.4870710000000  0.5266440000000 1.0
C      1  0.5716450000000  0.4564780000000  0.5236540000000 1.0
C      1  0.4217300000000  0.5223710000000  0.5363260000000 1.0
C      1  0.5812530000000  0.5443990000000  0.4779760000000 1.0
C      1  0.4282580000000  0.4753860000000  0.4570670000000 1.0
C      1  0.4082720000000  0.5363860000000  0.5119830000000 1.0
C      1  0.5933070000000  0.5164320000000  0.4639290000000 1.0
C      1  0.4148310000000  0.4671600000000  0.4838920000000 1.0
C      1  0.5854180000000  0.4829180000000  0.5310480000000 1.0
C      1  0.4785140000000  0.5401450000000  0.4747610000000 1.0
C      1  0.5215540000000  0.4744860000000  0.4602930000000 1.0
C      1  0.4781340000000  0.4562560000000  0.5261980000000 1.0
C      1  0.5209980000000  0.5265260000000  0.5432090000000 1.0
C      1  0.5197140000000  0.5269930000000  0.4639970000000 1.0
C      1  0.4872080000000  0.4633460000000  0.4776960000000 1.0
C      1  0.5136750000000  0.4766360000000  0.5352960000000 1.0
C      1  0.4877670000000  0.5372200000000  0.5239170000000 1.0
C      1  0.5714750000000  0.4787220000000  0.4827190000000 1.0
C      1  0.4235490000000  0.4924570000000  0.5292420000000 1.0
C      1  0.5772900000000  0.5257920000000  0.5046710000000 1.0
C      1  0.4222870000000  0.5085850000000  0.4761640000000 1.0
C      1  0.4936500000000  0.4468540000000  0.4535650000000 1.0
C      1  0.5076330000000  0.4532300000000  0.5527650000000 1.0
C      1  0.4946220000000  0.5562560000000  0.5457010000000 1.0
C      1  0.5051490000000  0.5459050000000  0.4456460000000 1.0
C      1  0.5270550000000  0.4988580000000  0.5016310000000 1.0
C      1  0.4699770000000  0.4986680000000  0.5023940000000 1.0
END
