TITL C-2782240-8521-1223 0.000331225726136723 125000 -312.81510658991 0 0 55 (C1) n - 1
REM
REM in /home/nfs/bkarasulu/CARBON/AIRSS/Generating-Clusters/REBO/Higher-Symm/SD-CG/HFTN-CG
REM
REM
REM
REM
REM
REM ./C.cell (12c818d87b63d06a65506943cc24bca4)
REM
REM compiler GCC version 9.2.1 20190827 (Red Hat 9.2.1-1)
REM options -cpp -mtune=generic -march=x86-64 -g -O0 -fpre-include=/usr/include/finclude/math-vector-fortran.h
REM seed -691924360 -1024168541 -403785376 -1540293872 1333342726 1776136299 -1373192391 -1155549328 -594794026 65014822 -963939199 1502880938 -427253977 -2088307890 1702310855 -1583906569 -1822960193 1201210481 334029744 1722206511 585383014 -1321378701 1031204398 -634092452 166476708 -1628287841 -1219652424 -1906929133 -76813603 2129868218 1453982940 -949091572 -133341531
REM
CELL 1.54180   50.00000   50.00000   50.00000   90.00000   90.00000   90.00000
LATT -1
SFAC C  
C      1  0.4328410000000  0.5189690000000  0.5319140000000 1.0
C      1  0.5085450000000  0.5157750000000  0.4287230000000 1.0
C      1  0.5518450000000  0.5205640000000  0.5461230000000 1.0
C      1  0.5660650000000  0.4757270000000  0.5249700000000 1.0
C      1  0.4901640000000  0.4812600000000  0.4369480000000 1.0
C      1  0.4538330000000  0.4855220000000  0.5378310000000 1.0
C      1  0.5179920000000  0.4489560000000  0.5216450000000 1.0
C      1  0.4643440000000  0.4481680000000  0.5021590000000 1.0
C      1  0.5109930000000  0.4466980000000  0.4747610000000 1.0
C      1  0.4752960000000  0.5500620000000  0.5306200000000 1.0
C      1  0.5330440000000  0.5506820000000  0.5051290000000 1.0
C      1  0.4825190000000  0.5437370000000  0.4678010000000 1.0
C      1  0.5351320000000  0.5120270000000  0.4726420000000 1.0
C      1  0.5214790000000  0.5070270000000  0.5522050000000 1.0
C      1  0.4504450000000  0.5085690000000  0.4916960000000 1.0
C      1  0.4747470000000  0.4899210000000  0.4659900000000 1.0
C      1  0.4861830000000  0.4943050000000  0.5389350000000 1.0
C      1  0.5419670000000  0.4862320000000  0.4798180000000 1.0
C      1  0.4966260000000  0.4557600000000  0.5387650000000 1.0
C      1  0.4596930000000  0.4541620000000  0.4752900000000 1.0
C      1  0.5390440000000  0.4463630000000  0.4792500000000 1.0
C      1  0.5020360000000  0.5545050000000  0.5442630000000 1.0
C      1  0.5318490000000  0.5516410000000  0.4742720000000 1.0
C      1  0.4540410000000  0.5413980000000  0.4823220000000 1.0
C      1  0.4939610000000  0.5240150000000  0.5542370000000 1.0
C      1  0.4546300000000  0.5164910000000  0.4591380000000 1.0
C      1  0.5565230000000  0.5322200000000  0.4785580000000 1.0
C      1  0.5069510000000  0.4771800000000  0.5598720000000 1.0
C      1  0.5520560000000  0.4662170000000  0.4604460000000 1.0
C      1  0.4426780000000  0.4810030000000  0.4730520000000 1.0
C      1  0.4466130000000  0.5123300000000  0.5577170000000 1.0
C      1  0.4803510000000  0.5092360000000  0.4199280000000 1.0
C      1  0.5692780000000  0.5070390000000  0.5205360000000 1.0
C      1  0.5560650000000  0.4870970000000  0.5519470000000 1.0
C      1  0.5224630000000  0.4888980000000  0.4293580000000 1.0
C      1  0.4262620000000  0.4927440000000  0.5192250000000 1.0
C      1  0.5057300000000  0.5218460000000  0.4792840000000 1.0
C      1  0.5193980000000  0.5252820000000  0.5234530000000 1.0
C      1  0.4716170000000  0.5223150000000  0.5126670000000 1.0
C      1  0.4936410000000  0.4722390000000  0.4855620000000 1.0
C      1  0.5016050000000  0.4844160000000  0.5113580000000 1.0
C      1  0.5313720000000  0.4756520000000  0.5052320000000 1.0
C      1  0.5504490000000  0.4491260000000  0.5113150000000 1.0
C      1  0.4707250000000  0.4592070000000  0.5277310000000 1.0
C      1  0.4846590000000  0.4530140000000  0.4552050000000 1.0
C      1  0.4455500000000  0.5441690000000  0.5151790000000 1.0
C      1  0.5354550000000  0.5497290000000  0.5391650000000 1.0
C      1  0.5113550000000  0.5381120000000  0.4506150000000 1.0
C      1  0.4197390000000  0.4832460000000  0.4950220000000 1.0
C      1  0.5450560000000  0.4733040000000  0.4339420000000 1.0
C      1  0.5379150000000  0.4741580000000  0.5677550000000 1.0
C      1  0.5745330000000  0.5236220000000  0.4984190000000 1.0
C      1  0.4580010000000  0.5214640000000  0.4296040000000 1.0
C      1  0.4673360000000  0.5240880000000  0.5704000000000 1.0
C      1  0.4986740000000  0.5140180000000  0.5064780000000 1.0
END
