TITL C-2782226-7400-905 -9.65678891017482e-08 125000 -37.3695019315442 0 0 7 (D(inf)h) n - 1
REM
REM in /home/nfs/bkarasulu/CARBON/AIRSS/Generating-Clusters/REBO/Higher-Symm/SD-CG/HFTN-CG
REM
REM
REM
REM
REM
REM ./C.cell (12c818d87b63d06a65506943cc24bca4)
REM
REM compiler GCC version 9.2.1 20190827 (Red Hat 9.2.1-1)
REM options -cpp -mtune=generic -march=x86-64 -g -O0 -fpre-include=/usr/include/finclude/math-vector-fortran.h
REM seed 1668195374 976540558 -1686491000 208277601 777589594 1284106498 385547523 -811989472 -1769001424 -1981104805 -662427035 491691609 585645494 -394454353 -1054114753 538109881 -1393350140 -428968843 1222437944 125232411 -782467814 -1961712373 1673576659 -1462783718 -2047899698 773189761 1411740631 -1814027039 -856792030 -1793536515 -271368372 -1012070546 -614254785
REM
CELL 1.54180   50.00000   50.00000   50.00000   90.00000   90.00000   90.00000
LATT -1
SFAC C  
C      1  0.4981450000000  0.4733690000000  0.4994890000000 1.0
C      1  0.4981450000000  0.4205310000000  0.4994890000000 1.0
C      1  0.4981450000000  0.5794690000000  0.4994890000000 1.0
C      1  0.4981450000000  0.5532620000000  0.4994890000000 1.0
C      1  0.4981450000000  0.5266310000000  0.4994890000000 1.0
C      1  0.4981450000000  0.5000000000000  0.4994890000000 1.0
C      1  0.4981450000000  0.4467380000000  0.4994890000000 1.0
END
