TITL C-2782237-5345-755 0.000323767809438722 125000 -621.518837264908 0 0 107 (C1) n - 1
REM
REM in /home/nfs/bkarasulu/CARBON/AIRSS/Generating-Clusters/REBO/Higher-Symm/SD-CG/HFTN-CG
REM
REM
REM
REM
REM
REM ./C.cell (12c818d87b63d06a65506943cc24bca4)
REM
REM compiler GCC version 9.2.1 20190827 (Red Hat 9.2.1-1)
REM options -cpp -mtune=generic -march=x86-64 -g -O0 -fpre-include=/usr/include/finclude/math-vector-fortran.h
REM seed -1271759552 -1366287008 1560712525 1870761008 -475149754 -2087334535 -364491572 220706330 553779002 -1426563906 1883149010 -906329177 -1251109290 -613768369 -1976797058 -273037601 1185166491 -1410107582 13450959 837381704 -1692645131 551250534 1860788411 5452635 -572634632 915356564 -430203509 -545504381 -413078536 1454341287 748759699 -318686589 885197879
REM
CELL 1.54180   50.00000   50.00000   50.00000   90.00000   90.00000   90.00000
LATT -1
SFAC C  
C      1  0.4491320000000  0.4973780000000  0.5929840000000 1.0
C      1  0.5546910000000  0.4906780000000  0.4050200000000 1.0
C      1  0.4450820000000  0.4958720000000  0.4175030000000 1.0
C      1  0.5569020000000  0.4906360000000  0.5943380000000 1.0
C      1  0.5849080000000  0.5220970000000  0.4817930000000 1.0
C      1  0.4170190000000  0.5120780000000  0.5139600000000 1.0
C      1  0.5735080000000  0.5181550000000  0.5132250000000 1.0
C      1  0.4333180000000  0.5152760000000  0.4865120000000 1.0
C      1  0.4853180000000  0.5307540000000  0.4287700000000 1.0
C      1  0.5218540000000  0.5327240000000  0.5704650000000 1.0
C      1  0.4879060000000  0.5326990000000  0.5728480000000 1.0
C      1  0.5191600000000  0.5292770000000  0.4300550000000 1.0
C      1  0.4705130000000  0.4391230000000  0.5155690000000 1.0
C      1  0.5269690000000  0.4420850000000  0.4830640000000 1.0
C      1  0.4709410000000  0.4465510000000  0.4860820000000 1.0
C      1  0.5273960000000  0.4286480000000  0.5125680000000 1.0
C      1  0.4905010000000  0.4941490000000  0.4501990000000 1.0
C      1  0.5172290000000  0.4970250000000  0.5529380000000 1.0
C      1  0.4916230000000  0.4982690000000  0.5528850000000 1.0
C      1  0.5160070000000  0.4937390000000  0.4480690000000 1.0
C      1  0.5269790000000  0.4835930000000  0.5827500000000 1.0
C      1  0.4747620000000  0.4848400000000  0.4221330000000 1.0
C      1  0.5255840000000  0.4826860000000  0.4175810000000 1.0
C      1  0.4783400000000  0.4885140000000  0.5819430000000 1.0
C      1  0.5545410000000  0.5816950000000  0.5150850000000 1.0
C      1  0.4364390000000  0.5727460000000  0.4759940000000 1.0
C      1  0.5578260000000  0.5793710000000  0.4832670000000 1.0
C      1  0.4354620000000  0.5837250000000  0.5079260000000 1.0
C      1  0.4033970000000  0.4614260000000  0.4708970000000 1.0
C      1  0.5944320000000  0.4653630000000  0.5279880000000 1.0
C      1  0.3979720000000  0.4627760000000  0.5215050000000 1.0
C      1  0.5973970000000  0.4634180000000  0.4776770000000 1.0
C      1  0.4814470000000  0.4769800000000  0.4839400000000 1.0
C      1  0.5178120000000  0.4593480000000  0.5176430000000 1.0
C      1  0.4882360000000  0.4667720000000  0.5158120000000 1.0
C      1  0.5145290000000  0.4736690000000  0.4865030000000 1.0
C      1  0.3979220000000  0.4892420000000  0.5116110000000 1.0
C      1  0.5847790000000  0.4910820000000  0.4861790000000 1.0
C      1  0.4096610000000  0.4913360000000  0.4808110000000 1.0
C      1  0.5916830000000  0.4905210000000  0.5182250000000 1.0
C      1  0.5436960000000  0.4679920000000  0.5467360000000 1.0
C      1  0.4586500000000  0.4658110000000  0.4533880000000 1.0
C      1  0.5447180000000  0.4667020000000  0.4539510000000 1.0
C      1  0.4576240000000  0.4718770000000  0.5421960000000 1.0
C      1  0.4436810000000  0.5515880000000  0.4499400000000 1.0
C      1  0.5577180000000  0.5608270000000  0.5348950000000 1.0
C      1  0.4433450000000  0.5395160000000  0.5483670000000 1.0
C      1  0.5581580000000  0.5587190000000  0.4631140000000 1.0
C      1  0.5132970000000  0.5756520000000  0.4664450000000 1.0
C      1  0.4829720000000  0.5721720000000  0.5350190000000 1.0
C      1  0.5105140000000  0.5762510000000  0.5359720000000 1.0
C      1  0.4860670000000  0.5744420000000  0.4663070000000 1.0
C      1  0.4194030000000  0.4424500000000  0.4833760000000 1.0
C      1  0.5789540000000  0.4441480000000  0.5161320000000 1.0
C      1  0.4184480000000  0.4447860000000  0.5122510000000 1.0
C      1  0.5812010000000  0.4430180000000  0.4875660000000 1.0
C      1  0.5215210000000  0.5294280000000  0.5236630000000 1.0
C      1  0.4835670000000  0.5279740000000  0.4735670000000 1.0
C      1  0.5168060000000  0.5256170000000  0.4721750000000 1.0
C      1  0.4881330000000  0.5251280000000  0.5238980000000 1.0
C      1  0.4633740000000  0.4292900000000  0.4400530000000 1.0
C      1  0.5284360000000  0.4317170000000  0.5519790000000 1.0
C      1  0.4648890000000  0.4348760000000  0.5543760000000 1.0
C      1  0.5358190000000  0.4289650000000  0.4465120000000 1.0
C      1  0.4570070000000  0.5234030000000  0.5726530000000 1.0
C      1  0.5466990000000  0.5156370000000  0.4253990000000 1.0
C      1  0.4523950000000  0.5239190000000  0.4340140000000 1.0
C      1  0.5483500000000  0.5162310000000  0.5746120000000 1.0
C      1  0.4827190000000  0.4164780000000  0.5356520000000 1.0
C      1  0.5092710000000  0.4253620000000  0.4628270000000 1.0
C      1  0.4826870000000  0.4276600000000  0.4640940000000 1.0
C      1  0.5100560000000  0.4128610000000  0.5354170000000 1.0
C      1  0.4459800000000  0.4939670000000  0.5592880000000 1.0
C      1  0.5595980000000  0.4883430000000  0.4375590000000 1.0
C      1  0.4452120000000  0.4955670000000  0.4515940000000 1.0
C      1  0.5604390000000  0.4883140000000  0.5617610000000 1.0
C      1  0.5173170000000  0.4556670000000  0.4363880000000 1.0
C      1  0.4828100000000  0.4607590000000  0.5627710000000 1.0
C      1  0.5150580000000  0.4585820000000  0.5632980000000 1.0
C      1  0.4853100000000  0.4553200000000  0.4353220000000 1.0
C      1  0.5774500000000  0.5422600000000  0.5317730000000 1.0
C      1  0.4264410000000  0.5414770000000  0.4749890000000 1.0
C      1  0.5790500000000  0.5404490000000  0.4638120000000 1.0
C      1  0.4233580000000  0.5301150000000  0.5338740000000 1.0
C      1  0.5288930000000  0.5499470000000  0.4546710000000 1.0
C      1  0.4752260000000  0.5442040000000  0.5440790000000 1.0
C      1  0.5289010000000  0.5512800000000  0.5448850000000 1.0
C      1  0.4754360000000  0.5498920000000  0.4530800000000 1.0
C      1  0.4650580000000  0.5067880000000  0.4853220000000 1.0
C      1  0.5435390000000  0.5109250000000  0.5130800000000 1.0
C      1  0.4754650000000  0.4984720000000  0.5167110000000 1.0
C      1  0.5304060000000  0.5017050000000  0.4843310000000 1.0
C      1  0.5420060000000  0.4789600000000  0.5150590000000 1.0
C      1  0.4398740000000  0.4765850000000  0.4797270000000 1.0
C      1  0.5550050000000  0.4794890000000  0.4837340000000 1.0
C      1  0.4504440000000  0.4765810000000  0.5090440000000 1.0
C      1  0.5287190000000  0.5896350000000  0.4859100000000 1.0
C      1  0.4658470000000  0.5848800000000  0.5163660000000 1.0
C      1  0.5248220000000  0.5924540000000  0.5169900000000 1.0
C      1  0.4671650000000  0.5836190000000  0.4845540000000 1.0
C      1  0.5533780000000  0.4402090000000  0.5304780000000 1.0
C      1  0.4444950000000  0.4381900000000  0.4675270000000 1.0
C      1  0.5574730000000  0.4396580000000  0.4704080000000 1.0
C      1  0.4420670000000  0.4438490000000  0.5304190000000 1.0
C      1  0.5005460000000  0.5053460000000  0.4132310000000 1.0
C      1  0.5050230000000  0.5087080000000  0.5889980000000 1.0
C      1  0.5022450000000  0.5390070000000  0.4983270000000 1.0
END
