TITL C-2782233-7966-482 -2.09755105213457e-07 125000 -37.3695019315442 0 0 7 (D(inf)h) n - 1
REM
REM in /home/nfs/bkarasulu/CARBON/AIRSS/Generating-Clusters/REBO/Higher-Symm/SD-CG/HFTN-CG
REM
REM
REM
REM
REM
REM ./C.cell (12c818d87b63d06a65506943cc24bca4)
REM
REM compiler GCC version 9.2.1 20190827 (Red Hat 9.2.1-1)
REM options -cpp -mtune=generic -march=x86-64 -g -O0 -fpre-include=/usr/include/finclude/math-vector-fortran.h
REM seed -1601693615 -102589277 -87124154 648696778 1094975877 508984833 2017396523 -1153603110 1679455533 1144427807 1836777355 205495358 -319435555 -1864620252 772981438 1158742147 1564940314 -1003542165 294955108 1190537044 -1710613850 566747014 -15591950 -540524893 -1767994831 -1290585234 -1085338845 2144792679 410250372 -605266850 326575376 452873144 -1188364153
REM
CELL 1.54180   50.00000   50.00000   50.00000   90.00000   90.00000   90.00000
LATT -1
SFAC C  
C      1  0.4205310000000  0.4998790000000  0.4988560000000 1.0
C      1  0.5000000000000  0.4998790000000  0.4988560000000 1.0
C      1  0.5266310000000  0.4998790000000  0.4988560000000 1.0
C      1  0.5794690000000  0.4998790000000  0.4988560000000 1.0
C      1  0.4467380000000  0.4998790000000  0.4988560000000 1.0
C      1  0.4733690000000  0.4998790000000  0.4988560000000 1.0
C      1  0.5532620000000  0.4998790000000  0.4988560000000 1.0
END
