TITL C-2782225-7408-981 0.000905857885859673 125000 -156.388009497231 0 0 30 (C2v) n - 1
REM
REM in /home/nfs/bkarasulu/CARBON/AIRSS/Generating-Clusters/REBO/Higher-Symm/SD-CG/HFTN-CG
REM
REM
REM
REM
REM
REM ./C.cell (12c818d87b63d06a65506943cc24bca4)
REM
REM compiler GCC version 9.2.1 20190827 (Red Hat 9.2.1-1)
REM options -cpp -mtune=generic -march=x86-64 -g -O0 -fpre-include=/usr/include/finclude/math-vector-fortran.h
REM seed 496301896 -701979321 -1889549365 541001404 -681309682 718296520 652828807 -627327757 1466828394 247349516 -480075325 825687781 -651974455 -1597695921 598228196 -1656599458 1659441240 -102662971 583343153 334034479 853006418 1474842604 -1271104228 -1865162140 45545426 -1951916450 1165698352 248492888 -1179142383 1177805691 1112077241 -1465947159 -803359963
REM
CELL 1.54180   50.00000   50.00000   50.00000   90.00000   90.00000   90.00000
LATT -1
SFAC C  
C      1  0.4390160000000  0.4752260000000  0.4643010000000 1.0
C      1  0.5691860000000  0.4735200000000  0.4692060000000 1.0
C      1  0.5078630000000  0.4722350000000  0.5748560000000 1.0
C      1  0.5691850000000  0.5272240000000  0.4698590000000 1.0
C      1  0.4390150000000  0.5256300000000  0.4649140000000 1.0
C      1  0.5078610000000  0.5259390000000  0.5755090000000 1.0
C      1  0.4628000000000  0.4743710000000  0.5064490000000 1.0
C      1  0.5193920000000  0.4742560000000  0.4593270000000 1.0
C      1  0.5126650000000  0.4720540000000  0.5247480000000 1.0
C      1  0.5280630000000  0.5276600000000  0.4988890000000 1.0
C      1  0.4874150000000  0.5259780000000  0.4646590000000 1.0
C      1  0.4745760000000  0.5257870000000  0.5371720000000 1.0
C      1  0.5193910000000  0.5267260000000  0.4599640000000 1.0
C      1  0.5126630000000  0.5273370000000  0.5254200000000 1.0
C      1  0.4627990000000  0.5254620000000  0.5070690000000 1.0
C      1  0.4874170000000  0.4748870000000  0.4640380000000 1.0
C      1  0.4745770000000  0.4733160000000  0.5365350000000 1.0
C      1  0.5280650000000  0.4723770000000  0.4982170000000 1.0
C      1  0.5049200000000  0.4495040000000  0.4728760000000 1.0
C      1  0.5074690000000  0.4456450000000  0.5036740000000 1.0
C      1  0.4794240000000  0.4489700000000  0.5168020000000 1.0
C      1  0.5049170000000  0.5511400000000  0.4741100000000 1.0
C      1  0.4794210000000  0.5506060000000  0.5180360000000 1.0
C      1  0.5074660000000  0.5542500000000  0.5049940000000 1.0
C      1  0.5004980000000  0.4843430000000  0.5507390000000 1.0
C      1  0.4622540000000  0.4847060000000  0.4779040000000 1.0
C      1  0.5444660000000  0.4852640000000  0.4749900000000 1.0
C      1  0.5004970000000  0.5144200000000  0.5511040000000 1.0
C      1  0.5444650000000  0.5153420000000  0.4753550000000 1.0
C      1  0.4622530000000  0.5158240000000  0.4782830000000 1.0
END
