TITL C-2782227-3064-87 -0.00171449651818983 125000 -689.698208051975 0 0 118 (C1) n - 1
REM
REM in /home/nfs/bkarasulu/CARBON/AIRSS/Generating-Clusters/REBO/Higher-Symm/SD-CG/HFTN-CG
REM
REM
REM
REM
REM
REM ./C.cell (12c818d87b63d06a65506943cc24bca4)
REM
REM compiler GCC version 9.2.1 20190827 (Red Hat 9.2.1-1)
REM options -cpp -mtune=generic -march=x86-64 -g -O0 -fpre-include=/usr/include/finclude/math-vector-fortran.h
REM seed -1054366197 -1290447431 270991464 -148524450 717840669 49197813 -1907006242 -1949583295 -77672230 -216605335 -256992670 1306822463 1021800622 -1857979049 -931021274 -1608825665 -765825544 -642714398 863457563 -1749823957 -2085421312 -777137257 264098177 -964182379 -398684625 978429064 -800924832 -892400457 -947306586 1088889312 1695357537 -1429773249 930949493
REM
CELL 1.54180   50.00000   50.00000   50.00000   90.00000   90.00000   90.00000
LATT -1
SFAC C  
C      1  0.4132400000000  0.5210740000000  0.4820730000000 1.0
C      1  0.5808170000000  0.5140950000000  0.5273660000000 1.0
C      1  0.4123850000000  0.4890070000000  0.4744400000000 1.0
C      1  0.5783630000000  0.4805260000000  0.5230560000000 1.0
C      1  0.5842070000000  0.4619010000000  0.4956740000000 1.0
C      1  0.4108490000000  0.4669380000000  0.4983310000000 1.0
C      1  0.5853290000000  0.5303010000000  0.4977490000000 1.0
C      1  0.4061760000000  0.5322930000000  0.5103890000000 1.0
C      1  0.5336090000000  0.5548910000000  0.4363700000000 1.0
C      1  0.4689330000000  0.5572920000000  0.5568760000000 1.0
C      1  0.5427470000000  0.4448230000000  0.4398560000000 1.0
C      1  0.4616930000000  0.4415130000000  0.5637750000000 1.0
C      1  0.5079440000000  0.5655530000000  0.4473200000000 1.0
C      1  0.4966760000000  0.5590800000000  0.5445460000000 1.0
C      1  0.5144090000000  0.4390180000000  0.4496570000000 1.0
C      1  0.4873290000000  0.4323180000000  0.5522380000000 1.0
C      1  0.4395530000000  0.4812700000000  0.5026720000000 1.0
C      1  0.5548570000000  0.4778200000000  0.4988860000000 1.0
C      1  0.4379250000000  0.5080870000000  0.4998360000000 1.0
C      1  0.5602020000000  0.5085270000000  0.5010640000000 1.0
C      1  0.5185960000000  0.5593750000000  0.5701640000000 1.0
C      1  0.4808010000000  0.5562820000000  0.4284980000000 1.0
C      1  0.5146330000000  0.4466340000000  0.5679860000000 1.0
C      1  0.5004110000000  0.4313300000000  0.4223920000000 1.0
C      1  0.5090780000000  0.4746220000000  0.5399940000000 1.0
C      1  0.4773030000000  0.4700280000000  0.4590860000000 1.0
C      1  0.5263960000000  0.5328190000000  0.5394260000000 1.0
C      1  0.4783440000000  0.5313300000000  0.4640850000000 1.0
C      1  0.4983050000000  0.4501710000000  0.5316890000000 1.0
C      1  0.4982000000000  0.4501970000000  0.4691460000000 1.0
C      1  0.5087580000000  0.5512790000000  0.5189980000000 1.0
C      1  0.4991040000000  0.5517900000000  0.4706850000000 1.0
C      1  0.5234680000000  0.5144020000000  0.5150980000000 1.0
C      1  0.4752420000000  0.5122720000000  0.4864060000000 1.0
C      1  0.5188280000000  0.4877380000000  0.5176160000000 1.0
C      1  0.4751210000000  0.4859930000000  0.4850600000000 1.0
C      1  0.4687500000000  0.4679890000000  0.5115670000000 1.0
C      1  0.5249690000000  0.4699270000000  0.4910750000000 1.0
C      1  0.4621580000000  0.5260980000000  0.5111370000000 1.0
C      1  0.5358400000000  0.5241370000000  0.4870510000000 1.0
C      1  0.4484550000000  0.4545520000000  0.4543950000000 1.0
C      1  0.5612990000000  0.4544610000000  0.5460180000000 1.0
C      1  0.4489840000000  0.5463750000000  0.4641600000000 1.0
C      1  0.5559160000000  0.5476140000000  0.5424570000000 1.0
C      1  0.4709270000000  0.5776090000000  0.4527710000000 1.0
C      1  0.5269480000000  0.5844130000000  0.5500930000000 1.0
C      1  0.4820980000000  0.4170580000000  0.4412460000000 1.0
C      1  0.5254750000000  0.4230700000000  0.5471970000000 1.0
C      1  0.5294000000000  0.5165510000000  0.4260750000000 1.0
C      1  0.4711350000000  0.5197190000000  0.5704030000000 1.0
C      1  0.5354440000000  0.4831510000000  0.4297980000000 1.0
C      1  0.4698060000000  0.4857480000000  0.5685660000000 1.0
C      1  0.4065490000000  0.5117450000000  0.5300920000000 1.0
C      1  0.5881400000000  0.5107700000000  0.4725570000000 1.0
C      1  0.4075500000000  0.4831480000000  0.5268340000000 1.0
C      1  0.5860950000000  0.4826230000000  0.4720590000000 1.0
C      1  0.5029020000000  0.4802880000000  0.4069020000000 1.0
C      1  0.4963900000000  0.4851150000000  0.5982830000000 1.0
C      1  0.4963780000000  0.5117390000000  0.4047320000000 1.0
C      1  0.5011700000000  0.5155700000000  0.5960840000000 1.0
C      1  0.4577070000000  0.5133960000000  0.5397440000000 1.0
C      1  0.5392290000000  0.5127230000000  0.4582430000000 1.0
C      1  0.4572260000000  0.4799690000000  0.5384190000000 1.0
C      1  0.5360070000000  0.4792190000000  0.4632130000000 1.0
C      1  0.4710410000000  0.5975460000000  0.4975030000000 1.0
C      1  0.5330630000000  0.5872560000000  0.5106770000000 1.0
C      1  0.4668390000000  0.4148580000000  0.4887070000000 1.0
C      1  0.5361750000000  0.4142990000000  0.5098400000000 1.0
C      1  0.5087680000000  0.5399420000000  0.4173360000000 1.0
C      1  0.4901090000000  0.5437210000000  0.5803880000000 1.0
C      1  0.5219780000000  0.4566370000000  0.4149140000000 1.0
C      1  0.4858320000000  0.4603220000000  0.5799660000000 1.0
C      1  0.5687850000000  0.4829460000000  0.4230040000000 1.0
C      1  0.4367780000000  0.4803010000000  0.5726550000000 1.0
C      1  0.5620050000000  0.5125900000000  0.4254450000000 1.0
C      1  0.4392640000000  0.5105200000000  0.5749090000000 1.0
C      1  0.4583870000000  0.4260710000000  0.4592890000000 1.0
C      1  0.5517450000000  0.4305690000000  0.5349660000000 1.0
C      1  0.4546870000000  0.5718850000000  0.4823690000000 1.0
C      1  0.5521090000000  0.5760880000000  0.5352380000000 1.0
C      1  0.5796550000000  0.4349160000000  0.4835490000000 1.0
C      1  0.4248810000000  0.4436150000000  0.5168410000000 1.0
C      1  0.5729290000000  0.5549200000000  0.4833800000000 1.0
C      1  0.4212700000000  0.5546570000000  0.5196700000000 1.0
C      1  0.4834690000000  0.6045160000000  0.5214220000000 1.0
C      1  0.5154910000000  0.5866500000000  0.4814640000000 1.0
C      1  0.4820690000000  0.4109050000000  0.5181220000000 1.0
C      1  0.5186500000000  0.4112980000000  0.4807020000000 1.0
C      1  0.5391840000000  0.4696530000000  0.5657060000000 1.0
C      1  0.4532570000000  0.4741790000000  0.4276580000000 1.0
C      1  0.5454730000000  0.5387250000000  0.5737370000000 1.0
C      1  0.4539290000000  0.5353980000000  0.4330050000000 1.0
C      1  0.4934220000000  0.4105190000000  0.4696000000000 1.0
C      1  0.5078340000000  0.4095800000000  0.5267630000000 1.0
C      1  0.4891050000000  0.5903010000000  0.4743050000000 1.0
C      1  0.5085790000000  0.5983220000000  0.5314000000000 1.0
C      1  0.4413840000000  0.4363670000000  0.5451370000000 1.0
C      1  0.5624150000000  0.4345170000000  0.4557470000000 1.0
C      1  0.4470740000000  0.5604810000000  0.5404500000000 1.0
C      1  0.5541100000000  0.5572680000000  0.4553230000000 1.0
C      1  0.4505580000000  0.4221250000000  0.5164050000000 1.0
C      1  0.5520490000000  0.4164220000000  0.4816100000000 1.0
C      1  0.4520270000000  0.5554360000000  0.5083450000000 1.0
C      1  0.5467280000000  0.5757040000000  0.4823260000000 1.0
C      1  0.4811020000000  0.5170030000000  0.4346990000000 1.0
C      1  0.5190170000000  0.5195680000000  0.5675730000000 1.0
C      1  0.4822210000000  0.4859660000000  0.4313170000000 1.0
C      1  0.5128430000000  0.4885580000000  0.5690030000000 1.0
C      1  0.4319860000000  0.5186440000000  0.4535640000000 1.0
C      1  0.5681530000000  0.5194430000000  0.5570560000000 1.0
C      1  0.4322400000000  0.4846490000000  0.4507820000000 1.0
C      1  0.5651820000000  0.4877360000000  0.5530080000000 1.0
C      1  0.4253670000000  0.4722420000000  0.5457470000000 1.0
C      1  0.5670880000000  0.4740280000000  0.4522650000000 1.0
C      1  0.4256300000000  0.5201490000000  0.5498350000000 1.0
C      1  0.5714580000000  0.5218630000000  0.4523180000000 1.0
C      1  0.4971900000000  0.4526650000000  0.5004840000000 1.0
C      1  0.5146340000000  0.5463880000000  0.4927990000000 1.0
END
