TITL C-2782240-8521-604 0.0031988310893854 125000 -571.455866346422 0 0 95 (C5) n - 1
REM
REM in /home/nfs/bkarasulu/CARBON/AIRSS/Generating-Clusters/REBO/Higher-Symm/SD-CG/HFTN-CG
REM
REM
REM
REM
REM
REM ./C.cell (12c818d87b63d06a65506943cc24bca4)
REM
REM compiler GCC version 9.2.1 20190827 (Red Hat 9.2.1-1)
REM options -cpp -mtune=generic -march=x86-64 -g -O0 -fpre-include=/usr/include/finclude/math-vector-fortran.h
REM seed -730264299 1345545777 1701664444 2105313273 -382982962 -592271357 -806501718 -600137016 -295877833 879452366 -2092553571 -647284137 693758236 -1061101679 -1582691374 1132713279 1549029915 1358284069 -248502993 -1998152176 205973283 -778074775 1379514329 1461989733 -2136638274 -2113892178 -926040956 -1491369380 -986665161 395545217 -1400006979 -915656938 1569035082
REM
CELL 1.54180   50.00000   50.00000   50.00000   90.00000   90.00000   90.00000
LATT -1
SFAC C  
C      1  0.5685080000000  0.5238050000000  0.4908350000000 1.0
C      1  0.5684560000000  0.5162320000000  0.5198550000000 1.0
C      1  0.5684730000000  0.4862910000000  0.5216200000000 1.0
C      1  0.5685350000000  0.4753600000000  0.4936910000000 1.0
C      1  0.5685560000000  0.4985450000000  0.4746640000000 1.0
C      1  0.4210750000000  0.5163560000000  0.5383630000000 1.0
C      1  0.4211290000000  0.4683850000000  0.5273550000000 1.0
C      1  0.4212270000000  0.4640310000000  0.4783310000000 1.0
C      1  0.4212340000000  0.5093100000000  0.4590410000000 1.0
C      1  0.4211390000000  0.5416490000000  0.4961430000000 1.0
C      1  0.4979870000000  0.4707220000000  0.4203280000000 1.0
C      1  0.4978680000000  0.5667210000000  0.4475330000000 1.0
C      1  0.4976720000000  0.5705120000000  0.5472400000000 1.0
C      1  0.4976690000000  0.4768560000000  0.5816570000000 1.0
C      1  0.4978640000000  0.4151820000000  0.5032210000000 1.0
C      1  0.5126790000000  0.4901900000000  0.5237600000000 1.0
C      1  0.5127400000000  0.4744010000000  0.4980210000000 1.0
C      1  0.5127710000000  0.4940010000000  0.4750510000000 1.0
C      1  0.5127300000000  0.5219030000000  0.4865940000000 1.0
C      1  0.5126730000000  0.5195480000000  0.5166980000000 1.0
C      1  0.4464060000000  0.4732120000000  0.4363800000000 1.0
C      1  0.4463160000000  0.5521040000000  0.4548270000000 1.0
C      1  0.4461540000000  0.5589390000000  0.5355570000000 1.0
C      1  0.4461440000000  0.4842720000000  0.5670040000000 1.0
C      1  0.4463000000000  0.4312900000000  0.5057100000000 1.0
C      1  0.4803010000000  0.4366580000000  0.4745850000000 1.0
C      1  0.4803380000000  0.5045510000000  0.4318910000000 1.0
C      1  0.4801960000000  0.5661370000000  0.4832680000000 1.0
C      1  0.4800720000000  0.5363050000000  0.5577150000000 1.0
C      1  0.4801370000000  0.4562820000000  0.5523490000000 1.0
C      1  0.4676100000000  0.4765750000000  0.5011240000000 1.0
C      1  0.4676440000000  0.4916170000000  0.4780470000000 1.0
C      1  0.4676120000000  0.5182130000000  0.4852210000000 1.0
C      1  0.4675580000000  0.5196090000000  0.5127320000000 1.0
C      1  0.4675560000000  0.4938750000000  0.5225610000000 1.0
C      1  0.4257700000000  0.4810840000000  0.4556210000000 1.0
C      1  0.4257080000000  0.5361900000000  0.4682450000000 1.0
C      1  0.4255950000000  0.5412120000000  0.5245540000000 1.0
C      1  0.4255870000000  0.4892110000000  0.5467310000000 1.0
C      1  0.4256950000000  0.4520500000000  0.5041280000000 1.0
C      1  0.5482300000000  0.5565640000000  0.5446130000000 1.0
C      1  0.5482410000000  0.4751620000000  0.5676150000000 1.0
C      1  0.5484100000000  0.4281310000000  0.4973050000000 1.0
C      1  0.5485030000000  0.4804660000000  0.4308490000000 1.0
C      1  0.5483920000000  0.5598420000000  0.4600870000000 1.0
C      1  0.4785120000000  0.4421910000000  0.5761190000000 1.0
C      1  0.4787440000000  0.4096930000000  0.4685280000000 1.0
C      1  0.4788050000000  0.5019760000000  0.4043730000000 1.0
C      1  0.4786120000000  0.5915080000000  0.4723140000000 1.0
C      1  0.4784310000000  0.5545590000000  0.5784590000000 1.0
C      1  0.4736880000000  0.4872920000000  0.5502960000000 1.0
C      1  0.4738060000000  0.4481780000000  0.5034380000000 1.0
C      1  0.4738850000000  0.4806550000000  0.4517580000000 1.0
C      1  0.4738150000000  0.5398420000000  0.4666760000000 1.0
C      1  0.4736940000000  0.5439440000000  0.5275760000000 1.0
C      1  0.4902420000000  0.5624490000000  0.5089820000000 1.0
C      1  0.4901740000000  0.5107330000000  0.5621610000000 1.0
C      1  0.4902830000000  0.4441750000000  0.5294100000000 1.0
C      1  0.4904180000000  0.4547560000000  0.4559890000000 1.0
C      1  0.4903930000000  0.5278540000000  0.4433640000000 1.0
C      1  0.5128010000000  0.4462050000000  0.4955760000000 1.0
C      1  0.5128660000000  0.4876130000000  0.4474800000000 1.0
C      1  0.5127790000000  0.5461510000000  0.4719990000000 1.0
C      1  0.5126590000000  0.5409220000000  0.5352480000000 1.0
C      1  0.5126730000000  0.4791520000000  0.5498200000000 1.0
C      1  0.4671630000000  0.4654720000000  0.4156170000000 1.0
C      1  0.4670420000000  0.5695070000000  0.4410630000000 1.0
C      1  0.4668290000000  0.5774550000000  0.5478690000000 1.0
C      1  0.4668180000000  0.4783320000000  0.5884330000000 1.0
C      1  0.4670240000000  0.4091220000000  0.5066970000000 1.0
C      1  0.5149900000000  0.4486800000000  0.4391740000000 1.0
C      1  0.5149390000000  0.5420250000000  0.4324060000000 1.0
C      1  0.5147470000000  0.5773070000000  0.5190900000000 1.0
C      1  0.5146780000000  0.5057680000000  0.5794330000000 1.0
C      1  0.5148290000000  0.4262720000000  0.5300420000000 1.0
C      1  0.5641070000000  0.4992310000000  0.4458370000000 1.0
C      1  0.5640000000000  0.5514230000000  0.4825760000000 1.0
C      1  0.5638950000000  0.5326100000000  0.5435660000000 1.0
C      1  0.5639360000000  0.4687920000000  0.5445210000000 1.0
C      1  0.5640680000000  0.4481620000000  0.4841220000000 1.0
C      1  0.5238060000000  0.5766880000000  0.4664500000000 1.0
C      1  0.5236330000000  0.5556610000000  0.5625830000000 1.0
C      1  0.5236810000000  0.4577350000000  0.5722930000000 1.0
C      1  0.5238840000000  0.4182400000000  0.4821600000000 1.0
C      1  0.5239610000000  0.4917570000000  0.4167460000000 1.0
C      1  0.5635640000000  0.4408270000000  0.5400110000000 1.0
C      1  0.5637250000000  0.4438090000000  0.4561320000000 1.0
C      1  0.5637140000000  0.5245050000000  0.4330480000000 1.0
C      1  0.5635470000000  0.5713960000000  0.5026600000000 1.0
C      1  0.5634540000000  0.5196800000000  0.5687670000000 1.0
C      1  0.5428960000000  0.5019420000000  0.5758110000000 1.0
C      1  0.5430440000000  0.4285990000000  0.5253040000000 1.0
C      1  0.5431930000000  0.4539710000000  0.4399430000000 1.0
C      1  0.5431370000000  0.5429930000000  0.4376950000000 1.0
C      1  0.5429530000000  0.5726410000000  0.5216660000000 1.0
END
