TITL C-2782229-3092-842 4.90081362650276e-08 125000 -19.0187538210902 0 0 4 (D(inf)h) n - 1
REM
REM in /home/nfs/bkarasulu/CARBON/AIRSS/Generating-Clusters/REBO/Higher-Symm/SD-CG/HFTN-CG
REM
REM
REM
REM
REM
REM ./C.cell (12c818d87b63d06a65506943cc24bca4)
REM
REM compiler GCC version 9.2.1 20190827 (Red Hat 9.2.1-1)
REM options -cpp -mtune=generic -march=x86-64 -g -O0 -fpre-include=/usr/include/finclude/math-vector-fortran.h
REM seed 972128268 1343970985 1831736067 -426563991 -2026019172 -1206316557 154024776 -835295766 312948506 -1884220908 917323924 -1749413297 -1303957326 2052557990 -906534685 1097245673 -667458123 -2044400228 -1853198429 -711230936 653078752 228621296 338531750 -1074397625 -1340410292 204228161 -101910475 -1167328924 2117806562 1163270312 542750246 -953682478 -15340896
REM
CELL 1.54180   50.00000   50.00000   50.00000   90.00000   90.00000   90.00000
LATT -1
SFAC C  
C      1  0.4981890000000  0.4604770000000  0.4975670000000 1.0
C      1  0.4981890000000  0.5395230000000  0.4975670000000 1.0
C      1  0.4981890000000  0.4866850000000  0.4975670000000 1.0
C      1  0.4981890000000  0.5133150000000  0.4975670000000 1.0
END
