TITL C-2782229-3092-32 0.00299152701951286 125000 -716.485292788366 0 0 119 (C1) n - 1
REM
REM in /home/nfs/bkarasulu/CARBON/AIRSS/Generating-Clusters/REBO/Higher-Symm/SD-CG/HFTN-CG
REM
REM
REM
REM
REM
REM ./C.cell (12c818d87b63d06a65506943cc24bca4)
REM
REM compiler GCC version 9.2.1 20190827 (Red Hat 9.2.1-1)
REM options -cpp -mtune=generic -march=x86-64 -g -O0 -fpre-include=/usr/include/finclude/math-vector-fortran.h
REM seed 2140163520 -901650148 -636099832 -545105162 -479411665 -1467806065 1985228970 986742994 -1052034885 977375550 949277531 1651253317 2020253569 -2133194676 1525183224 1949888111 -1550998829 -1067820231 1219744554 -338180106 2099300100 -601552888 1575157790 -551953913 886139084 -887763153 1850443210 -1144224689 -1146082784 1172744528 1424376265 320939894 145108562
REM
CELL 1.54180   50.00000   50.00000   50.00000   90.00000   90.00000   90.00000
LATT -1
SFAC C  
C      1  0.5038710000000  0.4338170000000  0.4606380000000 1.0
C      1  0.4850190000000  0.5543580000000  0.5374890000000 1.0
C      1  0.4862250000000  0.5492140000000  0.5654230000000 1.0
C      1  0.5112500000000  0.4483200000000  0.4336010000000 1.0
C      1  0.5625080000000  0.4499540000000  0.4746950000000 1.0
C      1  0.4217920000000  0.5436040000000  0.5368690000000 1.0
C      1  0.5615860000000  0.5460740000000  0.5711040000000 1.0
C      1  0.4362430000000  0.4541410000000  0.4277050000000 1.0
C      1  0.4076340000000  0.5194480000000  0.4865180000000 1.0
C      1  0.5918120000000  0.4896450000000  0.4767350000000 1.0
C      1  0.4006010000000  0.4790690000000  0.5129490000000 1.0
C      1  0.5952380000000  0.5157430000000  0.4868400000000 1.0
C      1  0.5110370000000  0.4881040000000  0.4393200000000 1.0
C      1  0.4923020000000  0.5069780000000  0.5579970000000 1.0
C      1  0.4838410000000  0.4807300000000  0.4780980000000 1.0
C      1  0.5185160000000  0.5153190000000  0.5201670000000 1.0
C      1  0.5113910000000  0.5414890000000  0.5782200000000 1.0
C      1  0.4884640000000  0.4576560000000  0.4187320000000 1.0
C      1  0.4547390000000  0.4680260000000  0.4846580000000 1.0
C      1  0.5433130000000  0.5357490000000  0.5177300000000 1.0
C      1  0.5017640000000  0.5291040000000  0.4866590000000 1.0
C      1  0.4917360000000  0.4836880000000  0.5234260000000 1.0
C      1  0.4636700000000  0.5511260000000  0.5806940000000 1.0
C      1  0.5376510000000  0.4528900000000  0.4269950000000 1.0
C      1  0.4853440000000  0.4921310000000  0.4500540000000 1.0
C      1  0.5180630000000  0.5018330000000  0.5473870000000 1.0
C      1  0.4814560000000  0.5018650000000  0.5876680000000 1.0
C      1  0.5190690000000  0.4952360000000  0.4108330000000 1.0
C      1  0.4253310000000  0.4319150000000  0.4676720000000 1.0
C      1  0.5775140000000  0.5696650000000  0.5332500000000 1.0
C      1  0.4376340000000  0.5690840000000  0.4810170000000 1.0
C      1  0.5546250000000  0.4197590000000  0.5112640000000 1.0
C      1  0.4619980000000  0.5103030000000  0.4353940000000 1.0
C      1  0.5454270000000  0.4847290000000  0.5569050000000 1.0
C      1  0.5460920000000  0.5036110000000  0.4119970000000 1.0
C      1  0.4536160000000  0.4902170000000  0.5850370000000 1.0
C      1  0.5395240000000  0.5791590000000  0.4944200000000 1.0
C      1  0.4618630000000  0.4410820000000  0.5259280000000 1.0
C      1  0.5493770000000  0.4511820000000  0.5529570000000 1.0
C      1  0.4621720000000  0.5406070000000  0.4449420000000 1.0
C      1  0.5258360000000  0.5372910000000  0.4671390000000 1.0
C      1  0.4731360000000  0.4763310000000  0.5411030000000 1.0
C      1  0.4151630000000  0.5357110000000  0.5074580000000 1.0
C      1  0.5818180000000  0.4660610000000  0.4915860000000 1.0
C      1  0.4917910000000  0.4827180000000  0.4047140000000 1.0
C      1  0.5115500000000  0.5152500000000  0.5917600000000 1.0
C      1  0.4734790000000  0.5162920000000  0.5394550000000 1.0
C      1  0.5322980000000  0.4807060000000  0.4560910000000 1.0
C      1  0.5274720000000  0.5557660000000  0.4422680000000 1.0
C      1  0.4800190000000  0.4664630000000  0.5669150000000 1.0
C      1  0.5495950000000  0.5153510000000  0.4656670000000 1.0
C      1  0.4438580000000  0.4895760000000  0.5383950000000 1.0
C      1  0.4156390000000  0.4880770000000  0.4242900000000 1.0
C      1  0.5994330000000  0.4920990000000  0.5568540000000 1.0
C      1  0.5490090000000  0.4273080000000  0.4837060000000 1.0
C      1  0.4373290000000  0.5614300000000  0.5122120000000 1.0
C      1  0.4713810000000  0.4328210000000  0.4543720000000 1.0
C      1  0.5294630000000  0.5740330000000  0.5470020000000 1.0
C      1  0.5665210000000  0.4787520000000  0.4569570000000 1.0
C      1  0.4253550000000  0.5286020000000  0.5599840000000 1.0
C      1  0.5202620000000  0.4188220000000  0.5437110000000 1.0
C      1  0.4761730000000  0.5831710000000  0.4564380000000 1.0
C      1  0.5188740000000  0.4401510000000  0.5893060000000 1.0
C      1  0.4906100000000  0.5626620000000  0.4112410000000 1.0
C      1  0.4524750000000  0.4579470000000  0.5797260000000 1.0
C      1  0.5402970000000  0.5808560000000  0.4461090000000 1.0
C      1  0.4330790000000  0.5023200000000  0.4441880000000 1.0
C      1  0.5751740000000  0.4848410000000  0.5402820000000 1.0
C      1  0.4812260000000  0.5938890000000  0.5332160000000 1.0
C      1  0.5220960000000  0.3883580000000  0.4703440000000 1.0
C      1  0.4518150000000  0.5914510000000  0.4700500000000 1.0
C      1  0.5368860000000  0.4028200000000  0.5262700000000 1.0
C      1  0.4624770000000  0.5716200000000  0.5261630000000 1.0
C      1  0.5259920000000  0.4158560000000  0.4708240000000 1.0
C      1  0.4904310000000  0.4502120000000  0.4847800000000 1.0
C      1  0.5046010000000  0.5454160000000  0.5167650000000 1.0
C      1  0.5656290000000  0.4404610000000  0.5277270000000 1.0
C      1  0.4364350000000  0.5476560000000  0.4624770000000 1.0
C      1  0.4247740000000  0.4709070000000  0.5245600000000 1.0
C      1  0.5742290000000  0.5322340000000  0.4783290000000 1.0
C      1  0.4424780000000  0.4541460000000  0.5099880000000 1.0
C      1  0.5480310000000  0.5476280000000  0.4890820000000 1.0
C      1  0.5406310000000  0.4900400000000  0.4851580000000 1.0
C      1  0.4542350000000  0.5125390000000  0.5176010000000 1.0
C      1  0.5151320000000  0.5519020000000  0.4173410000000 1.0
C      1  0.5014460000000  0.4603110000000  0.5836940000000 1.0
C      1  0.5343980000000  0.5552920000000  0.5684840000000 1.0
C      1  0.4642550000000  0.4468110000000  0.4297960000000 1.0
C      1  0.4524980000000  0.4376010000000  0.4749850000000 1.0
C      1  0.5479630000000  0.5681040000000  0.5233760000000 1.0
C      1  0.4099090000000  0.4764320000000  0.4637960000000 1.0
C      1  0.5858040000000  0.5229140000000  0.5349570000000 1.0
C      1  0.6044000000000  0.5198120000000  0.5136270000000 1.0
C      1  0.3998300000000  0.4920730000000  0.4877900000000 1.0
C      1  0.5337960000000  0.4296640000000  0.5680350000000 1.0
C      1  0.4723930000000  0.5663070000000  0.4322390000000 1.0
C      1  0.4198730000000  0.5257280000000  0.4620660000000 1.0
C      1  0.5794030000000  0.4631450000000  0.5192870000000 1.0
C      1  0.4371240000000  0.5033340000000  0.5646820000000 1.0
C      1  0.5580950000000  0.5037860000000  0.4362590000000 1.0
C      1  0.4518200000000  0.5164980000000  0.4902560000000 1.0
C      1  0.5430270000000  0.4849090000000  0.5118490000000 1.0
C      1  0.5114160000000  0.4422490000000  0.5277370000000 1.0
C      1  0.4894880000000  0.5654190000000  0.4754640000000 1.0
C      1  0.4539400000000  0.4392470000000  0.5539000000000 1.0
C      1  0.5454410000000  0.5946850000000  0.4691020000000 1.0
C      1  0.5333210000000  0.4980760000000  0.5841600000000 1.0
C      1  0.4699110000000  0.5011270000000  0.4062850000000 1.0
C      1  0.4875670000000  0.4416930000000  0.5123490000000 1.0
C      1  0.5098070000000  0.5672940000000  0.4947350000000 1.0
C      1  0.4165250000000  0.4526090000000  0.4494330000000 1.0
C      1  0.5819010000000  0.5468090000000  0.5504530000000 1.0
C      1  0.5067820000000  0.5898320000000  0.5423740000000 1.0
C      1  0.5184200000000  0.3624140000000  0.4698920000000 1.0
C      1  0.5573230000000  0.5091820000000  0.5275800000000 1.0
C      1  0.4378240000000  0.4926390000000  0.4753270000000 1.0
C      1  0.4721910000000  0.5360370000000  0.4760490000000 1.0
C      1  0.5326590000000  0.4630190000000  0.5259380000000 1.0
C      1  0.5005680000000  0.4985120000000  0.4968170000000 1.0
END
