TITL C-2782238-9940-1372 0.000230341309639504 125000 -289.77402131408 0 0 53 (C1) n - 1
REM
REM in /home/nfs/bkarasulu/CARBON/AIRSS/Generating-Clusters/REBO/Higher-Symm/SD-CG/HFTN-CG
REM
REM
REM
REM
REM
REM ./C.cell (12c818d87b63d06a65506943cc24bca4)
REM
REM compiler GCC version 9.2.1 20190827 (Red Hat 9.2.1-1)
REM options -cpp -mtune=generic -march=x86-64 -g -O0 -fpre-include=/usr/include/finclude/math-vector-fortran.h
REM seed -1892010306 -1239988473 -704473486 1488957410 834362507 -2055449941 -1950039843 1504148770 1860462617 2045780118 -1820540851 1460945822 1093008574 -642637514 103398748 -955418814 -2092913236 -36263116 778384475 1350346470 216919762 1829927758 320224834 1193767779 -972559453 1223645603 1949145078 -474447553 723825485 776006711 -1844150979 -693554271 2142179212
REM
CELL 1.54180   50.00000   50.00000   50.00000   90.00000   90.00000   90.00000
LATT -1
SFAC C  
C      1  0.4370200000000  0.4901620000000  0.4736370000000 1.0
C      1  0.4752990000000  0.4883270000000  0.5594010000000 1.0
C      1  0.5577110000000  0.4857600000000  0.5200010000000 1.0
C      1  0.5252360000000  0.4893290000000  0.4390240000000 1.0
C      1  0.4758750000000  0.4417600000000  0.5438460000000 1.0
C      1  0.5515440000000  0.4394010000000  0.5278220000000 1.0
C      1  0.5292320000000  0.4437550000000  0.4579140000000 1.0
C      1  0.4538540000000  0.4432570000000  0.4734760000000 1.0
C      1  0.4719200000000  0.4788560000000  0.4759390000000 1.0
C      1  0.4838420000000  0.4815570000000  0.5242940000000 1.0
C      1  0.5221660000000  0.4784080000000  0.5141540000000 1.0
C      1  0.5226040000000  0.4803050000000  0.4745680000000 1.0
C      1  0.4783440000000  0.5529850000000  0.4852400000000 1.0
C      1  0.4889200000000  0.5523770000000  0.5172420000000 1.0
C      1  0.5218020000000  0.5532510000000  0.5158840000000 1.0
C      1  0.5111400000000  0.5539030000000  0.4841610000000 1.0
C      1  0.5053950000000  0.4939630000000  0.5989650000000 1.0
C      1  0.5967290000000  0.4927450000000  0.4898700000000 1.0
C      1  0.4898260000000  0.4910160000000  0.4000580000000 1.0
C      1  0.4001580000000  0.4953200000000  0.5064490000000 1.0
C      1  0.4633940000000  0.5074830000000  0.4628940000000 1.0
C      1  0.4667750000000  0.5074050000000  0.5335280000000 1.0
C      1  0.5327950000000  0.5039740000000  0.5317020000000 1.0
C      1  0.5343650000000  0.5085250000000  0.4644550000000 1.0
C      1  0.4250270000000  0.5384870000000  0.4865750000000 1.0
C      1  0.4869930000000  0.5370760000000  0.5723420000000 1.0
C      1  0.5744340000000  0.5345880000000  0.5151000000000 1.0
C      1  0.5210980000000  0.5280940000000  0.4302440000000 1.0
C      1  0.5013210000000  0.5022460000000  0.4220390000000 1.0
C      1  0.4232540000000  0.5058060000000  0.4952560000000 1.0
C      1  0.4958340000000  0.5043610000000  0.5751730000000 1.0
C      1  0.5739440000000  0.5034650000000  0.5015110000000 1.0
C      1  0.5327950000000  0.4603360000000  0.4394670000000 1.0
C      1  0.4364100000000  0.4605750000000  0.4688440000000 1.0
C      1  0.4696130000000  0.4590260000000  0.5612000000000 1.0
C      1  0.5674760000000  0.4592910000000  0.5291660000000 1.0
C      1  0.4575090000000  0.5484080000000  0.5189980000000 1.0
C      1  0.5217770000000  0.5475200000000  0.5462940000000 1.0
C      1  0.5425570000000  0.5510790000000  0.4818330000000 1.0
C      1  0.4769890000000  0.5487290000000  0.4546330000000 1.0
C      1  0.4909230000000  0.4500800000000  0.5174360000000 1.0
C      1  0.5240450000000  0.4454560000000  0.5168530000000 1.0
C      1  0.5145880000000  0.4494530000000  0.4854330000000 1.0
C      1  0.4823290000000  0.4480420000000  0.4860260000000 1.0
C      1  0.5131380000000  0.5327520000000  0.4603730000000 1.0
C      1  0.4559650000000  0.5305030000000  0.4833460000000 1.0
C      1  0.4858680000000  0.5308360000000  0.5410200000000 1.0
C      1  0.5427770000000  0.5292960000000  0.5152920000000 1.0
C      1  0.4849870000000  0.5203620000000  0.4449790000000 1.0
C      1  0.4465220000000  0.5196460000000  0.5143830000000 1.0
C      1  0.5158260000000  0.5181460000000  0.5524240000000 1.0
C      1  0.5533620000000  0.5223290000000  0.4835570000000 1.0
C      1  0.4969290000000  0.4841170000000  0.4946290000000 1.0
END
