TITL C-2782226-7400-989 0.000327008364029339 125000 -290.318523010316 0 0 53 (C1) n - 1
REM
REM in /home/nfs/bkarasulu/CARBON/AIRSS/Generating-Clusters/REBO/Higher-Symm/SD-CG/HFTN-CG
REM
REM
REM
REM
REM
REM ./C.cell (12c818d87b63d06a65506943cc24bca4)
REM
REM compiler GCC version 9.2.1 20190827 (Red Hat 9.2.1-1)
REM options -cpp -mtune=generic -march=x86-64 -g -O0 -fpre-include=/usr/include/finclude/math-vector-fortran.h
REM seed 1944897525 159967315 -1860032969 -1072369451 -2039973207 1567850956 -1937779116 1575231503 -2015251698 285170628 1379292931 -994505244 -418116285 -722131616 -973973937 306249866 2104724280 -944946950 595796591 674728616 -724036326 1653928633 -2070430682 -880632960 -462232889 -1314900000 1022906179 -546958317 -1193535832 -410148128 -586190518 507701333 241249194
REM
CELL 1.54180   50.00000   50.00000   50.00000   90.00000   90.00000   90.00000
LATT -1
SFAC C  
C      1  0.5315040000000  0.5179830000000  0.4947700000000 1.0
C      1  0.4668480000000  0.4631710000000  0.5059830000000 1.0
C      1  0.4845170000000  0.5523940000000  0.5246450000000 1.0
C      1  0.5049830000000  0.4472990000000  0.4731170000000 1.0
C      1  0.4695220000000  0.5392290000000  0.5507240000000 1.0
C      1  0.5303100000000  0.4770030000000  0.4477950000000 1.0
C      1  0.5247370000000  0.4337550000000  0.5176120000000 1.0
C      1  0.4823710000000  0.5704570000000  0.4803520000000 1.0
C      1  0.5426340000000  0.4977620000000  0.5395550000000 1.0
C      1  0.4588890000000  0.4981930000000  0.4579960000000 1.0
C      1  0.5082400000000  0.5444340000000  0.4645850000000 1.0
C      1  0.4871660000000  0.4692400000000  0.5325370000000 1.0
C      1  0.5480900000000  0.5019890000000  0.4621650000000 1.0
C      1  0.4531350000000  0.5094170000000  0.5517300000000 1.0
C      1  0.4923960000000  0.5143840000000  0.5556550000000 1.0
C      1  0.4991050000000  0.4693980000000  0.4497410000000 1.0
C      1  0.4207050000000  0.5026260000000  0.5034280000000 1.0
C      1  0.5894910000000  0.5100500000000  0.5004550000000 1.0
C      1  0.4546800000000  0.4484160000000  0.4695190000000 1.0
C      1  0.5343370000000  0.5472620000000  0.5302440000000 1.0
C      1  0.5473650000000  0.4565370000000  0.5058680000000 1.0
C      1  0.4463660000000  0.5404430000000  0.4958720000000 1.0
C      1  0.4845470000000  0.5203820000000  0.4619310000000 1.0
C      1  0.5108380000000  0.4878220000000  0.5321660000000 1.0
C      1  0.5648660000000  0.5224140000000  0.5004380000000 1.0
C      1  0.4374300000000  0.4802020000000  0.5028650000000 1.0
C      1  0.5593730000000  0.4737770000000  0.5283580000000 1.0
C      1  0.4524970000000  0.5302400000000  0.4676260000000 1.0
C      1  0.5414330000000  0.4736870000000  0.4799330000000 1.0
C      1  0.4543780000000  0.5262170000000  0.5221170000000 1.0
C      1  0.4725160000000  0.4931090000000  0.5744600000000 1.0
C      1  0.5282570000000  0.5083070000000  0.4345570000000 1.0
C      1  0.4875400000000  0.5183800000000  0.5221930000000 1.0
C      1  0.5082380000000  0.4803730000000  0.4809000000000 1.0
C      1  0.4791580000000  0.4382270000000  0.4870540000000 1.0
C      1  0.5134000000000  0.5600590000000  0.5165500000000 1.0
C      1  0.4757380000000  0.5521710000000  0.4553650000000 1.0
C      1  0.5327510000000  0.4156550000000  0.5368220000000 1.0
C      1  0.5007040000000  0.4880530000000  0.5843500000000 1.0
C      1  0.4984890000000  0.5084020000000  0.4236310000000 1.0
C      1  0.5342130000000  0.5326030000000  0.4566210000000 1.0
C      1  0.4601000000000  0.4767320000000  0.5480770000000 1.0
C      1  0.5203330000000  0.4976020000000  0.5632940000000 1.0
C      1  0.4816090000000  0.4897060000000  0.4366740000000 1.0
C      1  0.5505100000000  0.5253470000000  0.5288590000000 1.0
C      1  0.4471450000000  0.4748840000000  0.4733010000000 1.0
C      1  0.5575960000000  0.5396610000000  0.4739630000000 1.0
C      1  0.4378550000000  0.4662920000000  0.5327980000000 1.0
C      1  0.4658640000000  0.5624290000000  0.5025850000000 1.0
C      1  0.5301540000000  0.4356690000000  0.4851330000000 1.0
C      1  0.5114330000000  0.5668570000000  0.4886760000000 1.0
C      1  0.4946650000000  0.4417290000000  0.5168460000000 1.0
C      1  0.5084060000000  0.5023270000000  0.5027210000000 1.0
END
