TITL C-2782240-8521-1270 -0.0026002004842234 125000 -865.860985422534 0 0 145 (C1) n - 1
REM
REM in /home/nfs/bkarasulu/CARBON/AIRSS/Generating-Clusters/REBO/Higher-Symm/SD-CG/HFTN-CG
REM
REM
REM
REM
REM
REM ./C.cell (12c818d87b63d06a65506943cc24bca4)
REM
REM compiler GCC version 9.2.1 20190827 (Red Hat 9.2.1-1)
REM options -cpp -mtune=generic -march=x86-64 -g -O0 -fpre-include=/usr/include/finclude/math-vector-fortran.h
REM seed -696699413 639983050 -159245579 -582503673 -691066119 -732458332 -1728701312 2053951706 2046657521 1669761325 -2137151511 -219897903 167382274 796376231 225817090 -1322783231 1064798518 -1582886393 -2132552915 1929841310 -1342759178 408465159 2052466472 217811443 777545495 -1969019008 -1211103390 1926298183 1658089034 -62282476 680932573 -1148037345 -1836581640
REM
CELL 1.54180   50.00000   50.00000   50.00000   90.00000   90.00000   90.00000
LATT -1
SFAC C  
C      1  0.4967570000000  0.5972600000000  0.5397720000000 1.0
C      1  0.5016390000000  0.4775520000000  0.4005710000000 1.0
C      1  0.5039000000000  0.4217220000000  0.5669120000000 1.0
C      1  0.5334140000000  0.4856760000000  0.4232250000000 1.0
C      1  0.5214350000000  0.4413770000000  0.5452560000000 1.0
C      1  0.5243350000000  0.5697450000000  0.5273660000000 1.0
C      1  0.4500590000000  0.5722610000000  0.4987530000000 1.0
C      1  0.4561460000000  0.4640220000000  0.4515000000000 1.0
C      1  0.4493260000000  0.4699870000000  0.5558530000000 1.0
C      1  0.4958330000000  0.5523470000000  0.4409230000000 1.0
C      1  0.4903830000000  0.4224140000000  0.4797490000000 1.0
C      1  0.4958680000000  0.5245110000000  0.5755480000000 1.0
C      1  0.4735780000000  0.4230630000000  0.5710150000000 1.0
C      1  0.4684510000000  0.5994990000000  0.5346470000000 1.0
C      1  0.4711210000000  0.4824380000000  0.3938830000000 1.0
C      1  0.5138100000000  0.5488770000000  0.5080300000000 1.0
C      1  0.5201590000000  0.4785190000000  0.4491180000000 1.0
C      1  0.5152600000000  0.4689870000000  0.5369210000000 1.0
C      1  0.4625690000000  0.4927200000000  0.5942040000000 1.0
C      1  0.4623990000000  0.5881760000000  0.4561950000000 1.0
C      1  0.4599430000000  0.4241370000000  0.4417770000000 1.0
C      1  0.5663520000000  0.4215700000000  0.4854580000000 1.0
C      1  0.5644920000000  0.5291620000000  0.5767980000000 1.0
C      1  0.5642530000000  0.5514580000000  0.4371500000000 1.0
C      1  0.5148930000000  0.5871750000000  0.4379420000000 1.0
C      1  0.5125390000000  0.4068610000000  0.4505450000000 1.0
C      1  0.5138770000000  0.5078060000000  0.6069380000000 1.0
C      1  0.5768030000000  0.4457280000000  0.4925760000000 1.0
C      1  0.5736170000000  0.5210520000000  0.5525310000000 1.0
C      1  0.5745840000000  0.5357220000000  0.4568790000000 1.0
C      1  0.4620220000000  0.5617960000000  0.5236830000000 1.0
C      1  0.4614020000000  0.4910380000000  0.4329400000000 1.0
C      1  0.4664820000000  0.4482800000000  0.5408440000000 1.0
C      1  0.4756130000000  0.5109030000000  0.5431860000000 1.0
C      1  0.4778430000000  0.5292120000000  0.4679640000000 1.0
C      1  0.4680140000000  0.4570770000000  0.4830110000000 1.0
C      1  0.5448130000000  0.5093900000000  0.4531030000000 1.0
C      1  0.5450350000000  0.4534500000000  0.5154700000000 1.0
C      1  0.5415890000000  0.5342620000000  0.5325590000000 1.0
C      1  0.4838950000000  0.5097070000000  0.4445400000000 1.0
C      1  0.4822490000000  0.4500710000000  0.5105250000000 1.0
C      1  0.4827920000000  0.5408140000000  0.5317930000000 1.0
C      1  0.4482370000000  0.4178470000000  0.5127860000000 1.0
C      1  0.4482810000000  0.5504280000000  0.5695860000000 1.0
C      1  0.4465560000000  0.5407390000000  0.4286320000000 1.0
C      1  0.5215130000000  0.5685460000000  0.4150990000000 1.0
C      1  0.5212400000000  0.3971090000000  0.4772600000000 1.0
C      1  0.5217160000000  0.5362150000000  0.6036480000000 1.0
C      1  0.5081410000000  0.5035780000000  0.4677720000000 1.0
C      1  0.5057370000000  0.4705060000000  0.5078760000000 1.0
C      1  0.5051620000000  0.5190710000000  0.5177850000000 1.0
C      1  0.4957720000000  0.4753140000000  0.5803870000000 1.0
C      1  0.4949130000000  0.5810330000000  0.4781360000000 1.0
C      1  0.4987190000000  0.4544210000000  0.4255170000000 1.0
C      1  0.4488420000000  0.5397200000000  0.4599810000000 1.0
C      1  0.4421390000000  0.4433430000000  0.4957830000000 1.0
C      1  0.4475300000000  0.5227300000000  0.5527650000000 1.0
C      1  0.5733850000000  0.4923000000000  0.5435170000000 1.0
C      1  0.5719520000000  0.5418030000000  0.4864230000000 1.0
C      1  0.5744740000000  0.4686210000000  0.4732740000000 1.0
C      1  0.5516840000000  0.5909090000000  0.5268230000000 1.0
C      1  0.5612650000000  0.4721930000000  0.4083350000000 1.0
C      1  0.5526610000000  0.4340180000000  0.5558700000000 1.0
C      1  0.4489290000000  0.5769070000000  0.5493760000000 1.0
C      1  0.4445500000000  0.4988480000000  0.4043140000000 1.0
C      1  0.4512130000000  0.4192410000000  0.5466900000000 1.0
C      1  0.5162330000000  0.5069250000000  0.5670370000000 1.0
C      1  0.5171390000000  0.5535860000000  0.4594490000000 1.0
C      1  0.5131860000000  0.4391730000000  0.4736920000000 1.0
C      1  0.4746880000000  0.6035990000000  0.4806570000000 1.0
C      1  0.4695810000000  0.4413850000000  0.4214310000000 1.0
C      1  0.4735040000000  0.4645660000000  0.5979960000000 1.0
C      1  0.5402560000000  0.5426890000000  0.5824220000000 1.0
C      1  0.5411670000000  0.5478230000000  0.4207710000000 1.0
C      1  0.5417880000000  0.4096680000000  0.4932210000000 1.0
C      1  0.4657190000000  0.4381130000000  0.5925820000000 1.0
C      1  0.4602740000000  0.6007700000000  0.5068670000000 1.0
C      1  0.4541590000000  0.4628930000000  0.4117740000000 1.0
C      1  0.5444530000000  0.4825960000000  0.5334780000000 1.0
C      1  0.5422870000000  0.5355500000000  0.4983720000000 1.0
C      1  0.5443810000000  0.4795880000000  0.4704100000000 1.0
C      1  0.4967240000000  0.5610580000000  0.4019530000000 1.0
C      1  0.4992660000000  0.3855720000000  0.4918560000000 1.0
C      1  0.4980760000000  0.5526480000000  0.6065430000000 1.0
C      1  0.4131140000000  0.5019090000000  0.4821840000000 1.0
C      1  0.4033650000000  0.4840290000000  0.5095890000000 1.0
C      1  0.4026240000000  0.5165870000000  0.5110920000000 1.0
C      1  0.5282530000000  0.4602730000000  0.4892770000000 1.0
C      1  0.5262600000000  0.5075480000000  0.5389980000000 1.0
C      1  0.5280460000000  0.5287250000000  0.4715070000000 1.0
C      1  0.4954790000000  0.5274400000000  0.4237870000000 1.0
C      1  0.4875410000000  0.4235550000000  0.5306320000000 1.0
C      1  0.4916640000000  0.5476300000000  0.5602660000000 1.0
C      1  0.4895590000000  0.5553690000000  0.4913890000000 1.0
C      1  0.4892810000000  0.4714460000000  0.4533690000000 1.0
C      1  0.4913960000000  0.4786080000000  0.5518620000000 1.0
C      1  0.4488800000000  0.4720710000000  0.5141880000000 1.0
C      1  0.4483460000000  0.5248750000000  0.5180590000000 1.0
C      1  0.4449170000000  0.5078220000000  0.4728570000000 1.0
C      1  0.4810780000000  0.4087970000000  0.4531620000000 1.0
C      1  0.4823880000000  0.5125770000000  0.6003740000000 1.0
C      1  0.4828560000000  0.5800830000000  0.4374500000000 1.0
C      1  0.5404770000000  0.5877080000000  0.4946810000000 1.0
C      1  0.5474480000000  0.4489010000000  0.4294900000000 1.0
C      1  0.5457760000000  0.4622970000000  0.5810730000000 1.0
C      1  0.5094070000000  0.5078910000000  0.4005630000000 1.0
C      1  0.5134490000000  0.4031310000000  0.5402030000000 1.0
C      1  0.5047200000000  0.5776220000000  0.5611760000000 1.0
C      1  0.4491220000000  0.4941810000000  0.5688010000000 1.0
C      1  0.4473940000000  0.5676030000000  0.4710860000000 1.0
C      1  0.4407020000000  0.4371330000000  0.4623840000000 1.0
C      1  0.5260960000000  0.4835130000000  0.5884280000000 1.0
C      1  0.5257490000000  0.5837570000000  0.4697220000000 1.0
C      1  0.5213440000000  0.4378110000000  0.4413720000000 1.0
C      1  0.5694530000000  0.4617170000000  0.5564100000000 1.0
C      1  0.5648300000000  0.5671730000000  0.5073250000000 1.0
C      1  0.5699710000000  0.4720890000000  0.4407570000000 1.0
C      1  0.5903950000000  0.4890910000000  0.5162910000000 1.0
C      1  0.5888550000000  0.5202550000000  0.5038980000000 1.0
C      1  0.5908070000000  0.4942640000000  0.4832900000000 1.0
C      1  0.4656150000000  0.5498100000000  0.4099820000000 1.0
C      1  0.4713200000000  0.4041600000000  0.4999180000000 1.0
C      1  0.4678460000000  0.5541700000000  0.5917270000000 1.0
C      1  0.5739790000000  0.5400810000000  0.5260020000000 1.0
C      1  0.5776190000000  0.5029110000000  0.4535350000000 1.0
C      1  0.5775710000000  0.4585160000000  0.5231590000000 1.0
C      1  0.4204170000000  0.5337550000000  0.5256080000000 1.0
C      1  0.4213300000000  0.5059390000000  0.4492680000000 1.0
C      1  0.4201130000000  0.4640320000000  0.5216440000000 1.0
C      1  0.5304470000000  0.5558120000000  0.5564990000000 1.0
C      1  0.5341750000000  0.5178260000000  0.4217390000000 1.0
C      1  0.5343240000000  0.4215830000000  0.5207610000000 1.0
C      1  0.4257380000000  0.4363240000000  0.5313530000000 1.0
C      1  0.4236780000000  0.5539990000000  0.5458560000000 1.0
C      1  0.4306550000000  0.5167720000000  0.4244010000000 1.0
C      1  0.4704160000000  0.4850550000000  0.5256840000000 1.0
C      1  0.4650310000000  0.5322980000000  0.4971880000000 1.0
C      1  0.4718670000000  0.4899750000000  0.4770040000000 1.0
C      1  0.5204980000000  0.6022370000000  0.5187620000000 1.0
C      1  0.5301990000000  0.4597360000000  0.4013950000000 1.0
C      1  0.5321730000000  0.4323050000000  0.5822380000000 1.0
C      1  0.4870980000000  0.5309100000000  0.3909910000000 1.0
C      1  0.4901940000000  0.3901050000000  0.5230340000000 1.0
C      1  0.4901830000000  0.5770210000000  0.5882660000000 1.0
C      1  0.4967640000000  0.4980190000000  0.4975370000000 1.0
END
