TITL C-2782236-320-716 -0.000276986404488158 125000 -134.168630627627 0 0 25 (Ci) n - 1
REM
REM in /home/nfs/bkarasulu/CARBON/AIRSS/Generating-Clusters/REBO/Higher-Symm/SD-CG/HFTN-CG
REM
REM
REM
REM
REM
REM ./C.cell (12c818d87b63d06a65506943cc24bca4)
REM
REM compiler GCC version 9.2.1 20190827 (Red Hat 9.2.1-1)
REM options -cpp -mtune=generic -march=x86-64 -g -O0 -fpre-include=/usr/include/finclude/math-vector-fortran.h
REM seed -2107960265 1257701941 -307524498 2015189931 -672496398 -1431492710 -114710487 282849938 -152191723 1740054008 494648809 -1149539316 -634415340 -573619687 1321210978 452956822 -1355287240 389608418 -1256093132 -893297574 -783545413 975970760 -1256601107 79798473 -934683155 -937980664 -387358159 248712397 1469232611 -2015617526 1954400151 -580720560 1163079821
REM
CELL 1.54180   50.00000   50.00000   50.00000   90.00000   90.00000   90.00000
LATT -1
SFAC C  
C      1  0.5302350000000  0.4732660000000  0.4359790000000 1.0
C      1  0.4695070000000  0.5267340000000  0.5640970000000 1.0
C      1  0.5247810000000  0.4641980000000  0.5279850000000 1.0
C      1  0.4749610000000  0.5358020000000  0.4720910000000 1.0
C      1  0.4757800000000  0.5083440000000  0.5201910000000 1.0
C      1  0.5239620000000  0.4916560000000  0.4798850000000 1.0
C      1  0.4649140000000  0.4843490000000  0.4688140000000 1.0
C      1  0.5348280000000  0.5156510000000  0.5312630000000 1.0
C      1  0.4593480000000  0.4878860000000  0.5363730000000 1.0
C      1  0.5403940000000  0.5121140000000  0.4637030000000 1.0
C      1  0.5130690000000  0.4713340000000  0.4590070000000 1.0
C      1  0.4866730000000  0.5286670000000  0.5410690000000 1.0
C      1  0.4850010000000  0.4682790000000  0.4592720000000 1.0
C      1  0.5147410000000  0.5317210000000  0.5408050000000 1.0
C      1  0.4716300000000  0.5089790000000  0.4867210000000 1.0
C      1  0.5281120000000  0.4910210000000  0.5133550000000 1.0
C      1  0.4982860000000  0.5468730000000  0.4638970000000 1.0
C      1  0.5014560000000  0.4531270000000  0.5361790000000 1.0
C      1  0.5252410000000  0.5422290000000  0.4625530000000 1.0
C      1  0.4745010000000  0.4577710000000  0.5375230000000 1.0
C      1  0.5461930000000  0.4961970000000  0.4371370000000 1.0
C      1  0.4535490000000  0.5038030000000  0.5629400000000 1.0
C      1  0.4435720000000  0.4581540000000  0.5313400000000 1.0
C      1  0.5561700000000  0.5418460000000  0.4687360000000 1.0
C      1  0.4998710000000  0.5000000000000  0.5000380000000 1.0
END
