TITL C-2782239-8622-189 28.1212145590747 125000 -1017.66567656227 0 0 179 (C1) n - 1
REM
REM in /home/nfs/bkarasulu/CARBON/AIRSS/Generating-Clusters/REBO/Higher-Symm/SD-CG/HFTN-CG
REM
REM
REM
REM
REM
REM ./C.cell (12c818d87b63d06a65506943cc24bca4)
REM
REM compiler GCC version 9.2.1 20190827 (Red Hat 9.2.1-1)
REM options -cpp -mtune=generic -march=x86-64 -g -O0 -fpre-include=/usr/include/finclude/math-vector-fortran.h
REM seed 1559236125 -1543581458 2082532496 -530180390 -612828809 -574632096 -496487427 -921660113 1613802372 -522198573 -2063107371 1728543271 1313611880 1707807977 1388043664 121823635 -1469631931 -600882933 -324049079 1147701299 -1738060256 -43120164 -1176051788 -872834400 1021767009 1537728582 -912252535 48373563 48725591 727591585 1576855550 -779093424 1572343337
REM
CELL 1.54180   50.00000   50.00000   50.00000   90.00000   90.00000   90.00000
LATT -1
SFAC C  
C      1  0.4623170000000  0.4969980000000  0.5658120000000 1.0
C      1  0.5560890000000  0.4517580000000  0.4783490000000 1.0
C      1  0.5009280000000  0.5597170000000  0.4614560000000 1.0
C      1  0.4673780000000  0.5246790000000  0.4525440000000 1.0
C      1  0.5325060000000  0.5108490000000  0.5636130000000 1.0
C      1  0.5312990000000  0.5032690000000  0.4398550000000 1.0
C      1  0.5665150000000  0.5448710000000  0.5017350000000 1.0
C      1  0.4400790000000  0.5229150000000  0.5006610000000 1.0
C      1  0.4377150000000  0.4626730000000  0.4947120000000 1.0
C      1  0.5046100000000  0.4216550000000  0.5355380000000 1.0
C      1  0.5090540000000  0.4344170000000  0.4801960000000 1.0
C      1  0.5073240000000  0.5615150000000  0.5306210000000 1.0
C      1  0.4163670000000  0.4818990000000  0.4774000000000 1.0
C      1  0.4872450000000  0.4215730000000  0.4995320000000 1.0
C      1  0.4905000000000  0.4840790000000  0.4296630000000 1.0
C      1  0.4125290000000  0.5226060000000  0.5208210000000 1.0
C      1  0.5875260000000  0.5220200000000  0.4717870000000 1.0
C      1  0.5712520000000  0.4939900000000  0.5117120000000 1.0
C      1  0.4875280000000  0.5872900000000  0.5200610000000 1.0
C      1  0.5197700000000  0.5788200000000  0.4844840000000 1.0
C      1  0.5277960000000  0.4100980000000  0.5158910000000 1.0
C      1  0.4781360000000  0.5232990000000  0.5826310000000 1.0
C      1  0.5121670000000  0.5204550000000  0.4223920000000 1.0
C      1  0.5041060000000  0.4870660000000  0.5828930000000 1.0
C      1  0.5271660000000  0.5839510000000  0.5159740000000 1.0
C      1  0.5098520000000  0.5263740000000  0.5833840000000 1.0
C      1  0.5894050000000  0.5131430000000  0.5289880000000 1.0
C      1  0.5392570000000  0.4176190000000  0.4785080000000 1.0
C      1  0.4768980000000  0.4389710000000  0.5258760000000 1.0
C      1  0.4688130000000  0.5768140000000  0.4777750000000 1.0
C      1  0.5177020000000  0.4703450000000  0.4220630000000 1.0
C      1  0.4721460000000  0.4654850000000  0.5728570000000 1.0
C      1  0.4837590000000  0.5275990000000  0.4227130000000 1.0
C      1  0.5690480000000  0.4758490000000  0.4609100000000 1.0
C      1  0.4010950000000  0.4963130000000  0.5322820000000 1.0
C      1  0.4181250000000  0.5118570000000  0.4770110000000 1.0
C      1  0.5810690000000  0.5043560000000  0.4236800000000 1.0
C      1  0.4335070000000  0.5762170000000  0.5055270000000 1.0
C      1  0.4959650000000  0.4346380000000  0.5809740000000 1.0
C      1  0.5695230000000  0.4946440000000  0.5598550000000 1.0
C      1  0.4312420000000  0.4926510000000  0.4284790000000 1.0
C      1  0.4248030000000  0.5097160000000  0.5709020000000 1.0
C      1  0.4366860000000  0.4228710000000  0.4955170000000 1.0
C      1  0.5756270000000  0.4227470000000  0.4976170000000 1.0
C      1  0.5626350000000  0.5838220000000  0.4918300000000 1.0
C      1  0.5111200000000  0.5702160000000  0.4247900000000 1.0
C      1  0.4890390000000  0.5720590000000  0.5760770000000 1.0
C      1  0.4933560000000  0.4326660000000  0.4279200000000 1.0
C      1  0.4677130000000  0.5543240000000  0.5903710000000 1.0
C      1  0.5839300000000  0.4744140000000  0.5364510000000 1.0
C      1  0.5415000000000  0.5941110000000  0.4668150000000 1.0
C      1  0.4762980000000  0.4506580000000  0.4131170000000 1.0
C      1  0.5189480000000  0.4597460000000  0.5770660000000 1.0
C      1  0.5330870000000  0.5450020000000  0.4169420000000 1.0
C      1  0.5974700000000  0.5195080000000  0.4421470000000 1.0
C      1  0.4192580000000  0.5358160000000  0.5497580000000 1.0
C      1  0.4198430000000  0.4684240000000  0.4484460000000 1.0
C      1  0.5574350000000  0.4062960000000  0.5122620000000 1.0
C      1  0.4636310000000  0.4145320000000  0.4789420000000 1.0
C      1  0.4584390000000  0.5766220000000  0.5263680000000 1.0
C      1  0.5502090000000  0.4744060000000  0.5799390000000 1.0
C      1  0.5739440000000  0.5594930000000  0.4715200000000 1.0
C      1  0.4696690000000  0.5910890000000  0.5553650000000 1.0
C      1  0.5610590000000  0.5274660000000  0.4072550000000 1.0
C      1  0.4402410000000  0.5339330000000  0.5893350000000 1.0
C      1  0.4463700000000  0.4657330000000  0.4139430000000 1.0
C      1  0.5884460000000  0.4441810000000  0.5208380000000 1.0
C      1  0.4221040000000  0.4427830000000  0.4717930000000 1.0
C      1  0.4122020000000  0.5618340000000  0.5283460000000 1.0
C      1  0.4714330000000  0.4128010000000  0.4456880000000 1.0
C      1  0.5218390000000  0.4222150000000  0.5635400000000 1.0
C      1  0.5370890000000  0.5880210000000  0.4380830000000 1.0
C      1  0.6046860000000  0.5400060000000  0.4929460000000 1.0
C      1  0.4928060000000  0.6125450000000  0.5420100000000 1.0
C      1  0.5505020000000  0.4920790000000  0.6087170000000 1.0
C      1  0.6010410000000  0.4702410000000  0.5026000000000 1.0
C      1  0.3980350000000  0.4663000000000  0.4976870000000 1.0
C      1  0.3916730000000  0.5449600000000  0.5068770000000 1.0
C      1  0.4931310000000  0.3928340000000  0.4629830000000 1.0
C      1  0.4898950000000  0.3848210000000  0.5394820000000 1.0
C      1  0.5013730000000  0.6107380000000  0.4677840000000 1.0
C      1  0.5448640000000  0.5040470000000  0.3887010000000 1.0
C      1  0.4559260000000  0.5077340000000  0.6043510000000 1.0
C      1  0.4675990000000  0.4906430000000  0.4121500000000 1.0
C      1  0.5091390000000  0.5861570000000  0.5536340000000 1.0
C      1  0.5563930000000  0.5135500000000  0.5851130000000 1.0
C      1  0.5910900000000  0.5690080000000  0.5049320000000 1.0
C      1  0.5101640000000  0.4182850000000  0.4516610000000 1.0
C      1  0.4843780000000  0.4096950000000  0.5604910000000 1.0
C      1  0.4945760000000  0.5893510000000  0.4478410000000 1.0
C      1  0.5520130000000  0.4904500000000  0.4183510000000 1.0
C      1  0.4394430000000  0.4834780000000  0.5871950000000 1.0
C      1  0.4464530000000  0.5177300000000  0.4122710000000 1.0
C      1  0.5900050000000  0.4489610000000  0.4815170000000 1.0
C      1  0.4146970000000  0.4438150000000  0.5111220000000 1.0
C      1  0.4218290000000  0.5486870000000  0.4921100000000 1.0
C      1  0.5615200000000  0.5804410000000  0.4256030000000 1.0
C      1  0.4310330000000  0.5629170000000  0.5819240000000 1.0
C      1  0.5770550000000  0.4352060000000  0.5485600000000 1.0
C      1  0.5490290000000  0.4256030000000  0.5627970000000 1.0
C      1  0.4449620000000  0.4145200000000  0.4312540000000 1.0
C      1  0.4416000000000  0.5902310000000  0.5681180000000 1.0
C      1  0.4308090000000  0.4400080000000  0.4171590000000 1.0
C      1  0.5664940000000  0.4486790000000  0.5755170000000 1.0
C      1  0.5753550000000  0.5541580000000  0.4135560000000 1.0
C      1  0.5787280000000  0.5616450000000  0.4448410000000 1.0
C      1  0.4160360000000  0.5750320000000  0.5562780000000 1.0
C      1  0.4194390000000  0.4286360000000  0.4444930000000 1.0
C      1  0.4466290000000  0.4276200000000  0.5277470000000 1.0
C      1  0.5269510000000  0.4390160000000  0.4224840000000 1.0
C      1  0.4279460000000  0.5209490000000  0.4471940000000 1.0
C      1  0.4374470000000  0.5787300000000  0.4713240000000 1.0
C      1  0.5570180000000  0.5760460000000  0.5246560000000 1.0
C      1  0.5702440000000  0.4196280000000  0.4635550000000 1.0
C      1  0.5190470000000  0.5556940000000  0.5767900000000 1.0
C      1  0.4782950000000  0.5601160000000  0.4266990000000 1.0
C      1  0.4616230000000  0.4366780000000  0.5790980000000 1.0
C      1  0.4182400000000  0.4806360000000  0.5539270000000 1.0
C      1  0.5835530000000  0.4708570000000  0.4315660000000 1.0
C      1  0.5733440000000  0.5280330000000  0.5525910000000 1.0
C      1  0.5846740000000  0.4921760000000  0.4821900000000 1.0
C      1  0.4900140000000  0.5925880000000  0.4907730000000 1.0
C      1  0.4772010000000  0.4834850000000  0.6001680000000 1.0
C      1  0.6105220000000  0.5243820000000  0.5155340000000 1.0
C      1  0.3918800000000  0.5236730000000  0.4838630000000 1.0
C      1  0.3850800000000  0.4819610000000  0.5157110000000 1.0
C      1  0.4931460000000  0.3908370000000  0.5128370000000 1.0
C      1  0.5149950000000  0.3956340000000  0.4878430000000 1.0
C      1  0.5192870000000  0.6111100000000  0.5242390000000 1.0
C      1  0.4726350000000  0.5175300000000  0.3921140000000 1.0
C      1  0.5222620000000  0.5045150000000  0.6038300000000 1.0
C      1  0.5164770000000  0.4959730000000  0.4018090000000 1.0
C      1  0.5052070000000  0.4672220000000  0.4714500000000 1.0
C      1  0.4651950000000  0.4972070000000  0.4709180000000 1.0
C      1  0.4696260000000  0.4644510000000  0.4935220000000 1.0
C      1  0.5042990000000  0.5323750000000  0.5420820000000 1.0
C      1  0.5084550000000  0.5263010000000  0.4631750000000 1.0
C      1  0.5025000000000  0.4741510000000  0.5329170000000 1.0
C      1  0.4556350000000  0.4945450000000  0.5322170000000 1.0
C      1  0.5384470000000  0.4983280000000  0.4731480000000 1.0
C      1  0.5383230000000  0.4935560000000  0.5348950000000 1.0
C      1  0.4716290000000  0.5341970000000  0.5001540000000 1.0
C      1  0.5368400000000  0.5353910000000  0.5063770000000 1.0
C      1  0.5348380000000  0.4584220000000  0.4985080000000 1.0
C      1  0.5341670000000  0.5421790000000  0.4477640000000 1.0
C      1  0.4469480000000  0.5238190000000  0.5408370000000 1.0
C      1  0.5381970000000  0.4394780000000  0.5236010000000 1.0
C      1  0.5235550000000  0.4583240000000  0.5466990000000 1.0
C      1  0.4809260000000  0.4629720000000  0.4508510000000 1.0
C      1  0.4753090000000  0.5335830000000  0.5524220000000 1.0
C      1  0.4501650000000  0.4726760000000  0.4581830000000 1.0
C      1  0.5537200000000  0.4657030000000  0.5373650000000 1.0
C      1  0.5546330000000  0.5248870000000  0.4687540000000 1.0
C      1  0.5354940000000  0.5513650000000  0.4786160000000 1.0
C      1  0.4627080000000  0.5468930000000  0.5260360000000 1.0
C      1  0.4619740000000  0.4437530000000  0.4691790000000 1.0
C      1  0.4532230000000  0.4150390000000  0.5560860000000 1.0
C      1  0.5549150000000  0.4579420000000  0.4180960000000 1.0
C      1  0.4223340000000  0.5505500000000  0.4605890000000 1.0
C      1  0.4611220000000  0.5820490000000  0.4463820000000 1.0
C      1  0.5392050000000  0.5703460000000  0.5530670000000 1.0
C      1  0.5423140000000  0.4180800000000  0.4441250000000 1.0
C      1  0.5512890000000  0.5448570000000  0.5721680000000 1.0
C      1  0.4484610000000  0.5435220000000  0.4313730000000 1.0
C      1  0.4337120000000  0.4555650000000  0.5728570000000 1.0
C      1  0.4244640000000  0.4493840000000  0.5417360000000 1.0
C      1  0.5897850000000  0.4437530000000  0.4494420000000 1.0
C      1  0.5795370000000  0.5517010000000  0.5321690000000 1.0
C      1  0.4967400000000  0.4984440000000  0.4593300000000 1.0
C      1  0.4975320000000  0.5004260000000  0.5522330000000 1.0
C      1  0.5020730000000  0.4659410000000  0.5037560000000 1.0
C      1  0.4709190000000  0.4945170000000  0.5044040000000 1.0
C      1  0.5055720000000  0.5303770000000  0.4945920000000 1.0
C      1  0.5411110000000  0.4887460000000  0.5021300000000 1.0
C      1  0.5333210000000  0.5250490000000  0.5332020000000 1.0
C      1  0.5367110000000  0.4725520000000  0.4505490000000 1.0
C      1  0.4731710000000  0.4675440000000  0.5413020000000 1.0
C      1  0.4751140000000  0.5459200000000  0.4728160000000 1.0
C      1  0.4974460000000  0.5052360000000  0.5086770000000 1.0
END
