TITL C-2782236-320-493 -2.50114942965007e-05 125000 -202.459454071974 0 0 36 (C2) n - 1
REM
REM in /home/nfs/bkarasulu/CARBON/AIRSS/Generating-Clusters/REBO/Higher-Symm/SD-CG/HFTN-CG
REM
REM
REM
REM
REM
REM ./C.cell (12c818d87b63d06a65506943cc24bca4)
REM
REM compiler GCC version 9.2.1 20190827 (Red Hat 9.2.1-1)
REM options -cpp -mtune=generic -march=x86-64 -g -O0 -fpre-include=/usr/include/finclude/math-vector-fortran.h
REM seed -81669293 700003573 -2140293935 385030041 1973291049 946635607 86789461 966008425 -171214266 542331468 1848068858 208884247 1966527242 117639450 -425601798 -93252746 1319187237 -797602839 -1348543015 174972850 1030501525 1380156651 1210771080 1651435059 1781100294 -723300185 1724906628 -959163628 -1830889558 -19682229 627162802 -1982249547 -1079876911
REM
CELL 1.54180   50.00000   50.00000   50.00000   90.00000   90.00000   90.00000
LATT -1
SFAC C  
C      1  0.5623670000000  0.5272140000000  0.5358700000000 1.0
C      1  0.5657560000000  0.4802740000000  0.4702170000000 1.0
C      1  0.4411300000000  0.5272030000000  0.4641220000000 1.0
C      1  0.4377420000000  0.4802810000000  0.5297890000000 1.0
C      1  0.4852680000000  0.5146140000000  0.5111430000000 1.0
C      1  0.4793960000000  0.4809530000000  0.4904730000000 1.0
C      1  0.5182290000000  0.5146110000000  0.4888530000000 1.0
C      1  0.5241010000000  0.4809560000000  0.5095320000000 1.0
C      1  0.4515370000000  0.5026490000000  0.5413040000000 1.0
C      1  0.4487000000000  0.5004990000000  0.4553550000000 1.0
C      1  0.5519600000000  0.5026380000000  0.4586950000000 1.0
C      1  0.5547970000000  0.5005130000000  0.5446450000000 1.0
C      1  0.5260660000000  0.5458840000000  0.4774040000000 1.0
C      1  0.5243220000000  0.4529470000000  0.5068600000000 1.0
C      1  0.4774300000000  0.5458900000000  0.5225830000000 1.0
C      1  0.4791760000000  0.4529440000000  0.4931530000000 1.0
C      1  0.5657560000000  0.5343680000000  0.5095650000000 1.0
C      1  0.5721870000000  0.4710420000000  0.4956170000000 1.0
C      1  0.4377400000000  0.5343640000000  0.4904260000000 1.0
C      1  0.4313100000000  0.4710420000000  0.5043910000000 1.0
C      1  0.4730410000000  0.4960200000000  0.4398570000000 1.0
C      1  0.4751410000000  0.5001080000000  0.5582310000000 1.0
C      1  0.5304570000000  0.4960380000000  0.5601440000000 1.0
C      1  0.5283560000000  0.5000920000000  0.4417690000000 1.0
C      1  0.4494450000000  0.5286910000000  0.5208620000000 1.0
C      1  0.4414860000000  0.4833880000000  0.4784900000000 1.0
C      1  0.5540520000000  0.5286870000000  0.4791300000000 1.0
C      1  0.5620120000000  0.4833960000000  0.5215150000000 1.0
C      1  0.4571460000000  0.5013440000000  0.5018670000000 1.0
C      1  0.5463510000000  0.5013440000000  0.4981320000000 1.0
C      1  0.5032670000000  0.4943270000000  0.5225790000000 1.0
C      1  0.5002310000000  0.4943210000000  0.4774230000000 1.0
C      1  0.5017480000000  0.5422530000000  0.4999940000000 1.0
C      1  0.5017490000000  0.4386620000000  0.5000090000000 1.0
C      1  0.5005120000000  0.4952140000000  0.4489920000000 1.0
C      1  0.5029850000000  0.4952290000000  0.5510090000000 1.0
END
