TITL C-2782231-7322-497 3.42797324550311e-08 125000 -101.806536187488 0 0 18 (D6h) n - 1
REM
REM in /home/nfs/bkarasulu/CARBON/AIRSS/Generating-Clusters/REBO/Higher-Symm/SD-CG/HFTN-CG
REM
REM
REM
REM
REM
REM ./C.cell (12c818d87b63d06a65506943cc24bca4)
REM
REM compiler GCC version 9.2.1 20190827 (Red Hat 9.2.1-1)
REM options -cpp -mtune=generic -march=x86-64 -g -O0 -fpre-include=/usr/include/finclude/math-vector-fortran.h
REM seed -214481572 569773674 -439151015 -1981323962 -894053532 910781800 740725037 374148026 -80227394 515372563 646197286 -814953230 -1376744564 -964470520 -277814447 -2121178315 -766355182 -1543374135 145020365 143838803 -405381599 -997255904 -288114810 686697946 1284028316 1530627300 1860580584 426925880 180723643 1392674361 79269128 -1248002725 1475895882
REM
CELL 1.54180   50.00000   50.00000   50.00000   90.00000   90.00000   90.00000
LATT -1
SFAC C  
C      1  0.4595760000000  0.5000000000000  0.5233390000000 1.0
C      1  0.5000000000000  0.5000000000000  0.4533230000000 1.0
C      1  0.5404240000000  0.5000000000000  0.5233390000000 1.0
C      1  0.4595760000000  0.5000000000000  0.4766610000000 1.0
C      1  0.5000000000000  0.5000000000000  0.5466770000000 1.0
C      1  0.5404240000000  0.5000000000000  0.4766610000000 1.0
C      1  0.5000000000000  0.4756150000000  0.5295840000000 1.0
C      1  0.4743790000000  0.4756150000000  0.4852080000000 1.0
C      1  0.5256210000000  0.4756150000000  0.4852080000000 1.0
C      1  0.5000000000000  0.4756150000000  0.4704160000000 1.0
C      1  0.4743790000000  0.4756150000000  0.5147920000000 1.0
C      1  0.5256210000000  0.4756150000000  0.5147920000000 1.0
C      1  0.5256210000000  0.5243850000000  0.4852080000000 1.0
C      1  0.5000000000000  0.5243850000000  0.5295840000000 1.0
C      1  0.4743790000000  0.5243850000000  0.4852080000000 1.0
C      1  0.5256210000000  0.5243850000000  0.5147920000000 1.0
C      1  0.5000000000000  0.5243850000000  0.4704160000000 1.0
C      1  0.4743790000000  0.5243850000000  0.5147920000000 1.0
END
