TITL C-2782228-2999-636 1.1827901297514e-06 125000 -124.476172833067 0 0 22 (C1) n - 1
REM
REM in /home/nfs/bkarasulu/CARBON/AIRSS/Generating-Clusters/REBO/Higher-Symm/SD-CG/HFTN-CG
REM
REM
REM
REM
REM
REM ./C.cell (12c818d87b63d06a65506943cc24bca4)
REM
REM compiler GCC version 9.2.1 20190827 (Red Hat 9.2.1-1)
REM options -cpp -mtune=generic -march=x86-64 -g -O0 -fpre-include=/usr/include/finclude/math-vector-fortran.h
REM seed 1876952331 386999038 -507882006 885971977 503671893 2014095534 615800347 1251899131 679489625 1377662076 -87308041 1703348751 -637834248 -23936531 -573480739 -65472477 -1374834894 -1474853177 -717487546 42210333 -671409795 -134912629 -329524903 -1662986068 98883434 1548678217 751879958 563764792 498486310 -765007603 75696355 -422344191 -1580919141
REM
CELL 1.54180   50.00000   50.00000   50.00000   90.00000   90.00000   90.00000
LATT -1
SFAC C  
C      1  0.4901210000000  0.5258550000000  0.4717660000000 1.0
C      1  0.4904920000000  0.4732270000000  0.4725220000000 1.0
C      1  0.4660990000000  0.4628000000000  0.5323900000000 1.0
C      1  0.4660830000000  0.5365370000000  0.5319660000000 1.0
C      1  0.5125970000000  0.4857790000000  0.5542000000000 1.0
C      1  0.5125570000000  0.5134740000000  0.5540230000000 1.0
C      1  0.5316260000000  0.5182990000000  0.4239760000000 1.0
C      1  0.5307950000000  0.4907110000000  0.4270990000000 1.0
C      1  0.5200350000000  0.4616600000000  0.5336470000000 1.0
C      1  0.5199530000000  0.5372910000000  0.5331140000000 1.0
C      1  0.5270890000000  0.5417070000000  0.5067090000000 1.0
C      1  0.5273150000000  0.4570280000000  0.5073080000000 1.0
C      1  0.5188670000000  0.5356110000000  0.4812790000000 1.0
C      1  0.5192010000000  0.4631910000000  0.4818410000000 1.0
C      1  0.4901980000000  0.5355700000000  0.5457910000000 1.0
C      1  0.4902320000000  0.4636210000000  0.5461950000000 1.0
C      1  0.4576780000000  0.4715550000000  0.5080100000000 1.0
C      1  0.4576080000000  0.5278260000000  0.5075860000000 1.0
C      1  0.5169430000000  0.4827060000000  0.4549520000000 1.0
C      1  0.5166040000000  0.5164260000000  0.4540460000000 1.0
C      1  0.4688750000000  0.5139570000000  0.4856320000000 1.0
C      1  0.4690330000000  0.4851700000000  0.4859500000000 1.0
END
