TITL C-2782238-9940-463 0.00029899570617315 125000 -920.931717394531 0 0 164 (C1) n - 1
REM
REM in /home/nfs/bkarasulu/CARBON/AIRSS/Generating-Clusters/REBO/Higher-Symm/SD-CG/HFTN-CG
REM
REM
REM
REM
REM
REM ./C.cell (12c818d87b63d06a65506943cc24bca4)
REM
REM compiler GCC version 9.2.1 20190827 (Red Hat 9.2.1-1)
REM options -cpp -mtune=generic -march=x86-64 -g -O0 -fpre-include=/usr/include/finclude/math-vector-fortran.h
REM seed 1291004468 1828926423 1212564611 1702106078 -1733283839 -239974799 207065237 -1347854064 2127029792 -1959749253 436467537 254740143 -439732013 -179265968 -1610860934 -1176855215 311783285 -1320897433 1611523163 1810084002 1823639776 771422451 320300480 -1464272831 520989694 -1662039656 28399668 -1752659849 1281297591 1462831412 1644197633 1810846943 1579321302
REM
CELL 1.54180   50.00000   50.00000   50.00000   90.00000   90.00000   90.00000
LATT -1
SFAC C  
C      1  0.4835950000000  0.6022330000000  0.5293860000000 1.0
C      1  0.5736200000000  0.5382280000000  0.5378540000000 1.0
C      1  0.5596460000000  0.4389690000000  0.5366130000000 1.0
C      1  0.4564050000000  0.4111670000000  0.5291650000000 1.0
C      1  0.4158160000000  0.5121160000000  0.5346160000000 1.0
C      1  0.5530620000000  0.5407770000000  0.5802370000000 1.0
C      1  0.5628650000000  0.4536950000000  0.5797840000000 1.0
C      1  0.4892860000000  0.4283040000000  0.5761640000000 1.0
C      1  0.4344910000000  0.4927720000000  0.5807670000000 1.0
C      1  0.4714590000000  0.5614790000000  0.5763700000000 1.0
C      1  0.5040220000000  0.5276970000000  0.4431820000000 1.0
C      1  0.5364910000000  0.5177500000000  0.4395460000000 1.0
C      1  0.5179530000000  0.4746060000000  0.4410790000000 1.0
C      1  0.4841970000000  0.4791470000000  0.4446860000000 1.0
C      1  0.4770630000000  0.5105400000000  0.4397160000000 1.0
C      1  0.4845800000000  0.4354480000000  0.4306560000000 1.0
C      1  0.4335250000000  0.4884930000000  0.4293060000000 1.0
C      1  0.4662430000000  0.5589430000000  0.4321780000000 1.0
C      1  0.5496770000000  0.5475540000000  0.4163960000000 1.0
C      1  0.5593890000000  0.4693380000000  0.4229240000000 1.0
C      1  0.5482950000000  0.4686840000000  0.5361180000000 1.0
C      1  0.4725280000000  0.4362090000000  0.5427590000000 1.0
C      1  0.4434810000000  0.4961200000000  0.5269100000000 1.0
C      1  0.4783110000000  0.5696610000000  0.5397450000000 1.0
C      1  0.5415270000000  0.5375820000000  0.5391500000000 1.0
C      1  0.4007720000000  0.4838880000000  0.4340680000000 1.0
C      1  0.4533190000000  0.5896860000000  0.4362450000000 1.0
C      1  0.5642450000000  0.5662620000000  0.4379260000000 1.0
C      1  0.5864230000000  0.4602730000000  0.4398740000000 1.0
C      1  0.4860510000000  0.4068680000000  0.4479600000000 1.0
C      1  0.5031920000000  0.5738810000000  0.5740570000000 1.0
C      1  0.5739890000000  0.5141780000000  0.5835720000000 1.0
C      1  0.5435720000000  0.4264820000000  0.5792520000000 1.0
C      1  0.4569740000000  0.4413420000000  0.5791510000000 1.0
C      1  0.4305830000000  0.5268480000000  0.5814260000000 1.0
C      1  0.4792910000000  0.4849570000000  0.4028150000000 1.0
C      1  0.4797720000000  0.5143980000000  0.4003290000000 1.0
C      1  0.5075360000000  0.5222870000000  0.4037140000000 1.0
C      1  0.5240600000000  0.4986590000000  0.4046180000000 1.0
C      1  0.5067310000000  0.4752040000000  0.4030210000000 1.0
C      1  0.4642700000000  0.5316510000000  0.5605490000000 1.0
C      1  0.5185100000000  0.5396280000000  0.5618100000000 1.0
C      1  0.5430940000000  0.4959940000000  0.5676730000000 1.0
C      1  0.5142910000000  0.4512300000000  0.5681390000000 1.0
C      1  0.4613110000000  0.4783350000000  0.5650360000000 1.0
C      1  0.5977870000000  0.5341420000000  0.5140050000000 1.0
C      1  0.5636520000000  0.4242450000000  0.5073970000000 1.0
C      1  0.4380470000000  0.4199970000000  0.5085190000000 1.0
C      1  0.4048450000000  0.5289800000000  0.5089390000000 1.0
C      1  0.4993620000000  0.5966200000000  0.5003880000000 1.0
C      1  0.5001750000000  0.3939900000000  0.5132690000000 1.0
C      1  0.4071320000000  0.4773360000000  0.5169230000000 1.0
C      1  0.4402500000000  0.5870210000000  0.5135240000000 1.0
C      1  0.5648100000000  0.5837190000000  0.5118680000000 1.0
C      1  0.6013250000000  0.4657230000000  0.5143170000000 1.0
C      1  0.5192440000000  0.5473780000000  0.4194400000000 1.0
C      1  0.5527310000000  0.4986080000000  0.4196540000000 1.0
C      1  0.5122250000000  0.4481510000000  0.4216650000000 1.0
C      1  0.4588070000000  0.4711210000000  0.4233170000000 1.0
C      1  0.4586540000000  0.5308860000000  0.4192960000000 1.0
C      1  0.5062300000000  0.5399530000000  0.4746580000000 1.0
C      1  0.5278420000000  0.5070560000000  0.4676760000000 1.0
C      1  0.5108030000000  0.4714590000000  0.4734740000000 1.0
C      1  0.4711800000000  0.4684460000000  0.4743240000000 1.0
C      1  0.4721030000000  0.5195860000000  0.4776930000000 1.0
C      1  0.4981330000000  0.4432510000000  0.4589100000000 1.0
C      1  0.4449750000000  0.5090070000000  0.4514150000000 1.0
C      1  0.4695540000000  0.5476030000000  0.4613360000000 1.0
C      1  0.5524950000000  0.5358290000000  0.4635230000000 1.0
C      1  0.5466170000000  0.4653180000000  0.4568470000000 1.0
C      1  0.5361080000000  0.5669440000000  0.5654500000000 1.0
C      1  0.5801120000000  0.4823230000000  0.5732420000000 1.0
C      1  0.5189980000000  0.4121040000000  0.5710600000000 1.0
C      1  0.4283780000000  0.4594800000000  0.5747870000000 1.0
C      1  0.4376870000000  0.5586990000000  0.5717470000000 1.0
C      1  0.5634100000000  0.4216190000000  0.4763570000000 1.0
C      1  0.4494270000000  0.4220720000000  0.4825600000000 1.0
C      1  0.4055200000000  0.5333400000000  0.4782320000000 1.0
C      1  0.4913320000000  0.5942870000000  0.4718420000000 1.0
C      1  0.5970180000000  0.5265160000000  0.4824450000000 1.0
C      1  0.5445490000000  0.5834970000000  0.4502970000000 1.0
C      1  0.6000470000000  0.4846790000000  0.4513260000000 1.0
C      1  0.5133280000000  0.4035990000000  0.4562350000000 1.0
C      1  0.4166440000000  0.4604790000000  0.4529850000000 1.0
C      1  0.4319060000000  0.5719540000000  0.4507510000000 1.0
C      1  0.5172280000000  0.4335900000000  0.4843040000000 1.0
C      1  0.4236630000000  0.4891340000000  0.4680450000000 1.0
C      1  0.4494670000000  0.5578910000000  0.4844750000000 1.0
C      1  0.5459340000000  0.5621810000000  0.4840240000000 1.0
C      1  0.5685450000000  0.4777760000000  0.4736150000000 1.0
C      1  0.5202050000000  0.4788680000000  0.5400340000000 1.0
C      1  0.4899900000000  0.4654960000000  0.5405210000000 1.0
C      1  0.4735860000000  0.4901060000000  0.5289680000000 1.0
C      1  0.4905950000000  0.5172700000000  0.5368820000000 1.0
C      1  0.5210790000000  0.5115900000000  0.5336380000000 1.0
C      1  0.5084420000000  0.5863260000000  0.5444030000000 1.0
C      1  0.5651910000000  0.5062620000000  0.5455660000000 1.0
C      1  0.5257470000000  0.4362700000000  0.5403970000000 1.0
C      1  0.4507320000000  0.4601110000000  0.5420900000000 1.0
C      1  0.4382550000000  0.5323720000000  0.5429010000000 1.0
C      1  0.4698640000000  0.4440180000000  0.5108710000000 1.0
C      1  0.4438700000000  0.5214170000000  0.5053460000000 1.0
C      1  0.4978180000000  0.5597880000000  0.5153010000000 1.0
C      1  0.5612560000000  0.5237040000000  0.5027180000000 1.0
C      1  0.5495360000000  0.4615110000000  0.5047220000000 1.0
C      1  0.5810060000000  0.5087480000000  0.4359300000000 1.0
C      1  0.5317290000000  0.4244840000000  0.4363910000000 1.0
C      1  0.4417100000000  0.4478430000000  0.4385050000000 1.0
C      1  0.4302660000000  0.5419310000000  0.4344470000000 1.0
C      1  0.5151150000000  0.5746360000000  0.4357930000000 1.0
C      1  0.5778010000000  0.4533100000000  0.4956910000000 1.0
C      1  0.4912770000000  0.4216690000000  0.4985540000000 1.0
C      1  0.4180840000000  0.5002940000000  0.4966040000000 1.0
C      1  0.4710390000000  0.5770440000000  0.5013530000000 1.0
C      1  0.5733910000000  0.5531080000000  0.5007160000000 1.0
C      1  0.5302200000000  0.5267160000000  0.4930340000000 1.0
C      1  0.5341580000000  0.4849970000000  0.4912530000000 1.0
C      1  0.4933520000000  0.4615040000000  0.4996630000000 1.0
C      1  0.4568060000000  0.4937750000000  0.4894380000000 1.0
C      1  0.4817860000000  0.5391210000000  0.4983780000000 1.0
C      1  0.4309900000000  0.5654580000000  0.5387430000000 1.0
C      1  0.5389170000000  0.5810830000000  0.5343160000000 1.0
C      1  0.5898750000000  0.4842850000000  0.5406290000000 1.0
C      1  0.5202190000000  0.4040840000000  0.5379970000000 1.0
C      1  0.4182760000000  0.4571860000000  0.5421880000000 1.0
C      1  0.5752160000000  0.5108850000000  0.4677990000000 1.0
C      1  0.5412090000000  0.4355670000000  0.4649650000000 1.0
C      1  0.4552280000000  0.4433460000000  0.4670990000000 1.0
C      1  0.4318150000000  0.5356870000000  0.4668770000000 1.0
C      1  0.4962010000000  0.5684000000000  0.4601250000000 1.0
C      1  0.5245490000000  0.5469870000000  0.5155150000000 1.0
C      1  0.5469260000000  0.4989870000000  0.5182400000000 1.0
C      1  0.5210310000000  0.4494470000000  0.5129820000000 1.0
C      1  0.4477220000000  0.4674760000000  0.5088750000000 1.0
C      1  0.4615190000000  0.5450520000000  0.5229620000000 1.0
C      1  0.4195500000000  0.5558930000000  0.5080690000000 1.0
C      1  0.5266480000000  0.5843340000000  0.5025130000000 1.0
C      1  0.5862730000000  0.5022010000000  0.5118950000000 1.0
C      1  0.5348150000000  0.4088930000000  0.5075320000000 1.0
C      1  0.4187800000000  0.4402300000000  0.5127170000000 1.0
C      1  0.5376980000000  0.4691380000000  0.5746460000000 1.0
C      1  0.4844050000000  0.4613990000000  0.5798320000000 1.0
C      1  0.4655520000000  0.5067140000000  0.5795510000000 1.0
C      1  0.4929880000000  0.5354650000000  0.5770920000000 1.0
C      1  0.5280540000000  0.5172610000000  0.5830330000000 1.0
C      1  0.4851310000000  0.5862920000000  0.4264060000000 1.0
C      1  0.5784090000000  0.5382980000000  0.4266090000000 1.0
C      1  0.5624700000000  0.4376110000000  0.4313720000000 1.0
C      1  0.4566920000000  0.4182700000000  0.4360060000000 1.0
C      1  0.4116190000000  0.5151060000000  0.4306610000000 1.0
C      1  0.5767330000000  0.5684920000000  0.5373450000000 1.0
C      1  0.5896560000000  0.4421960000000  0.5322080000000 1.0
C      1  0.4716310000000  0.3886950000000  0.5247670000000 1.0
C      1  0.3952350000000  0.4913600000000  0.5431990000000 1.0
C      1  0.4563160000000  0.6101490000000  0.5239200000000 1.0
C      1  0.5516430000000  0.5945550000000  0.4817580000000 1.0
C      1  0.5996750000000  0.4848950000000  0.4856940000000 1.0
C      1  0.5173060000000  0.3938990000000  0.4834600000000 1.0
C      1  0.4134380000000  0.4619120000000  0.4870080000000 1.0
C      1  0.4245340000000  0.5788990000000  0.4833880000000 1.0
C      1  0.4978550000000  0.4932560000000  0.5603050000000 1.0
C      1  0.4967800000000  0.5011220000000  0.4753740000000 1.0
C      1  0.4934950000000  0.5020720000000  0.5063800000000 1.0
C      1  0.4970650000000  0.5059710000000  0.5913280000000 1.0
END
