TITL C-2782225-7408-753 -0.000179295166843534 125000 -443.804655798677 0 0 75 (C1) n - 1
REM
REM in /home/nfs/bkarasulu/CARBON/AIRSS/Generating-Clusters/REBO/Higher-Symm/SD-CG/HFTN-CG
REM
REM
REM
REM
REM
REM ./C.cell (12c818d87b63d06a65506943cc24bca4)
REM
REM compiler GCC version 9.2.1 20190827 (Red Hat 9.2.1-1)
REM options -cpp -mtune=generic -march=x86-64 -g -O0 -fpre-include=/usr/include/finclude/math-vector-fortran.h
REM seed 725755259 -1970720865 1122271304 -207092857 1209246336 -716349742 1470855560 -499220508 -896504825 1368495491 1749247176 -681098375 1387463140 -1564204460 -1368102685 1211544525 -176150156 -1330291975 -1183454289 -589542835 -478313019 2072610178 989616088 -665823056 -730375873 1774408540 347807489 908262936 1641285721 703329422 558402281 -1463190616 2074138582
REM
CELL 1.54180   50.00000   50.00000   50.00000   90.00000   90.00000   90.00000
LATT -1
SFAC C  
C      1  0.5833180000000  0.5214240000000  0.5096160000000 1.0
C      1  0.4452800000000  0.5568290000000  0.5114340000000 1.0
C      1  0.4797040000000  0.4222370000000  0.5145250000000 1.0
C      1  0.5781830000000  0.5209230000000  0.4851390000000 1.0
C      1  0.4432150000000  0.5558200000000  0.4864860000000 1.0
C      1  0.4773880000000  0.4205770000000  0.4896660000000 1.0
C      1  0.5822580000000  0.4815030000000  0.5107530000000 1.0
C      1  0.4446250000000  0.4411790000000  0.5128120000000 1.0
C      1  0.4786470000000  0.5783860000000  0.5156060000000 1.0
C      1  0.5799260000000  0.4810550000000  0.4857420000000 1.0
C      1  0.4418220000000  0.4387440000000  0.4879960000000 1.0
C      1  0.4759550000000  0.5782400000000  0.4907480000000 1.0
C      1  0.5419210000000  0.5456630000000  0.5585210000000 1.0
C      1  0.4373250000000  0.5180060000000  0.5608860000000 1.0
C      1  0.5157480000000  0.4402100000000  0.5635900000000 1.0
C      1  0.5420710000000  0.5430560000000  0.4391230000000 1.0
C      1  0.4391080000000  0.5173180000000  0.4349000000000 1.0
C      1  0.5146170000000  0.4379610000000  0.4382440000000 1.0
C      1  0.5412860000000  0.4549510000000  0.5575270000000 1.0
C      1  0.4381870000000  0.4880970000000  0.5558830000000 1.0
C      1  0.5165960000000  0.5606270000000  0.5647310000000 1.0
C      1  0.5407300000000  0.4520500000000  0.4419080000000 1.0
C      1  0.4386990000000  0.4874290000000  0.4403740000000 1.0
C      1  0.5182300000000  0.5609520000000  0.4433100000000 1.0
C      1  0.4248310000000  0.4823660000000  0.5249960000000 1.0
C      1  0.5546210000000  0.4427040000000  0.5283260000000 1.0
C      1  0.5259320000000  0.5718040000000  0.5329410000000 1.0
C      1  0.4209350000000  0.4818280000000  0.4693090000000 1.0
C      1  0.5532600000000  0.4413560000000  0.4719670000000 1.0
C      1  0.5208790000000  0.5754920000000  0.4742900000000 1.0
C      1  0.4264310000000  0.5146460000000  0.5281140000000 1.0
C      1  0.5559030000000  0.5589580000000  0.5299870000000 1.0
C      1  0.5252740000000  0.4288880000000  0.5319140000000 1.0
C      1  0.4245340000000  0.5142280000000  0.4663140000000 1.0
C      1  0.5468580000000  0.5564130000000  0.4709040000000 1.0
C      1  0.5239070000000  0.4270880000000  0.4702450000000 1.0
C      1  0.5613520000000  0.5279530000000  0.5290570000000 1.0
C      1  0.4534810000000  0.5319880000000  0.5278510000000 1.0
C      1  0.4972460000000  0.4429430000000  0.5289220000000 1.0
C      1  0.5500770000000  0.5249870000000  0.4732850000000 1.0
C      1  0.4506390000000  0.5313100000000  0.4698120000000 1.0
C      1  0.4945420000000  0.4383090000000  0.4721030000000 1.0
C      1  0.5582810000000  0.4739800000000  0.5275250000000 1.0
C      1  0.4534050000000  0.4682030000000  0.5254020000000 1.0
C      1  0.4971010000000  0.5592140000000  0.5305270000000 1.0
C      1  0.5535230000000  0.4728030000000  0.4728330000000 1.0
C      1  0.4459190000000  0.4627630000000  0.4702410000000 1.0
C      1  0.4933350000000  0.5592590000000  0.4739010000000 1.0
C      1  0.4862050000000  0.5520190000000  0.5605580000000 1.0
C      1  0.4636210000000  0.4679510000000  0.5569780000000 1.0
C      1  0.5463400000000  0.4866720000000  0.5570050000000 1.0
C      1  0.4867930000000  0.5528500000000  0.4425080000000 1.0
C      1  0.4633610000000  0.4661420000000  0.4413560000000 1.0
C      1  0.5445690000000  0.4844120000000  0.4428080000000 1.0
C      1  0.4862390000000  0.4514500000000  0.5587080000000 1.0
C      1  0.4629900000000  0.5364660000000  0.5601730000000 1.0
C      1  0.5494540000000  0.5143860000000  0.5575040000000 1.0
C      1  0.4852370000000  0.4489050000000  0.4415310000000 1.0
C      1  0.4641440000000  0.5366680000000  0.4393400000000 1.0
C      1  0.5466240000000  0.5121790000000  0.4428990000000 1.0
C      1  0.5261940000000  0.4824730000000  0.4854300000000 1.0
C      1  0.4980190000000  0.5308980000000  0.4853250000000 1.0
C      1  0.4702510000000  0.4820520000000  0.4773690000000 1.0
C      1  0.5306340000000  0.4865370000000  0.5181090000000 1.0
C      1  0.5034300000000  0.5319580000000  0.5176290000000 1.0
C      1  0.4747860000000  0.4845740000000  0.5100400000000 1.0
C      1  0.5261400000000  0.5143920000000  0.4897960000000 1.0
C      1  0.4974810000000  0.4673070000000  0.4821280000000 1.0
C      1  0.4717070000000  0.5132590000000  0.4823960000000 1.0
C      1  0.5314990000000  0.5176170000000  0.5220430000000 1.0
C      1  0.5026490000000  0.4695250000000  0.5148010000000 1.0
C      1  0.4758000000000  0.5163500000000  0.5150130000000 1.0
C      1  0.5402360000000  0.5699860000000  0.5017770000000 1.0
C      1  0.5396890000000  0.4291930000000  0.5007440000000 1.0
C      1  0.4187980000000  0.5010610000000  0.4974370000000 1.0
END
