TITL C-2782225-7408-749 -0.00574324742220231 125000 -544.784037350895 0 0 97 (C1) n - 1
REM
REM in /home/nfs/bkarasulu/CARBON/AIRSS/Generating-Clusters/REBO/Higher-Symm/SD-CG/HFTN-CG
REM
REM
REM
REM
REM
REM ./C.cell (12c818d87b63d06a65506943cc24bca4)
REM
REM compiler GCC version 9.2.1 20190827 (Red Hat 9.2.1-1)
REM options -cpp -mtune=generic -march=x86-64 -g -O0 -fpre-include=/usr/include/finclude/math-vector-fortran.h
REM seed -58282502 -1410998111 -1943484268 -1386724382 -141418371 524820652 -80299692 1001561544 -1388827410 1730894173 -1570492910 1012051371 1501861166 1491731688 -2033774842 -267409483 -131920489 -77716052 1676340228 -308409459 555057571 -1191853604 315102157 233805279 -1428832543 -158407799 -1950023555 -260042918 520507553 1410850969 -11217145 1198972924 401935954
REM
CELL 1.54180   50.00000   50.00000   50.00000   90.00000   90.00000   90.00000
LATT -1
SFAC C  
C      1  0.5044600000000  0.5735830000000  0.4321420000000 1.0
C      1  0.4483980000000  0.4288970000000  0.4603520000000 1.0
C      1  0.4434350000000  0.5680520000000  0.5237800000000 1.0
C      1  0.4921800000000  0.4283800000000  0.5651010000000 1.0
C      1  0.5544760000000  0.5766800000000  0.5336710000000 1.0
C      1  0.5557750000000  0.4181220000000  0.4707800000000 1.0
C      1  0.4483660000000  0.5631600000000  0.5546680000000 1.0
C      1  0.5217620000000  0.4358520000000  0.5733720000000 1.0
C      1  0.5746530000000  0.5660580000000  0.5133550000000 1.0
C      1  0.5542700000000  0.4390700000000  0.4515420000000 1.0
C      1  0.4744750000000  0.5649920000000  0.4305300000000 1.0
C      1  0.4235260000000  0.4347650000000  0.4786640000000 1.0
C      1  0.4259310000000  0.4853800000000  0.4793400000000 1.0
C      1  0.4528600000000  0.5100840000000  0.5441050000000 1.0
C      1  0.5195490000000  0.4861610000000  0.5659460000000 1.0
C      1  0.5633710000000  0.5167260000000  0.5203340000000 1.0
C      1  0.5458890000000  0.4873880000000  0.4510950000000 1.0
C      1  0.4838130000000  0.5147480000000  0.4352910000000 1.0
C      1  0.5733840000000  0.4905470000000  0.5387690000000 1.0
C      1  0.5649640000000  0.5129370000000  0.4558960000000 1.0
C      1  0.4952330000000  0.4884590000000  0.4185510000000 1.0
C      1  0.4242610000000  0.5136630000000  0.4622370000000 1.0
C      1  0.4291090000000  0.4869920000000  0.5432550000000 1.0
C      1  0.5056410000000  0.5113940000000  0.5803620000000 1.0
C      1  0.5255240000000  0.5429890000000  0.4248080000000 1.0
C      1  0.4597610000000  0.4634230000000  0.4529150000000 1.0
C      1  0.4461350000000  0.5329820000000  0.5119960000000 1.0
C      1  0.4762820000000  0.4609930000000  0.5598910000000 1.0
C      1  0.5516580000000  0.5415170000000  0.5629090000000 1.0
C      1  0.5569100000000  0.4678030000000  0.4918750000000 1.0
C      1  0.5093190000000  0.5562850000000  0.5368640000000 1.0
C      1  0.5301360000000  0.4482350000000  0.5131570000000 1.0
C      1  0.5244340000000  0.5561580000000  0.4751420000000 1.0
C      1  0.4939500000000  0.4499460000000  0.4683470000000 1.0
C      1  0.4762630000000  0.5492630000000  0.4914390000000 1.0
C      1  0.4716530000000  0.4457950000000  0.5232700000000 1.0
C      1  0.5771960000000  0.4828640000000  0.5059500000000 1.0
C      1  0.5450780000000  0.5197850000000  0.4289660000000 1.0
C      1  0.4638570000000  0.4813960000000  0.4296700000000 1.0
C      1  0.4248310000000  0.5203450000000  0.4957740000000 1.0
C      1  0.4518230000000  0.4784480000000  0.5672120000000 1.0
C      1  0.5389390000000  0.5183890000000  0.5776300000000 1.0
C      1  0.4297120000000  0.4611960000000  0.4629310000000 1.0
C      1  0.4369240000000  0.5366560000000  0.5430150000000 1.0
C      1  0.5046660000000  0.4621370000000  0.5748960000000 1.0
C      1  0.5686780000000  0.5429830000000  0.5351120000000 1.0
C      1  0.5595130000000  0.4639190000000  0.4637160000000 1.0
C      1  0.4930770000000  0.5401830000000  0.4228560000000 1.0
C      1  0.5030840000000  0.5033940000000  0.5413160000000 1.0
C      1  0.5354200000000  0.5000790000000  0.5312280000000 1.0
C      1  0.5324760000000  0.5043230000000  0.4775080000000 1.0
C      1  0.5074380000000  0.4995850000000  0.4548840000000 1.0
C      1  0.4564830000000  0.5008110000000  0.4811590000000 1.0
C      1  0.4558880000000  0.4937180000000  0.5144120000000 1.0
C      1  0.5525250000000  0.4909000000000  0.5660590000000 1.0
C      1  0.5759040000000  0.5103950000000  0.4890560000000 1.0
C      1  0.5292430000000  0.4909360000000  0.4227450000000 1.0
C      1  0.4502850000000  0.5097450000000  0.4394500000000 1.0
C      1  0.4162430000000  0.4913890000000  0.5114980000000 1.0
C      1  0.4727810000000  0.5050360000000  0.5712630000000 1.0
C      1  0.4866030000000  0.4751570000000  0.5316700000000 1.0
C      1  0.5307510000000  0.5322620000000  0.5411140000000 1.0
C      1  0.5255350000000  0.4790180000000  0.4991610000000 1.0
C      1  0.5166810000000  0.5323660000000  0.4540460000000 1.0
C      1  0.4787860000000  0.4766320000000  0.4780880000000 1.0
C      1  0.4777100000000  0.5200180000000  0.5085530000000 1.0
C      1  0.4920040000000  0.5319700000000  0.5490890000000 1.0
C      1  0.5410350000000  0.4676290000000  0.5357300000000 1.0
C      1  0.5437960000000  0.5328340000000  0.4830310000000 1.0
C      1  0.5102700000000  0.4664040000000  0.4480000000000 1.0
C      1  0.4585380000000  0.5316650000000  0.4716580000000 1.0
C      1  0.4470620000000  0.4632970000000  0.5168460000000 1.0
C      1  0.4896780000000  0.5756300000000  0.4777270000000 1.0
C      1  0.4720280000000  0.4217320000000  0.5013100000000 1.0
C      1  0.4887990000000  0.5794850000000  0.5275340000000 1.0
C      1  0.5138230000000  0.4222370000000  0.5234860000000 1.0
C      1  0.5246090000000  0.5796410000000  0.4967700000000 1.0
C      1  0.5115320000000  0.4283020000000  0.4840580000000 1.0
C      1  0.4683420000000  0.5722720000000  0.5110310000000 1.0
C      1  0.4900850000000  0.4246110000000  0.5367190000000 1.0
C      1  0.5283120000000  0.5775250000000  0.5237490000000 1.0
C      1  0.5383750000000  0.4226020000000  0.4923720000000 1.0
C      1  0.5108120000000  0.5802580000000  0.4586380000000 1.0
C      1  0.4730260000000  0.4270330000000  0.4744360000000 1.0
C      1  0.5783950000000  0.5376360000000  0.4712080000000 1.0
C      1  0.5150070000000  0.4617360000000  0.4142210000000 1.0
C      1  0.4344750000000  0.5381910000000  0.4444890000000 1.0
C      1  0.4142710000000  0.4618690000000  0.5275190000000 1.0
C      1  0.4832350000000  0.5347760000000  0.5826740000000 1.0
C      1  0.5681420000000  0.4629310000000  0.5566780000000 1.0
C      1  0.5441060000000  0.4411180000000  0.5575910000000 1.0
C      1  0.5648400000000  0.5594030000000  0.4880990000000 1.0
C      1  0.5315750000000  0.4426640000000  0.4352740000000 1.0
C      1  0.4564570000000  0.5587410000000  0.4507850000000 1.0
C      1  0.4244540000000  0.4398760000000  0.5059820000000 1.0
C      1  0.4748300000000  0.5585730000000  0.5629460000000 1.0
C      1  0.4941610000000  0.4904740000000  0.5037410000000 1.0
END
