TITL C-2782239-8622-229 0.00594803317386786 125000 -454.532476335573 0 0 81 (C2) n - 1
REM
REM in /home/nfs/bkarasulu/CARBON/AIRSS/Generating-Clusters/REBO/Higher-Symm/SD-CG/HFTN-CG
REM
REM
REM
REM
REM
REM ./C.cell (12c818d87b63d06a65506943cc24bca4)
REM
REM compiler GCC version 9.2.1 20190827 (Red Hat 9.2.1-1)
REM options -cpp -mtune=generic -march=x86-64 -g -O0 -fpre-include=/usr/include/finclude/math-vector-fortran.h
REM seed -2029298169 1512955858 1335478388 -1896412416 -189058540 -731651569 633933942 -1569859386 -1237796551 -190904522 1860082067 -453483945 -756739181 43768512 -1381407801 184178096 1982220296 -447355735 -973559624 1682066028 1476579369 2111378720 355825636 1039751955 315638542 908513362 -1933915842 1226604346 1842770196 541185866 -924951409 506540170 1986053989
REM
CELL 1.54180   50.00000   50.00000   50.00000   90.00000   90.00000   90.00000
LATT -1
SFAC C  
C      1  0.5345820000000  0.4514720000000  0.4581840000000 1.0
C      1  0.4508210000000  0.4652500000000  0.4581440000000 1.0
C      1  0.4651540000000  0.5484880000000  0.4581820000000 1.0
C      1  0.5489150000000  0.5347100000000  0.4581480000000 1.0
C      1  0.5094640000000  0.4679940000000  0.5211590000000 1.0
C      1  0.4685640000000  0.4897760000000  0.5215360000000 1.0
C      1  0.4902670000000  0.5319660000000  0.5211580000000 1.0
C      1  0.5311670000000  0.5101840000000  0.5215390000000 1.0
C      1  0.5471960000000  0.4932810000000  0.5677530000000 1.0
C      1  0.4920110000000  0.4487820000000  0.5670570000000 1.0
C      1  0.4525310000000  0.5066790000000  0.5677490000000 1.0
C      1  0.5077150000000  0.5511770000000  0.5670580000000 1.0
C      1  0.4906840000000  0.4331780000000  0.5153510000000 1.0
C      1  0.4340810000000  0.5093440000000  0.5164340000000 1.0
C      1  0.5090470000000  0.5667820000000  0.5153530000000 1.0
C      1  0.5656500000000  0.4906160000000  0.5164390000000 1.0
C      1  0.5632300000000  0.4635590000000  0.4979790000000 1.0
C      1  0.4633190000000  0.4368520000000  0.4979230000000 1.0
C      1  0.4365020000000  0.5364010000000  0.4979740000000 1.0
C      1  0.5364130000000  0.5631080000000  0.4979270000000 1.0
C      1  0.5320190000000  0.5117580000000  0.4891170000000 1.0
C      1  0.5116610000000  0.4678810000000  0.4888080000000 1.0
C      1  0.4677140000000  0.4882020000000  0.4891140000000 1.0
C      1  0.4880720000000  0.5320790000000  0.4888070000000 1.0
C      1  0.4799310000000  0.5004180000000  0.5773520000000 1.0
C      1  0.5005130000000  0.5249910000000  0.5774990000000 1.0
C      1  0.5197950000000  0.4995410000000  0.5773540000000 1.0
C      1  0.4992130000000  0.4749680000000  0.5774990000000 1.0
C      1  0.5632390000000  0.4307060000000  0.4886580000000 1.0
C      1  0.4304420000000  0.4367040000000  0.4886840000000 1.0
C      1  0.4364940000000  0.5692540000000  0.4886530000000 1.0
C      1  0.5692910000000  0.5632560000000  0.4886910000000 1.0
C      1  0.4694550000000  0.5231320000000  0.4212730000000 1.0
C      1  0.5231010000000  0.5302710000000  0.4212220000000 1.0
C      1  0.5302850000000  0.4768290000000  0.4212750000000 1.0
C      1  0.4766390000000  0.4696900000000  0.4212190000000 1.0
C      1  0.4939200000000  0.5208610000000  0.4606280000000 1.0
C      1  0.5211800000000  0.5060840000000  0.4608880000000 1.0
C      1  0.5058150000000  0.4791000000000  0.4606290000000 1.0
C      1  0.4785550000000  0.4938760000000  0.4608860000000 1.0
C      1  0.4610960000000  0.4950400000000  0.4341090000000 1.0
C      1  0.4949510000000  0.5385180000000  0.4340280000000 1.0
C      1  0.5386420000000  0.5049200000000  0.4341120000000 1.0
C      1  0.5047870000000  0.4614430000000  0.4340280000000 1.0
C      1  0.4255490000000  0.4637290000000  0.4762410000000 1.0
C      1  0.4633810000000  0.5737910000000  0.4759630000000 1.0
C      1  0.5741850000000  0.5362320000000  0.4762480000000 1.0
C      1  0.5363540000000  0.4261700000000  0.4759650000000 1.0
C      1  0.5493640000000  0.5347910000000  0.5073850000000 1.0
C      1  0.5348160000000  0.4508390000000  0.5072470000000 1.0
C      1  0.4503670000000  0.4651690000000  0.5073800000000 1.0
C      1  0.4649160000000  0.5491210000000  0.5072440000000 1.0
C      1  0.5606460000000  0.5023120000000  0.4601440000000 1.0
C      1  0.5022060000000  0.4396040000000  0.4601970000000 1.0
C      1  0.4390900000000  0.4976480000000  0.4601390000000 1.0
C      1  0.4975300000000  0.5603560000000  0.4601970000000 1.0
C      1  0.5354600000000  0.4822070000000  0.5315070000000 1.0
C      1  0.4818180000000  0.4628750000000  0.5313680000000 1.0
C      1  0.4642690000000  0.5177530000000  0.5315040000000 1.0
C      1  0.5179110000000  0.5370850000000  0.5313690000000 1.0
C      1  0.5569800000000  0.5347080000000  0.5394290000000 1.0
C      1  0.5343820000000  0.4429020000000  0.5394290000000 1.0
C      1  0.4427490000000  0.4652520000000  0.5394240000000 1.0
C      1  0.4653470000000  0.5570570000000  0.5394270000000 1.0
C      1  0.5533570000000  0.4716780000000  0.4675980000000 1.0
C      1  0.4713140000000  0.4467200000000  0.4674890000000 1.0
C      1  0.4463780000000  0.5282820000000  0.4675940000000 1.0
C      1  0.5284210000000  0.5532410000000  0.4674920000000 1.0
C      1  0.5090210000000  0.4251730000000  0.4903780000000 1.0
C      1  0.4252500000000  0.4913170000000  0.4907250000000 1.0
C      1  0.4907120000000  0.5747870000000  0.4903780000000 1.0
C      1  0.5744830000000  0.5086430000000  0.4907320000000 1.0
C      1  0.5472320000000  0.4636960000000  0.5574240000000 1.0
C      1  0.4627600000000  0.4502480000000  0.5565710000000 1.0
C      1  0.4524950000000  0.5362640000000  0.5574200000000 1.0
C      1  0.5369670000000  0.5497120000000  0.5565740000000 1.0
C      1  0.5626780000000  0.5074720000000  0.5459560000000 1.0
C      1  0.5073160000000  0.4354930000000  0.5450130000000 1.0
C      1  0.4370500000000  0.4924870000000  0.5459500000000 1.0
C      1  0.4924120000000  0.5644670000000  0.5450130000000 1.0
C      1  0.4998660000000  0.4999800000000  0.4940910000000 1.0
END
