TITL C-2782238-9940-851 0.00056167862133069 125000 -263.630329332442 0 0 50 (C1) n - 1
REM
REM in /home/nfs/bkarasulu/CARBON/AIRSS/Generating-Clusters/REBO/Higher-Symm/SD-CG/HFTN-CG
REM
REM
REM
REM
REM
REM ./C.cell (12c818d87b63d06a65506943cc24bca4)
REM
REM compiler GCC version 9.2.1 20190827 (Red Hat 9.2.1-1)
REM options -cpp -mtune=generic -march=x86-64 -g -O0 -fpre-include=/usr/include/finclude/math-vector-fortran.h
REM seed -311057090 280384196 1944191120 -903435766 1461423179 1078252537 -1111626099 -1259735851 917564216 1979896197 -1037812914 -1750380531 1306122701 -566246180 -151479850 1179935723 1527435458 -1392035784 -392123245 314862471 -771146207 1641047066 -1516043153 961023587 1148855629 -1628813341 -246341153 -321393216 -566042913 1803696750 -1763634164 -2044144455 918516599
REM
CELL 1.54180   50.00000   50.00000   50.00000   90.00000   90.00000   90.00000
LATT -1
SFAC C  
C      1  0.5284600000000  0.4744360000000  0.5257490000000 1.0
C      1  0.4727780000000  0.4778640000000  0.4756830000000 1.0
C      1  0.5244570000000  0.5177980000000  0.5259000000000 1.0
C      1  0.4773330000000  0.5213490000000  0.4770180000000 1.0
C      1  0.5227820000000  0.4717560000000  0.4768910000000 1.0
C      1  0.4778670000000  0.4747600000000  0.5254400000000 1.0
C      1  0.5261630000000  0.5161070000000  0.4756790000000 1.0
C      1  0.4747450000000  0.5194030000000  0.5260530000000 1.0
C      1  0.4853690000000  0.5158450000000  0.4495840000000 1.0
C      1  0.5148320000000  0.5103730000000  0.5521920000000 1.0
C      1  0.4841010000000  0.4844840000000  0.4500260000000 1.0
C      1  0.5186050000000  0.4791970000000  0.5523580000000 1.0
C      1  0.4837860000000  0.5127150000000  0.5524010000000 1.0
C      1  0.5155060000000  0.5090260000000  0.4499940000000 1.0
C      1  0.4874940000000  0.4814950000000  0.5517430000000 1.0
C      1  0.5144200000000  0.4778250000000  0.4500110000000 1.0
C      1  0.5794510000000  0.4852520000000  0.4612670000000 1.0
C      1  0.4219850000000  0.4891980000000  0.5336500000000 1.0
C      1  0.5840940000000  0.5122050000000  0.4600000000000 1.0
C      1  0.4165520000000  0.5159750000000  0.5348910000000 1.0
C      1  0.5853740000000  0.4956200000000  0.5358230000000 1.0
C      1  0.4126700000000  0.4905900000000  0.4587350000000 1.0
C      1  0.5860510000000  0.5229210000000  0.5381420000000 1.0
C      1  0.4073060000000  0.5174460000000  0.4569100000000 1.0
C      1  0.4515790000000  0.4554590000000  0.4828230000000 1.0
C      1  0.5506830000000  0.4545840000000  0.5156370000000 1.0
C      1  0.4537020000000  0.5411280000000  0.4826280000000 1.0
C      1  0.5383310000000  0.5449880000000  0.5195400000000 1.0
C      1  0.4587530000000  0.4522720000000  0.5151730000000 1.0
C      1  0.5430370000000  0.4485300000000  0.4837310000000 1.0
C      1  0.4598210000000  0.5441960000000  0.5154070000000 1.0
C      1  0.5425530000000  0.5399380000000  0.4866920000000 1.0
C      1  0.5142110000000  0.5584610000000  0.4909860000000 1.0
C      1  0.4854900000000  0.5662310000000  0.5174140000000 1.0
C      1  0.5119960000000  0.4342280000000  0.4837240000000 1.0
C      1  0.4898980000000  0.4381920000000  0.5162450000000 1.0
C      1  0.5156850000000  0.5678550000000  0.5224870000000 1.0
C      1  0.4824290000000  0.5590720000000  0.4861960000000 1.0
C      1  0.5214480000000  0.4370250000000  0.5150770000000 1.0
C      1  0.4807760000000  0.4387780000000  0.4848430000000 1.0
C      1  0.5627230000000  0.5220060000000  0.5161350000000 1.0
C      1  0.4292550000000  0.5203590000000  0.4795750000000 1.0
C      1  0.5653600000000  0.4854890000000  0.5153900000000 1.0
C      1  0.4334840000000  0.4840020000000  0.4799410000000 1.0
C      1  0.5644840000000  0.5136150000000  0.4851340000000 1.0
C      1  0.4381900000000  0.5179230000000  0.5110560000000 1.0
C      1  0.5615120000000  0.4771120000000  0.4845540000000 1.0
C      1  0.4412570000000  0.4814100000000  0.5113090000000 1.0
C      1  0.5175960000000  0.4953500000000  0.5010400000000 1.0
C      1  0.4835660000000  0.4978760000000  0.5011230000000 1.0
END
