TITL C-2782233-7966-15 -0.0829687033547919 125000 -423.60947424051 0 0 75 (C1) n - 1
REM
REM in /home/nfs/bkarasulu/CARBON/AIRSS/Generating-Clusters/REBO/Higher-Symm/SD-CG/HFTN-CG
REM
REM
REM
REM
REM
REM ./C.cell (12c818d87b63d06a65506943cc24bca4)
REM
REM compiler GCC version 9.2.1 20190827 (Red Hat 9.2.1-1)
REM options -cpp -mtune=generic -march=x86-64 -g -O0 -fpre-include=/usr/include/finclude/math-vector-fortran.h
REM seed -2106113987 -1641083055 -1224382836 1869237061 -2062887928 1926473098 -459255213 870475919 194795316 -1354627701 808699436 -1285082914 -892250361 -1560261297 -1202054898 323776072 -636095108 357968612 -1536467021 -935030512 872674828 2529681 -122826383 1459126092 -632093996 -1097355281 -1916061460 -954199601 872769118 1685782830 1310256271 -484197176 -74775675
REM
CELL 1.54180   50.00000   50.00000   50.00000   90.00000   90.00000   90.00000
LATT -1
SFAC C  
C      1  0.5037070000000  0.5240590000000  0.5573510000000 1.0
C      1  0.5474110000000  0.5254880000000  0.5388010000000 1.0
C      1  0.5629080000000  0.5221220000000  0.4928760000000 1.0
C      1  0.5262360000000  0.5364300000000  0.4550180000000 1.0
C      1  0.4849950000000  0.5124610000000  0.4376610000000 1.0
C      1  0.4404670000000  0.5306550000000  0.4769020000000 1.0
C      1  0.4569610000000  0.5241330000000  0.5353810000000 1.0
C      1  0.4450090000000  0.4707390000000  0.4475840000000 1.0
C      1  0.4326420000000  0.4770100000000  0.5115910000000 1.0
C      1  0.4669270000000  0.4740270000000  0.5624230000000 1.0
C      1  0.5267630000000  0.4693620000000  0.5747130000000 1.0
C      1  0.5673980000000  0.4735040000000  0.5249120000000 1.0
C      1  0.5548390000000  0.4781210000000  0.4610030000000 1.0
C      1  0.5007190000000  0.4635290000000  0.4250130000000 1.0
C      1  0.5090970000000  0.4951760000000  0.4244410000000 1.0
C      1  0.4385780000000  0.4964600000000  0.4326070000000 1.0
C      1  0.4187260000000  0.5050220000000  0.5140380000000 1.0
C      1  0.4620720000000  0.5005410000000  0.5776460000000 1.0
C      1  0.5293830000000  0.4951130000000  0.5910670000000 1.0
C      1  0.5869480000000  0.4964030000000  0.5323610000000 1.0
C      1  0.5715500000000  0.5019450000000  0.4494740000000 1.0
C      1  0.4551010000000  0.5182200000000  0.4323310000000 1.0
C      1  0.4221380000000  0.5297440000000  0.5034430000000 1.0
C      1  0.4645050000000  0.5237060000000  0.5645300000000 1.0
C      1  0.5218120000000  0.5199140000000  0.5845260000000 1.0
C      1  0.5776840000000  0.5216010000000  0.5361400000000 1.0
C      1  0.5719030000000  0.5262390000000  0.4642900000000 1.0
C      1  0.5203460000000  0.5254840000000  0.4248310000000 1.0
C      1  0.5049380000000  0.5008070000000  0.5379490000000 1.0
C      1  0.5319510000000  0.5062420000000  0.5242930000000 1.0
C      1  0.5365330000000  0.5096100000000  0.4964510000000 1.0
C      1  0.5169070000000  0.5131350000000  0.4751180000000 1.0
C      1  0.4882620000000  0.5085150000000  0.4689320000000 1.0
C      1  0.4638750000000  0.5115810000000  0.4841700000000 1.0
C      1  0.4641690000000  0.5074440000000  0.5138570000000 1.0
C      1  0.4924410000000  0.4343990000000  0.4385210000000 1.0
C      1  0.4498190000000  0.4441270000000  0.4677280000000 1.0
C      1  0.4462130000000  0.4464560000000  0.5185920000000 1.0
C      1  0.4958060000000  0.4737440000000  0.5459230000000 1.0
C      1  0.5260390000000  0.4471620000000  0.5489260000000 1.0
C      1  0.5572440000000  0.4471520000000  0.5062850000000 1.0
C      1  0.5376460000000  0.4489770000000  0.4591980000000 1.0
C      1  0.4939340000000  0.5445600000000  0.4340190000000 1.0
C      1  0.4478100000000  0.5409020000000  0.4479610000000 1.0
C      1  0.4386300000000  0.5564950000000  0.5071430000000 1.0
C      1  0.4823920000000  0.5500900000000  0.5514490000000 1.0
C      1  0.5282350000000  0.5478440000000  0.5777790000000 1.0
C      1  0.5709390000000  0.5461810000000  0.5146780000000 1.0
C      1  0.5509940000000  0.5490950000000  0.4661130000000 1.0
C      1  0.5504490000000  0.4687260000000  0.5502480000000 1.0
C      1  0.5617190000000  0.4757160000000  0.4913120000000 1.0
C      1  0.5287500000000  0.4732090000000  0.4397340000000 1.0
C      1  0.4687870000000  0.4572230000000  0.4328840000000 1.0
C      1  0.4366920000000  0.4714610000000  0.4806440000000 1.0
C      1  0.4450510000000  0.4686710000000  0.5422780000000 1.0
C      1  0.4946340000000  0.4598130000000  0.5763080000000 1.0
C      1  0.5397720000000  0.5560360000000  0.5260770000000 1.0
C      1  0.5487280000000  0.5595030000000  0.4932210000000 1.0
C      1  0.4973980000000  0.5474120000000  0.4680320000000 1.0
C      1  0.4697510000000  0.5618640000000  0.4576560000000 1.0
C      1  0.4481990000000  0.5651560000000  0.4796150000000 1.0
C      1  0.4580220000000  0.5534970000000  0.5277310000000 1.0
C      1  0.5160290000000  0.5550520000000  0.5479230000000 1.0
C      1  0.4994690000000  0.4465010000000  0.5292310000000 1.0
C      1  0.5283380000000  0.4362990000000  0.5176620000000 1.0
C      1  0.5369290000000  0.4297720000000  0.4863660000000 1.0
C      1  0.5112370000000  0.4290710000000  0.4651220000000 1.0
C      1  0.4777450000000  0.4263900000000  0.4669930000000 1.0
C      1  0.4589010000000  0.4273590000000  0.4939120000000 1.0
C      1  0.4758760000000  0.4325270000000  0.5210060000000 1.0
C      1  0.5035330000000  0.4807360000000  0.4941740000000 1.0
C      1  0.4961080000000  0.5387740000000  0.4973710000000 1.0
C      1  0.4954110000000  0.5074530000000  0.5082470000000 1.0
C      1  0.4955710000000  0.5586040000000  0.5150400000000 1.0
C      1  0.5107350000000  0.4571630000000  0.4909580000000 1.0
END
