TITL C-2782226-7400-171 -0.000731082878597914 125000 -920.051651139582 0 0 148 (C1) n - 1
REM
REM in /home/nfs/bkarasulu/CARBON/AIRSS/Generating-Clusters/REBO/Higher-Symm/SD-CG/HFTN-CG
REM
REM
REM
REM
REM
REM ./C.cell (12c818d87b63d06a65506943cc24bca4)
REM
REM compiler GCC version 9.2.1 20190827 (Red Hat 9.2.1-1)
REM options -cpp -mtune=generic -march=x86-64 -g -O0 -fpre-include=/usr/include/finclude/math-vector-fortran.h
REM seed -891307995 -24752731 1081557044 733717254 -813499622 525718030 1229242253 -760675373 -1271920604 1346795548 874070188 -1929817823 148730791 -714467678 -1501336585 847169954 1039795451 676841889 -599145594 563062027 -1562680463 1492727353 1555780315 -1675700319 863859009 1685820999 -1226755630 1449927277 -760720844 -1060669041 -2090679762 957481614 689865686
REM
CELL 1.54180   50.00000   50.00000   50.00000   90.00000   90.00000   90.00000
LATT -1
SFAC C  
C      1  0.5166370000000  0.5413870000000  0.5353930000000 1.0
C      1  0.5557940000000  0.5373150000000  0.5081340000000 1.0
C      1  0.5331070000000  0.5155540000000  0.5481300000000 1.0
C      1  0.4905500000000  0.5550270000000  0.4650590000000 1.0
C      1  0.4919270000000  0.4443230000000  0.5342760000000 1.0
C      1  0.5180650000000  0.4569170000000  0.4623300000000 1.0
C      1  0.4424410000000  0.5357910000000  0.4883700000000 1.0
C      1  0.4556870000000  0.4719020000000  0.5167020000000 1.0
C      1  0.5588680000000  0.4617960000000  0.4906210000000 1.0
C      1  0.4646230000000  0.5093500000000  0.4421610000000 1.0
C      1  0.4660370000000  0.4824420000000  0.5455180000000 1.0
C      1  0.5345140000000  0.4828960000000  0.4501480000000 1.0
C      1  0.4587140000000  0.5931470000000  0.5244200000000 1.0
C      1  0.5933010000000  0.5277200000000  0.4617800000000 1.0
C      1  0.5258230000000  0.4574360000000  0.5919000000000 1.0
C      1  0.5397950000000  0.5934850000000  0.4756880000000 1.0
C      1  0.5391120000000  0.4062960000000  0.5239380000000 1.0
C      1  0.4547670000000  0.4081110000000  0.4822110000000 1.0
C      1  0.4110950000000  0.5239600000000  0.5402910000000 1.0
C      1  0.4057610000000  0.4755510000000  0.4621000000000 1.0
C      1  0.5912870000000  0.4730880000000  0.5404860000000 1.0
C      1  0.4753490000000  0.4583200000000  0.4148080000000 1.0
C      1  0.4752620000000  0.5440010000000  0.5903530000000 1.0
C      1  0.5266780000000  0.5413820000000  0.4082100000000 1.0
C      1  0.6020260000000  0.4808710000000  0.5153360000000 1.0
C      1  0.4828490000000  0.5190730000000  0.6001330000000 1.0
C      1  0.5154180000000  0.6059060000000  0.4827620000000 1.0
C      1  0.3921790000000  0.4808660000000  0.4867850000000 1.0
C      1  0.3964060000000  0.5190220000000  0.5166890000000 1.0
C      1  0.6030250000000  0.5207760000000  0.4878960000000 1.0
C      1  0.5204840000000  0.5164640000000  0.3960220000000 1.0
C      1  0.5179840000000  0.4836430000000  0.5991050000000 1.0
C      1  0.4805110000000  0.4804200000000  0.3978860000000 1.0
C      1  0.4847790000000  0.6024710000000  0.5188880000000 1.0
C      1  0.4826510000000  0.3983420000000  0.4775890000000 1.0
C      1  0.5144860000000  0.3961750000000  0.5141070000000 1.0
C      1  0.5028690000000  0.5140120000000  0.5607670000000 1.0
C      1  0.5155380000000  0.5552050000000  0.5074240000000 1.0
C      1  0.5608250000000  0.5060800000000  0.5121010000000 1.0
C      1  0.4954220000000  0.5128830000000  0.4373660000000 1.0
C      1  0.4933960000000  0.4845320000000  0.5578420000000 1.0
C      1  0.5059910000000  0.4832150000000  0.4351190000000 1.0
C      1  0.4872230000000  0.5608530000000  0.4956840000000 1.0
C      1  0.4887210000000  0.4401940000000  0.5030370000000 1.0
C      1  0.5172150000000  0.4446000000000  0.4913840000000 1.0
C      1  0.4378170000000  0.5052420000000  0.4831660000000 1.0
C      1  0.4334610000000  0.4942890000000  0.5113160000000 1.0
C      1  0.5608310000000  0.4928500000000  0.4840020000000 1.0
C      1  0.4729450000000  0.5551850000000  0.4190790000000 1.0
C      1  0.5591000000000  0.4131920000000  0.4769370000000 1.0
C      1  0.4220160000000  0.4771990000000  0.5591470000000 1.0
C      1  0.5228380000000  0.5604960000000  0.5797030000000 1.0
C      1  0.5230660000000  0.4447920000000  0.4246200000000 1.0
C      1  0.4725140000000  0.4438180000000  0.5809230000000 1.0
C      1  0.4418890000000  0.4230670000000  0.5284070000000 1.0
C      1  0.4435660000000  0.5803680000000  0.4716220000000 1.0
C      1  0.5557920000000  0.5849460000000  0.5244080000000 1.0
C      1  0.5834030000000  0.4835960000000  0.4407270000000 1.0
C      1  0.5802440000000  0.5171800000000  0.5612050000000 1.0
C      1  0.4181340000000  0.5275980000000  0.4425480000000 1.0
C      1  0.5372420000000  0.5767640000000  0.4521940000000 1.0
C      1  0.5754580000000  0.4491800000000  0.5387310000000 1.0
C      1  0.4482550000000  0.5440780000000  0.5803320000000 1.0
C      1  0.4576010000000  0.5828590000000  0.5514310000000 1.0
C      1  0.4594230000000  0.4233440000000  0.4567410000000 1.0
C      1  0.5368710000000  0.4216750000000  0.5483270000000 1.0
C      1  0.4178000000000  0.4489640000000  0.4627280000000 1.0
C      1  0.4262750000000  0.5482040000000  0.5375420000000 1.0
C      1  0.5764720000000  0.5509630000000  0.4626690000000 1.0
C      1  0.5538280000000  0.5437110000000  0.4195120000000 1.0
C      1  0.5530010000000  0.4547260000000  0.5818210000000 1.0
C      1  0.4507560000000  0.4613770000000  0.4290520000000 1.0
C      1  0.5107350000000  0.5284030000000  0.4595550000000 1.0
C      1  0.5334170000000  0.4623540000000  0.5118040000000 1.0
C      1  0.4591720000000  0.5103330000000  0.5271120000000 1.0
C      1  0.4849400000000  0.5298280000000  0.5380830000000 1.0
C      1  0.4871890000000  0.4701080000000  0.4603180000000 1.0
C      1  0.5139240000000  0.4695190000000  0.5387950000000 1.0
C      1  0.4713080000000  0.4644130000000  0.4900290000000 1.0
C      1  0.4682340000000  0.5387830000000  0.5098160000000 1.0
C      1  0.5304090000000  0.5365040000000  0.4863510000000 1.0
C      1  0.5370930000000  0.5083520000000  0.4684110000000 1.0
C      1  0.5388310000000  0.4910620000000  0.5295270000000 1.0
C      1  0.4606030000000  0.4895840000000  0.4692720000000 1.0
C      1  0.5050030000000  0.5570240000000  0.4191140000000 1.0
C      1  0.5592730000000  0.4150910000000  0.5056020000000 1.0
C      1  0.4186600000000  0.5064680000000  0.5619780000000 1.0
C      1  0.4940790000000  0.5645740000000  0.5821490000000 1.0
C      1  0.4950660000000  0.4412960000000  0.4268340000000 1.0
C      1  0.5044720000000  0.4406700000000  0.5813970000000 1.0
C      1  0.4342780000000  0.4172070000000  0.4993300000000 1.0
C      1  0.4425940000000  0.5815510000000  0.5035680000000 1.0
C      1  0.5585840000000  0.5845200000000  0.4955840000000 1.0
C      1  0.5894790000000  0.5116020000000  0.4380480000000 1.0
C      1  0.5864890000000  0.4891080000000  0.5640370000000 1.0
C      1  0.4172860000000  0.4955310000000  0.4445660000000 1.0
C      1  0.4323120000000  0.5561190000000  0.5111920000000 1.0
C      1  0.5751350000000  0.5247260000000  0.4165640000000 1.0
C      1  0.5109750000000  0.4300330000000  0.5558230000000 1.0
C      1  0.5693650000000  0.5589320000000  0.4887560000000 1.0
C      1  0.5693910000000  0.4409180000000  0.5125670000000 1.0
C      1  0.4143300000000  0.4326100000000  0.4861090000000 1.0
C      1  0.4326240000000  0.5202070000000  0.5827720000000 1.0
C      1  0.4423670000000  0.4876680000000  0.4337990000000 1.0
C      1  0.5728230000000  0.4751180000000  0.5851730000000 1.0
C      1  0.4865310000000  0.4261080000000  0.4491170000000 1.0
C      1  0.4810320000000  0.5857240000000  0.5677820000000 1.0
C      1  0.5115210000000  0.5678860000000  0.4446840000000 1.0
C      1  0.5342000000000  0.5647410000000  0.5513070000000 1.0
C      1  0.5628150000000  0.5554260000000  0.5353650000000 1.0
C      1  0.5537230000000  0.5232580000000  0.5696410000000 1.0
C      1  0.4646820000000  0.5664580000000  0.4478000000000 1.0
C      1  0.4653530000000  0.4340670000000  0.5517360000000 1.0
C      1  0.5391420000000  0.4341900000000  0.4495430000000 1.0
C      1  0.4305540000000  0.5525640000000  0.4626000000000 1.0
C      1  0.4355660000000  0.4528360000000  0.5340200000000 1.0
C      1  0.5669540000000  0.4427950000000  0.4651880000000 1.0
C      1  0.4471950000000  0.5350420000000  0.4307540000000 1.0
C      1  0.4499750000000  0.4671930000000  0.5679600000000 1.0
C      1  0.5583160000000  0.4777010000000  0.4295540000000 1.0
C      1  0.5204650000000  0.5124320000000  0.5885430000000 1.0
C      1  0.5082910000000  0.5870730000000  0.5172290000000 1.0
C      1  0.5909040000000  0.5191910000000  0.5135210000000 1.0
C      1  0.4826010000000  0.5072210000000  0.4065550000000 1.0
C      1  0.4876600000000  0.4902550000000  0.5911770000000 1.0
C      1  0.5185600000000  0.4899760000000  0.4042300000000 1.0
C      1  0.4913550000000  0.5914630000000  0.4812640000000 1.0
C      1  0.4897110000000  0.4094300000000  0.5150960000000 1.0
C      1  0.5080950000000  0.4182690000000  0.4717310000000 1.0
C      1  0.4069030000000  0.5177640000000  0.4906560000000 1.0
C      1  0.4056550000000  0.4806280000000  0.5116760000000 1.0
C      1  0.5931090000000  0.4820730000000  0.4888460000000 1.0
C      1  0.5859330000000  0.5336040000000  0.5384220000000 1.0
C      1  0.5367310000000  0.5375000000000  0.5909120000000 1.0
C      1  0.5294160000000  0.5926520000000  0.5356960000000 1.0
C      1  0.4020130000000  0.5368060000000  0.4697860000000 1.0
C      1  0.4065080000000  0.4642130000000  0.5349130000000 1.0
C      1  0.5877470000000  0.4673920000000  0.4635470000000 1.0
C      1  0.4639800000000  0.5284190000000  0.4023870000000 1.0
C      1  0.4648870000000  0.4710900000000  0.5968920000000 1.0
C      1  0.5355420000000  0.4674050000000  0.4132950000000 1.0
C      1  0.4708630000000  0.5954550000000  0.4622820000000 1.0
C      1  0.4695020000000  0.4061860000000  0.5344750000000 1.0
C      1  0.5343090000000  0.4037530000000  0.4618840000000 1.0
C      1  0.5582760000000  0.5602480000000  0.4426250000000 1.0
C      1  0.5576910000000  0.4385600000000  0.5584800000000 1.0
C      1  0.4412730000000  0.5606030000000  0.5581210000000 1.0
C      1  0.4406160000000  0.4421600000000  0.4469310000000 1.0
END
