TITL C-2782236-320-152 -0.00210898431078469 125000 -958.45557212748 0 0 168 (C1) n - 1
REM
REM in /home/nfs/bkarasulu/CARBON/AIRSS/Generating-Clusters/REBO/Higher-Symm/SD-CG/HFTN-CG
REM
REM
REM
REM
REM
REM ./C.cell (12c818d87b63d06a65506943cc24bca4)
REM
REM compiler GCC version 9.2.1 20190827 (Red Hat 9.2.1-1)
REM options -cpp -mtune=generic -march=x86-64 -g -O0 -fpre-include=/usr/include/finclude/math-vector-fortran.h
REM seed 1231119102 1812855458 1822397406 -1391381428 1646976951 -1138696494 -1799690774 1704505476 212753639 -512307603 -969836351 -1194775588 -1074719594 -1154887650 -1149823513 837769448 1152180802 -1253736759 -716073298 -8154345 1364092482 -1072272112 -798571370 706212177 511765969 -1564945539 -633958691 -250009621 1624802500 283766086 402375346 -2001319651 234274597
REM
CELL 1.54180   50.00000   50.00000   50.00000   90.00000   90.00000   90.00000
LATT -1
SFAC C  
C      1  0.5556880000000  0.4907180000000  0.5118120000000 1.0
C      1  0.5144850000000  0.4459040000000  0.5165600000000 1.0
C      1  0.4496480000000  0.4799350000000  0.5092480000000 1.0
C      1  0.4596610000000  0.5380550000000  0.5130390000000 1.0
C      1  0.5234360000000  0.5541300000000  0.5226480000000 1.0
C      1  0.4453010000000  0.5485450000000  0.5655700000000 1.0
C      1  0.5288840000000  0.5708750000000  0.5754930000000 1.0
C      1  0.5748840000000  0.4847240000000  0.5700620000000 1.0
C      1  0.5158830000000  0.4302670000000  0.5752290000000 1.0
C      1  0.4401130000000  0.4651490000000  0.5628990000000 1.0
C      1  0.4097710000000  0.5144830000000  0.4384170000000 1.0
C      1  0.4914430000000  0.5901530000000  0.4482160000000 1.0
C      1  0.5697000000000  0.5526610000000  0.4478290000000 1.0
C      1  0.5734040000000  0.4431270000000  0.4442910000000 1.0
C      1  0.4428500000000  0.4166590000000  0.4508660000000 1.0
C      1  0.5299750000000  0.5433660000000  0.5918060000000 1.0
C      1  0.5472680000000  0.4761250000000  0.5879640000000 1.0
C      1  0.4973250000000  0.4475080000000  0.5948020000000 1.0
C      1  0.4496730000000  0.4837970000000  0.5882990000000 1.0
C      1  0.4677350000000  0.5377040000000  0.5837790000000 1.0
C      1  0.5289590000000  0.4755580000000  0.3929250000000 1.0
C      1  0.5005260000000  0.4708760000000  0.3874840000000 1.0
C      1  0.4532360000000  0.4902700000000  0.3859460000000 1.0
C      1  0.4696490000000  0.5255220000000  0.3949650000000 1.0
C      1  0.5076660000000  0.5155710000000  0.4012000000000 1.0
C      1  0.4926650000000  0.4615720000000  0.4733480000000 1.0
C      1  0.4712320000000  0.4954040000000  0.4719750000000 1.0
C      1  0.4832420000000  0.5266950000000  0.4783980000000 1.0
C      1  0.5368930000000  0.5283340000000  0.4758210000000 1.0
C      1  0.5349750000000  0.4884670000000  0.4754080000000 1.0
C      1  0.4211170000000  0.4679390000000  0.4975540000000 1.0
C      1  0.4483220000000  0.5634830000000  0.4986150000000 1.0
C      1  0.5462930000000  0.5763730000000  0.5147430000000 1.0
C      1  0.5861310000000  0.4844330000000  0.4997300000000 1.0
C      1  0.5045090000000  0.4194820000000  0.5030300000000 1.0
C      1  0.4241650000000  0.4814190000000  0.3706610000000 1.0
C      1  0.4556530000000  0.5443250000000  0.3702090000000 1.0
C      1  0.5301420000000  0.5256290000000  0.3775730000000 1.0
C      1  0.5404770000000  0.4609080000000  0.4215200000000 1.0
C      1  0.4890230000000  0.4501370000000  0.4033770000000 1.0
C      1  0.5829960000000  0.4604850000000  0.4790000000000 1.0
C      1  0.4769530000000  0.4130820000000  0.4873990000000 1.0
C      1  0.4070740000000  0.4920950000000  0.4813530000000 1.0
C      1  0.4691570000000  0.5804670000000  0.4799700000000 1.0
C      1  0.5726470000000  0.5681470000000  0.4953190000000 1.0
C      1  0.5000790000000  0.5783510000000  0.5701170000000 1.0
C      1  0.5591170000000  0.5347750000000  0.5900630000000 1.0
C      1  0.5427720000000  0.4439900000000  0.5767280000000 1.0
C      1  0.4706530000000  0.4358950000000  0.5846600000000 1.0
C      1  0.4228830000000  0.5037830000000  0.5856780000000 1.0
C      1  0.5199570000000  0.3966990000000  0.5022310000000 1.0
C      1  0.4051760000000  0.4455940000000  0.4979530000000 1.0
C      1  0.4228200000000  0.5730990000000  0.4946380000000 1.0
C      1  0.5381710000000  0.6054270000000  0.5076620000000 1.0
C      1  0.6110730000000  0.4954330000000  0.4997740000000 1.0
C      1  0.4850510000000  0.4029110000000  0.5392930000000 1.0
C      1  0.4002180000000  0.4884240000000  0.5337720000000 1.0
C      1  0.4600080000000  0.5917370000000  0.5303170000000 1.0
C      1  0.5740920000000  0.5754680000000  0.5464670000000 1.0
C      1  0.5842940000000  0.4489910000000  0.5316360000000 1.0
C      1  0.3934780000000  0.4402150000000  0.4732390000000 1.0
C      1  0.4156600000000  0.5753690000000  0.4680620000000 1.0
C      1  0.5400610000000  0.6127740000000  0.4812630000000 1.0
C      1  0.6204660000000  0.5027890000000  0.4748740000000 1.0
C      1  0.5269750000000  0.3892770000000  0.4766870000000 1.0
C      1  0.5062090000000  0.4759020000000  0.5206320000000 1.0
C      1  0.4770710000000  0.4869200000000  0.5234450000000 1.0
C      1  0.4798730000000  0.5185890000000  0.5257250000000 1.0
C      1  0.5111060000000  0.5271910000000  0.5298530000000 1.0
C      1  0.5234980000000  0.5012330000000  0.5154200000000 1.0
C      1  0.5176040000000  0.4010520000000  0.5850130000000 1.0
C      1  0.4376430000000  0.4389710000000  0.5623080000000 1.0
C      1  0.4181040000000  0.5469950000000  0.5690290000000 1.0
C      1  0.5420940000000  0.5912690000000  0.5905110000000 1.0
C      1  0.5976990000000  0.4947020000000  0.5782720000000 1.0
C      1  0.5425670000000  0.5676010000000  0.5474960000000 1.0
C      1  0.5668700000000  0.4737290000000  0.5391030000000 1.0
C      1  0.5019830000000  0.4297850000000  0.5439840000000 1.0
C      1  0.4309310000000  0.4846180000000  0.5375170000000 1.0
C      1  0.4604380000000  0.5612860000000  0.5379390000000 1.0
C      1  0.5850400000000  0.5819220000000  0.5220890000000 1.0
C      1  0.5946090000000  0.4461250000000  0.5063710000000 1.0
C      1  0.4748470000000  0.3957640000000  0.5148540000000 1.0
C      1  0.3895640000000  0.4896620000000  0.5085590000000 1.0
C      1  0.4604840000000  0.6008790000000  0.5042510000000 1.0
C      1  0.4562440000000  0.4742460000000  0.4545260000000 1.0
C      1  0.4606020000000  0.5357450000000  0.4576640000000 1.0
C      1  0.5308420000000  0.5462600000000  0.4544580000000 1.0
C      1  0.5620630000000  0.5000870000000  0.4606970000000 1.0
C      1  0.5114810000000  0.4378230000000  0.4576940000000 1.0
C      1  0.4755360000000  0.4913760000000  0.6001010000000 1.0
C      1  0.4832590000000  0.5192580000000  0.5981890000000 1.0
C      1  0.5130700000000  0.5210670000000  0.5993940000000 1.0
C      1  0.5230450000000  0.4918220000000  0.5995610000000 1.0
C      1  0.4990740000000  0.4748810000000  0.6013160000000 1.0
C      1  0.4768700000000  0.5155660000000  0.4263840000000 1.0
C      1  0.5068250000000  0.5052540000000  0.4341080000000 1.0
C      1  0.5342450000000  0.4941420000000  0.4212670000000 1.0
C      1  0.4734990000000  0.4609860000000  0.4290470000000 1.0
C      1  0.4598960000000  0.4902900000000  0.4184260000000 1.0
C      1  0.5480640000000  0.5131910000000  0.5729700000000 1.0
C      1  0.5416920000000  0.4678950000000  0.5561800000000 1.0
C      1  0.4803350000000  0.4483850000000  0.5588330000000 1.0
C      1  0.4425200000000  0.5046260000000  0.5596780000000 1.0
C      1  0.4840420000000  0.5555320000000  0.5611450000000 1.0
C      1  0.4969180000000  0.4220620000000  0.4078510000000 1.0
C      1  0.4253390000000  0.4792750000000  0.4024640000000 1.0
C      1  0.4609580000000  0.5581280000000  0.3983470000000 1.0
C      1  0.5353390000000  0.5349820000000  0.4067930000000 1.0
C      1  0.5623720000000  0.4761330000000  0.3997950000000 1.0
C      1  0.5546860000000  0.4488420000000  0.4786930000000 1.0
C      1  0.4538020000000  0.4344810000000  0.4846770000000 1.0
C      1  0.4232780000000  0.5177400000000  0.4835700000000 1.0
C      1  0.4990300000000  0.5742870000000  0.4840130000000 1.0
C      1  0.5825910000000  0.5390600000000  0.4937400000000 1.0
C      1  0.6145250000000  0.5828910000000  0.5720970000000 1.0
C      1  0.6056650000000  0.4087450000000  0.5480420000000 1.0
C      1  0.4683140000000  0.3638870000000  0.5633520000000 1.0
C      1  0.3565810000000  0.4932690000000  0.5543850000000 1.0
C      1  0.4564350000000  0.6355490000000  0.5515960000000 1.0
C      1  0.5375300000000  0.4640160000000  0.4990320000000 1.0
C      1  0.4686470000000  0.4596130000000  0.4894710000000 1.0
C      1  0.4507550000000  0.5107250000000  0.4948460000000 1.0
C      1  0.5010010000000  0.5487360000000  0.4979260000000 1.0
C      1  0.5578670000000  0.5201520000000  0.4947290000000 1.0
C      1  0.4724640000000  0.5073080000000  0.5572060000000 1.0
C      1  0.4980180000000  0.5273430000000  0.5599600000000 1.0
C      1  0.5235380000000  0.5090860000000  0.5627950000000 1.0
C      1  0.5172720000000  0.4827680000000  0.5503490000000 1.0
C      1  0.4851800000000  0.4769480000000  0.5544090000000 1.0
C      1  0.4879990000000  0.4317500000000  0.4387960000000 1.0
C      1  0.4305580000000  0.4809390000000  0.4336000000000 1.0
C      1  0.4677910000000  0.5483750000000  0.4276850000000 1.0
C      1  0.5470920000000  0.5444070000000  0.4291380000000 1.0
C      1  0.5667680000000  0.4896630000000  0.4301930000000 1.0
C      1  0.5013450000000  0.6068290000000  0.4732150000000 1.0
C      1  0.6074140000000  0.5338630000000  0.5099900000000 1.0
C      1  0.5610660000000  0.4191920000000  0.4627940000000 1.0
C      1  0.4259300000000  0.4174900000000  0.4785700000000 1.0
C      1  0.4079270000000  0.5368170000000  0.5019560000000 1.0
C      1  0.5801490000000  0.5288060000000  0.4629360000000 1.0
C      1  0.5396140000000  0.4489320000000  0.4481210000000 1.0
C      1  0.4361440000000  0.4473900000000  0.4545400000000 1.0
C      1  0.4280310000000  0.5285600000000  0.4554430000000 1.0
C      1  0.5192880000000  0.5743750000000  0.4583100000000 1.0
C      1  0.5901750000000  0.5711050000000  0.5692320000000 1.0
C      1  0.5868770000000  0.4282660000000  0.5508360000000 1.0
C      1  0.4735600000000  0.3905720000000  0.5624950000000 1.0
C      1  0.3837390000000  0.4937980000000  0.5562990000000 1.0
C      1  0.4670210000000  0.6105150000000  0.5507900000000 1.0
C      1  0.4705810000000  0.4130040000000  0.4554180000000 1.0
C      1  0.4031940000000  0.4847450000000  0.4510260000000 1.0
C      1  0.4645100000000  0.5742370000000  0.4485320000000 1.0
C      1  0.5664550000000  0.5752480000000  0.4655110000000 1.0
C      1  0.5876950000000  0.4717260000000  0.4491980000000 1.0
C      1  0.5681000000000  0.4276120000000  0.5720200000000 1.0
C      1  0.4653300000000  0.4082060000000  0.5832040000000 1.0
C      1  0.3966840000000  0.5012090000000  0.5804180000000 1.0
C      1  0.4878440000000  0.6022480000000  0.5680440000000 1.0
C      1  0.5805680000000  0.5521110000000  0.5875660000000 1.0
C      1  0.5435990000000  0.5918900000000  0.4624350000000 1.0
C      1  0.5976060000000  0.5025590000000  0.4546060000000 1.0
C      1  0.5330440000000  0.4114290000000  0.4601470000000 1.0
C      1  0.4074930000000  0.4533530000000  0.4528780000000 1.0
C      1  0.4350550000000  0.5598210000000  0.4501550000000 1.0
C      1  0.5127010000000  0.5188830000000  0.4909640000000 1.0
C      1  0.4848660000000  0.4970800000000  0.3864920000000 1.0
C      1  0.5042550000000  0.4916320000000  0.4632960000000 1.0
END
