TITL C-2782228-2999-422 -0.00120103707872309 125000 -511.440968784961 0 0 88 (C1) n - 1
REM
REM in /home/nfs/bkarasulu/CARBON/AIRSS/Generating-Clusters/REBO/Higher-Symm/SD-CG/HFTN-CG
REM
REM
REM
REM
REM
REM ./C.cell (12c818d87b63d06a65506943cc24bca4)
REM
REM compiler GCC version 9.2.1 20190827 (Red Hat 9.2.1-1)
REM options -cpp -mtune=generic -march=x86-64 -g -O0 -fpre-include=/usr/include/finclude/math-vector-fortran.h
REM seed 1151701603 840803336 -2122132330 1213920708 -583396039 -1617447556 -408785188 2002932678 -196965570 -1696273787 -1942193282 665217680 1791133516 918576645 416780257 1455894503 463400707 2010235198 1768418947 -576119768 143614732 -1365129502 110973821 -551146779 -1320751249 -1024579373 145542372 590239101 622028231 -531623564 -1665227368 -258846163 -769920964
REM
CELL 1.54180   50.00000   50.00000   50.00000   90.00000   90.00000   90.00000
LATT -1
SFAC C  
C      1  0.5143360000000  0.5097330000000  0.5558340000000 1.0
C      1  0.4820970000000  0.5128140000000  0.4421440000000 1.0
C      1  0.4831590000000  0.5047580000000  0.5632020000000 1.0
C      1  0.5136980000000  0.5037940000000  0.4437610000000 1.0
C      1  0.5491110000000  0.5014920000000  0.4849780000000 1.0
C      1  0.4551140000000  0.5035460000000  0.5149570000000 1.0
C      1  0.4552300000000  0.5019090000000  0.4849890000000 1.0
C      1  0.5489010000000  0.5013340000000  0.5148500000000 1.0
C      1  0.4844180000000  0.5356470000000  0.5525890000000 1.0
C      1  0.5138170000000  0.5359370000000  0.4481990000000 1.0
C      1  0.5162360000000  0.5393770000000  0.5428540000000 1.0
C      1  0.4815230000000  0.5414150000000  0.4566640000000 1.0
C      1  0.5154810000000  0.5414310000000  0.5107480000000 1.0
C      1  0.4818790000000  0.5419620000000  0.4892800000000 1.0
C      1  0.4832610000000  0.5402760000000  0.5206910000000 1.0
C      1  0.5139060000000  0.5411680000000  0.4796700000000 1.0
C      1  0.5103810000000  0.5739170000000  0.4364070000000 1.0
C      1  0.4894230000000  0.5734840000000  0.5642290000000 1.0
C      1  0.4857430000000  0.5737190000000  0.4335570000000 1.0
C      1  0.5140070000000  0.5713230000000  0.5667380000000 1.0
C      1  0.4824490000000  0.4332990000000  0.4831000000000 1.0
C      1  0.5190960000000  0.4388880000000  0.5120620000000 1.0
C      1  0.5216000000000  0.4259190000000  0.4825690000000 1.0
C      1  0.4795330000000  0.4337520000000  0.5142340000000 1.0
C      1  0.5178500000000  0.4930500000000  0.4743970000000 1.0
C      1  0.4849770000000  0.4968300000000  0.5302910000000 1.0
C      1  0.4853860000000  0.4990510000000  0.4715050000000 1.0
C      1  0.5182790000000  0.5003450000000  0.5248520000000 1.0
C      1  0.4885910000000  0.5951170000000  0.5171010000000 1.0
C      1  0.5113840000000  0.5956100000000  0.4847950000000 1.0
C      1  0.5197300000000  0.5932230000000  0.5160760000000 1.0
C      1  0.4801890000000  0.5943000000000  0.4857970000000 1.0
C      1  0.4445630000000  0.5344170000000  0.5519490000000 1.0
C      1  0.5536570000000  0.5337570000000  0.4485140000000 1.0
C      1  0.5563640000000  0.5282380000000  0.5551300000000 1.0
C      1  0.4451300000000  0.5299010000000  0.4449370000000 1.0
C      1  0.4675040000000  0.5694790000000  0.5143950000000 1.0
C      1  0.5311630000000  0.5690150000000  0.4864470000000 1.0
C      1  0.5357870000000  0.5660480000000  0.5204410000000 1.0
C      1  0.4631720000000  0.5679960000000  0.4802150000000 1.0
C      1  0.5493820000000  0.4785140000000  0.5608330000000 1.0
C      1  0.4495580000000  0.4788510000000  0.4377850000000 1.0
C      1  0.4497300000000  0.4829260000000  0.5621720000000 1.0
C      1  0.5481880000000  0.4827160000000  0.4373630000000 1.0
C      1  0.4580300000000  0.5611410000000  0.4472800000000 1.0
C      1  0.5410350000000  0.5574310000000  0.5529160000000 1.0
C      1  0.5360190000000  0.5612550000000  0.4535200000000 1.0
C      1  0.4631070000000  0.5616940000000  0.5473960000000 1.0
C      1  0.5422630000000  0.5052760000000  0.5670720000000 1.0
C      1  0.4551830000000  0.5053990000000  0.4300440000000 1.0
C      1  0.4525750000000  0.5124760000000  0.5686950000000 1.0
C      1  0.5429810000000  0.5120550000000  0.4332100000000 1.0
C      1  0.4423860000000  0.4484990000000  0.5135930000000 1.0
C      1  0.5585290000000  0.4452970000000  0.4848770000000 1.0
C      1  0.5583890000000  0.4457060000000  0.5127300000000 1.0
C      1  0.4435160000000  0.4471870000000  0.4860420000000 1.0
C      1  0.4838440000000  0.4341790000000  0.4494850000000 1.0
C      1  0.5141490000000  0.4352550000000  0.5454720000000 1.0
C      1  0.5157310000000  0.4327210000000  0.4496460000000 1.0
C      1  0.4830590000000  0.4339190000000  0.5491530000000 1.0
C      1  0.5453290000000  0.4713610000000  0.5286020000000 1.0
C      1  0.4561020000000  0.4723090000000  0.4697690000000 1.0
C      1  0.4510770000000  0.4759310000000  0.5307570000000 1.0
C      1  0.5516040000000  0.4732850000000  0.4684280000000 1.0
C      1  0.4867710000000  0.4020700000000  0.4913200000000 1.0
C      1  0.5163270000000  0.4064480000000  0.5170800000000 1.0
C      1  0.5179520000000  0.3933580000000  0.4871330000000 1.0
C      1  0.4853010000000  0.4018750000000  0.5247060000000 1.0
C      1  0.5480560000000  0.4324710000000  0.5382560000000 1.0
C      1  0.4505560000000  0.4331900000000  0.4599120000000 1.0
C      1  0.4498290000000  0.4362530000000  0.5403440000000 1.0
C      1  0.5497650000000  0.4351040000000  0.4569070000000 1.0
C      1  0.5854080000000  0.5357070000000  0.4877760000000 1.0
C      1  0.4148960000000  0.5342520000000  0.5116660000000 1.0
C      1  0.4146640000000  0.5323680000000  0.4844700000000 1.0
C      1  0.5868510000000  0.5337240000000  0.5150190000000 1.0
C      1  0.5650230000000  0.5242450000000  0.4724160000000 1.0
C      1  0.4363760000000  0.5247730000000  0.5267510000000 1.0
C      1  0.4362340000000  0.5213580000000  0.4705410000000 1.0
C      1  0.5671450000000  0.5206370000000  0.5300020000000 1.0
C      1  0.4806120000000  0.4638490000000  0.5230300000000 1.0
C      1  0.5218210000000  0.4596650000000  0.4781550000000 1.0
C      1  0.5119930000000  0.4685980000000  0.5219120000000 1.0
C      1  0.4891940000000  0.4653190000000  0.4738380000000 1.0
C      1  0.4582390000000  0.4509710000000  0.4350660000000 1.0
C      1  0.5392050000000  0.4508460000000  0.5623760000000 1.0
C      1  0.5373940000000  0.4551280000000  0.4357710000000 1.0
C      1  0.4604940000000  0.4551350000000  0.5635620000000 1.0
END
