TITL C-2782238-9940-34 0.00194594958819546 125000 -743.5180153977 0 0 129 (C1) n - 1
REM
REM in /home/nfs/bkarasulu/CARBON/AIRSS/Generating-Clusters/REBO/Higher-Symm/SD-CG/HFTN-CG
REM
REM
REM
REM
REM
REM ./C.cell (12c818d87b63d06a65506943cc24bca4)
REM
REM compiler GCC version 9.2.1 20190827 (Red Hat 9.2.1-1)
REM options -cpp -mtune=generic -march=x86-64 -g -O0 -fpre-include=/usr/include/finclude/math-vector-fortran.h
REM seed -1016528217 -1437238104 -303880065 2069063389 -659176015 -506635197 -775733740 -769004081 -394713714 -1663613576 -277331445 -8700582 815320412 1030733318 1122525930 -1419304960 -242509389 -165812979 322539523 980786357 690616837 1752346697 -965314746 -1024258227 758535890 -1464843865 -1186716117 429502271 -325185878 1292017724 793668294 -1925809415 -611635530
REM
CELL 1.54180   50.00000   50.00000   50.00000   90.00000   90.00000   90.00000
LATT -1
SFAC C  
C      1  0.4993210000000  0.4103040000000  0.5237710000000 1.0
C      1  0.4987220000000  0.5920300000000  0.5234790000000 1.0
C      1  0.5107240000000  0.4482360000000  0.5165090000000 1.0
C      1  0.4878890000000  0.5466590000000  0.5108890000000 1.0
C      1  0.4622170000000  0.4969460000000  0.5876690000000 1.0
C      1  0.5443720000000  0.5035840000000  0.5888270000000 1.0
C      1  0.5283750000000  0.4783500000000  0.5830250000000 1.0
C      1  0.4775230000000  0.5223970000000  0.5827320000000 1.0
C      1  0.5603190000000  0.5524060000000  0.5214900000000 1.0
C      1  0.4357650000000  0.4475050000000  0.5220330000000 1.0
C      1  0.5414120000000  0.5445580000000  0.4327820000000 1.0
C      1  0.4611130000000  0.4539070000000  0.4299860000000 1.0
C      1  0.5135490000000  0.4149780000000  0.4725870000000 1.0
C      1  0.4857200000000  0.5834570000000  0.4701820000000 1.0
C      1  0.5309070000000  0.4138200000000  0.5337810000000 1.0
C      1  0.4672940000000  0.5869070000000  0.5316760000000 1.0
C      1  0.5396070000000  0.5804810000000  0.4882420000000 1.0
C      1  0.4575630000000  0.4219380000000  0.4878340000000 1.0
C      1  0.5972790000000  0.5057460000000  0.5363390000000 1.0
C      1  0.4092720000000  0.4927300000000  0.5349780000000 1.0
C      1  0.4794130000000  0.4693400000000  0.5771940000000 1.0
C      1  0.5274200000000  0.5313460000000  0.5776610000000 1.0
C      1  0.5675120000000  0.5003820000000  0.4943060000000 1.0
C      1  0.4289730000000  0.5044320000000  0.4938710000000 1.0
C      1  0.5369150000000  0.5445530000000  0.5041620000000 1.0
C      1  0.4598070000000  0.4569880000000  0.5064430000000 1.0
C      1  0.4915950000000  0.4876710000000  0.4538220000000 1.0
C      1  0.5046990000000  0.5083810000000  0.4542470000000 1.0
C      1  0.4994560000000  0.4615970000000  0.5435140000000 1.0
C      1  0.4992860000000  0.5342100000000  0.5367200000000 1.0
C      1  0.5118730000000  0.5676110000000  0.5036770000000 1.0
C      1  0.4847080000000  0.4344280000000  0.5042490000000 1.0
C      1  0.5166090000000  0.5725300000000  0.4643810000000 1.0
C      1  0.4825590000000  0.4268500000000  0.4652090000000 1.0
C      1  0.5046750000000  0.4861930000000  0.5643710000000 1.0
C      1  0.5018000000000  0.5163360000000  0.5642780000000 1.0
C      1  0.4348150000000  0.4398900000000  0.4747920000000 1.0
C      1  0.5642600000000  0.5615010000000  0.4788490000000 1.0
C      1  0.4769820000000  0.6062890000000  0.4521600000000 1.0
C      1  0.5229660000000  0.3926890000000  0.4544070000000 1.0
C      1  0.4749610000000  0.4204990000000  0.5404070000000 1.0
C      1  0.5218470000000  0.5790690000000  0.5405470000000 1.0
C      1  0.4135470000000  0.4544000000000  0.4875690000000 1.0
C      1  0.5859340000000  0.5459760000000  0.4915270000000 1.0
C      1  0.4413490000000  0.4529940000000  0.4508430000000 1.0
C      1  0.5567040000000  0.5455770000000  0.4564410000000 1.0
C      1  0.5186900000000  0.5626220000000  0.4318990000000 1.0
C      1  0.4856990000000  0.4404930000000  0.4340990000000 1.0
C      1  0.4517510000000  0.4210470000000  0.5217620000000 1.0
C      1  0.5450910000000  0.5791250000000  0.5221940000000 1.0
C      1  0.5107620000000  0.5388160000000  0.4626580000000 1.0
C      1  0.4892080000000  0.4602480000000  0.4684240000000 1.0
C      1  0.5417800000000  0.4386160000000  0.5141140000000 1.0
C      1  0.4591150000000  0.5608840000000  0.5133630000000 1.0
C      1  0.5228540000000  0.5163880000000  0.5281630000000 1.0
C      1  0.4838480000000  0.4833090000000  0.5243400000000 1.0
C      1  0.5178680000000  0.4447680000000  0.4640810000000 1.0
C      1  0.4821960000000  0.5537010000000  0.4579720000000 1.0
C      1  0.5408320000000  0.4465000000000  0.4251880000000 1.0
C      1  0.4627130000000  0.5568090000000  0.4235790000000 1.0
C      1  0.4440830000000  0.5544450000000  0.5692580000000 1.0
C      1  0.5546780000000  0.4480010000000  0.5671870000000 1.0
C      1  0.5232390000000  0.5179250000000  0.4941160000000 1.0
C      1  0.4667380000000  0.4841600000000  0.4955240000000 1.0
C      1  0.4223940000000  0.5426060000000  0.5459560000000 1.0
C      1  0.5770990000000  0.4581910000000  0.5434700000000 1.0
C      1  0.4744100000000  0.5275530000000  0.4367370000000 1.0
C      1  0.5351360000000  0.4691450000000  0.4488340000000 1.0
C      1  0.5431700000000  0.4986240000000  0.4506820000000 1.0
C      1  0.4547010000000  0.5034630000000  0.4486620000000 1.0
C      1  0.4343640000000  0.4882880000000  0.5489440000000 1.0
C      1  0.5756740000000  0.5133690000000  0.5535550000000 1.0
C      1  0.4690980000000  0.4706650000000  0.6080030000000 1.0
C      1  0.5389350000000  0.5312700000000  0.6078230000000 1.0
C      1  0.4464280000000  0.5150090000000  0.5125700000000 1.0
C      1  0.5491800000000  0.4889330000000  0.5163800000000 1.0
C      1  0.4092710000000  0.4817430000000  0.5058310000000 1.0
C      1  0.5932720000000  0.5172700000000  0.5087260000000 1.0
C      1  0.4075340000000  0.5174390000000  0.4716080000000 1.0
C      1  0.5874160000000  0.4857220000000  0.4697750000000 1.0
C      1  0.5692830000000  0.4508580000000  0.4394380000000 1.0
C      1  0.4399190000000  0.5458000000000  0.4437780000000 1.0
C      1  0.4669130000000  0.5085120000000  0.4788780000000 1.0
C      1  0.5301360000000  0.4915870000000  0.4813730000000 1.0
C      1  0.4364070000000  0.5432510000000  0.5190380000000 1.0
C      1  0.5623390000000  0.4599610000000  0.5166350000000 1.0
C      1  0.4356750000000  0.5000540000000  0.5750870000000 1.0
C      1  0.5718150000000  0.4989150000000  0.5778350000000 1.0
C      1  0.5638850000000  0.5173900000000  0.4650090000000 1.0
C      1  0.4285950000000  0.4815150000000  0.4497340000000 1.0
C      1  0.5060360000000  0.4803120000000  0.4136630000000 1.0
C      1  0.4977720000000  0.5283490000000  0.4043760000000 1.0
C      1  0.4767030000000  0.5857390000000  0.4983470000000 1.0
C      1  0.5227650000000  0.4136370000000  0.5004710000000 1.0
C      1  0.5422860000000  0.5149620000000  0.4226840000000 1.0
C      1  0.4561430000000  0.4827110000000  0.4208360000000 1.0
C      1  0.5101110000000  0.5551950000000  0.5605330000000 1.0
C      1  0.4884140000000  0.4397920000000  0.5643790000000 1.0
C      1  0.5795770000000  0.4784970000000  0.4402390000000 1.0
C      1  0.4158070000000  0.5325470000000  0.4449120000000 1.0
C      1  0.5185180000000  0.5069530000000  0.4069370000000 1.0
C      1  0.4803220000000  0.5015910000000  0.4167680000000 1.0
C      1  0.4122560000000  0.4529390000000  0.5333860000000 1.0
C      1  0.5835300000000  0.5470400000000  0.5335000000000 1.0
C      1  0.4264640000000  0.5269800000000  0.5756640000000 1.0
C      1  0.5771000000000  0.4710330000000  0.5749670000000 1.0
C      1  0.5684910000000  0.4433120000000  0.4680070000000 1.0
C      1  0.4344900000000  0.5577580000000  0.4819310000000 1.0
C      1  0.5422850000000  0.4595100000000  0.4802100000000 1.0
C      1  0.4576300000000  0.5393170000000  0.4708230000000 1.0
C      1  0.5710870000000  0.4976170000000  0.4222760000000 1.0
C      1  0.4236470000000  0.4914920000000  0.4176180000000 1.0
C      1  0.4917300000000  0.5266120000000  0.4873540000000 1.0
C      1  0.5059850000000  0.4702050000000  0.4924480000000 1.0
C      1  0.5096990000000  0.4534770000000  0.4223480000000 1.0
C      1  0.4949730000000  0.5547550000000  0.4162930000000 1.0
C      1  0.5968210000000  0.5181160000000  0.4747060000000 1.0
C      1  0.4049230000000  0.4833760000000  0.4713530000000 1.0
C      1  0.5207340000000  0.4464810000000  0.5737380000000 1.0
C      1  0.4781820000000  0.5534750000000  0.5721520000000 1.0
C      1  0.5375510000000  0.4205040000000  0.5615080000000 1.0
C      1  0.4619980000000  0.5804100000000  0.5599810000000 1.0
C      1  0.6028450000000  0.4786130000000  0.5394600000000 1.0
C      1  0.3998380000000  0.5183820000000  0.5410200000000 1.0
C      1  0.5520460000000  0.5145630000000  0.5387660000000 1.0
C      1  0.4562500000000  0.4964940000000  0.5319050000000 1.0
C      1  0.4132050000000  0.5410840000000  0.4941860000000 1.0
C      1  0.5805000000000  0.4609250000000  0.4910120000000 1.0
C      1  0.5159440000000  0.4875310000000  0.5185040000000 1.0
END
