TITL C-2782235-7892-759 0.00327135179572595 125000 -613.966884499703 0 0 105 (C1) n - 1
REM
REM in /home/nfs/bkarasulu/CARBON/AIRSS/Generating-Clusters/REBO/Higher-Symm/SD-CG/HFTN-CG
REM
REM
REM
REM
REM
REM ./C.cell (12c818d87b63d06a65506943cc24bca4)
REM
REM compiler GCC version 9.2.1 20190827 (Red Hat 9.2.1-1)
REM options -cpp -mtune=generic -march=x86-64 -g -O0 -fpre-include=/usr/include/finclude/math-vector-fortran.h
REM seed 273194764 -1704938777 -18067968 2051333905 -2021207464 -1136229794 2125891861 1924078048 573063489 1770503606 358924129 1632208783 -1090145166 -1743855601 320222273 -1875815011 1565181014 -1610132756 -215236642 -622480761 147462445 1848199347 1472870608 -1697652012 -1246362408 -89226738 -945272365 -726996415 -965455900 572741338 1736125674 -946880707 1331163353
REM
CELL 1.54180   50.00000   50.00000   50.00000   90.00000   90.00000   90.00000
LATT -1
SFAC C  
C      1  0.5230780000000  0.6298770000000  0.5708910000000 1.0
C      1  0.4440560000000  0.5726370000000  0.4805690000000 1.0
C      1  0.4742810000000  0.5476310000000  0.5135540000000 1.0
C      1  0.4511250000000  0.5147560000000  0.5440570000000 1.0
C      1  0.5005070000000  0.4909300000000  0.4837320000000 1.0
C      1  0.5534350000000  0.5791210000000  0.4505890000000 1.0
C      1  0.5115250000000  0.4199330000000  0.4958580000000 1.0
C      1  0.5337630000000  0.4370520000000  0.4358840000000 1.0
C      1  0.5585920000000  0.4380310000000  0.6103310000000 1.0
C      1  0.5406420000000  0.5147190000000  0.5225830000000 1.0
C      1  0.4375750000000  0.4859910000000  0.4511110000000 1.0
C      1  0.5260350000000  0.4455650000000  0.5437330000000 1.0
C      1  0.4876900000000  0.4431570000000  0.4380240000000 1.0
C      1  0.4832350000000  0.4544310000000  0.5166640000000 1.0
C      1  0.4201080000000  0.5649850000000  0.4693830000000 1.0
C      1  0.5149280000000  0.4717310000000  0.5336330000000 1.0
C      1  0.4864060000000  0.5028090000000  0.4551350000000 1.0
C      1  0.5172650000000  0.4754480000000  0.4124380000000 1.0
C      1  0.4681180000000  0.4127220000000  0.5444690000000 1.0
C      1  0.5134090000000  0.5506790000000  0.5197190000000 1.0
C      1  0.4945320000000  0.5690420000000  0.4602550000000 1.0
C      1  0.4929070000000  0.5261840000000  0.5237610000000 1.0
C      1  0.5506480000000  0.4524900000000  0.5591790000000 1.0
C      1  0.5635410000000  0.4922340000000  0.5227280000000 1.0
C      1  0.4445090000000  0.4585970000000  0.5533410000000 1.0
C      1  0.4711640000000  0.5221450000000  0.4790720000000 1.0
C      1  0.4583630000000  0.5641740000000  0.5610230000000 1.0
C      1  0.4637910000000  0.4841670000000  0.4698650000000 1.0
C      1  0.5152340000000  0.5143560000000  0.5037120000000 1.0
C      1  0.5623160000000  0.5459070000000  0.4862760000000 1.0
C      1  0.4942750000000  0.4287470000000  0.4612710000000 1.0
C      1  0.4078270000000  0.5427830000000  0.4832050000000 1.0
C      1  0.4371060000000  0.4499070000000  0.4832550000000 1.0
C      1  0.5277310000000  0.4248350000000  0.4664300000000 1.0
C      1  0.5000000000000  0.5380530000000  0.4847330000000 1.0
C      1  0.3991670000000  0.4940700000000  0.4841630000000 1.0
C      1  0.5318850000000  0.5488080000000  0.4924810000000 1.0
C      1  0.5387670000000  0.5610180000000  0.5485600000000 1.0
C      1  0.4669690000000  0.5720050000000  0.5343590000000 1.0
C      1  0.4268610000000  0.4918620000000  0.5399100000000 1.0
C      1  0.5613190000000  0.4426160000000  0.4311870000000 1.0
C      1  0.5224790000000  0.5861340000000  0.4595890000000 1.0
C      1  0.4805330000000  0.5044670000000  0.4238500000000 1.0
C      1  0.5547190000000  0.4450820000000  0.5853890000000 1.0
C      1  0.4215090000000  0.5295890000000  0.5422490000000 1.0
C      1  0.5675240000000  0.4668550000000  0.5424740000000 1.0
C      1  0.5069070000000  0.4185470000000  0.5470640000000 1.0
C      1  0.4705350000000  0.5325210000000  0.4335000000000 1.0
C      1  0.5584380000000  0.4281880000000  0.4779000000000 1.0
C      1  0.4067180000000  0.5176080000000  0.4697250000000 1.0
C      1  0.4636690000000  0.4792550000000  0.4170230000000 1.0
C      1  0.5109970000000  0.5760310000000  0.4899930000000 1.0
C      1  0.5208730000000  0.5826770000000  0.5440080000000 1.0
C      1  0.5081650000000  0.5082820000000  0.4103920000000 1.0
C      1  0.4414160000000  0.4849740000000  0.5694210000000 1.0
C      1  0.5302260000000  0.5626750000000  0.4357810000000 1.0
C      1  0.4958880000000  0.4307590000000  0.5220840000000 1.0
C      1  0.5446020000000  0.5358530000000  0.5395940000000 1.0
C      1  0.4544840000000  0.4815580000000  0.5222050000000 1.0
C      1  0.5793330000000  0.4877640000000  0.4593350000000 1.0
C      1  0.4208800000000  0.4752200000000  0.4991300000000 1.0
C      1  0.4447190000000  0.5614390000000  0.5106240000000 1.0
C      1  0.4802340000000  0.4650190000000  0.4909100000000 1.0
C      1  0.4406360000000  0.4553420000000  0.4551000000000 1.0
C      1  0.5821620000000  0.4642150000000  0.4444460000000 1.0
C      1  0.5118150000000  0.4507350000000  0.4242600000000 1.0
C      1  0.5962700000000  0.4985420000000  0.4808410000000 1.0
C      1  0.4518540000000  0.5304600000000  0.4547420000000 1.0
C      1  0.5772620000000  0.4351600000000  0.4578050000000 1.0
C      1  0.4546190000000  0.4334350000000  0.4984550000000 1.0
C      1  0.4567330000000  0.5005000000000  0.4974480000000 1.0
C      1  0.5823920000000  0.5272630000000  0.4929500000000 1.0
C      1  0.5395070000000  0.5109210000000  0.4493580000000 1.0
C      1  0.5603580000000  0.4342070000000  0.5051640000000 1.0
C      1  0.4268930000000  0.5074210000000  0.5096280000000 1.0
C      1  0.4526820000000  0.5078300000000  0.5831140000000 1.0
C      1  0.5771440000000  0.4553010000000  0.5158300000000 1.0
C      1  0.5216120000000  0.4752890000000  0.5031110000000 1.0
C      1  0.4977740000000  0.5789360000000  0.5214000000000 1.0
C      1  0.5949250000000  0.4752660000000  0.5046520000000 1.0
C      1  0.5241420000000  0.6526300000000  0.5838510000000 1.0
C      1  0.4535390000000  0.4328320000000  0.5324880000000 1.0
C      1  0.5229230000000  0.4936020000000  0.5551090000000 1.0
C      1  0.5351260000000  0.4239230000000  0.5194590000000 1.0
C      1  0.4933110000000  0.5488070000000  0.4383750000000 1.0
C      1  0.5524600000000  0.4950810000000  0.4687290000000 1.0
C      1  0.5219980000000  0.6067550000000  0.5577220000000 1.0
C      1  0.5033430000000  0.5011560000000  0.5736780000000 1.0
C      1  0.5472970000000  0.4856180000000  0.4960770000000 1.0
C      1  0.4785630000000  0.5075100000000  0.5404890000000 1.0
C      1  0.4288910000000  0.5129580000000  0.4519990000000 1.0
C      1  0.4833940000000  0.4771920000000  0.5384000000000 1.0
C      1  0.4787670000000  0.4252860000000  0.4865490000000 1.0
C      1  0.4208570000000  0.5400440000000  0.5119120000000 1.0
C      1  0.4321730000000  0.4564020000000  0.5222830000000 1.0
C      1  0.5493510000000  0.5008460000000  0.5590500000000 1.0
C      1  0.5374880000000  0.4979150000000  0.4222130000000 1.0
C      1  0.4744060000000  0.5614230000000  0.4838780000000 1.0
C      1  0.5708140000000  0.5662440000000  0.4681630000000 1.0
C      1  0.4434250000000  0.5367230000000  0.5674910000000 1.0
C      1  0.4625930000000  0.4558310000000  0.4338280000000 1.0
C      1  0.5204310000000  0.5326400000000  0.4311880000000 1.0
C      1  0.5906810000000  0.5066010000000  0.5165320000000 1.0
C      1  0.4806300000000  0.5061550000000  0.5874480000000 1.0
C      1  0.5292270000000  0.3983000000000  0.5414250000000 1.0
END
