TITL C-2782233-7966-572 0.000148240900986193 125000 -297.043175927803 0 0 50 (C1) n - 1
REM
REM in /home/nfs/bkarasulu/CARBON/AIRSS/Generating-Clusters/REBO/Higher-Symm/SD-CG/HFTN-CG
REM
REM
REM
REM
REM
REM ./C.cell (12c818d87b63d06a65506943cc24bca4)
REM
REM compiler GCC version 9.2.1 20190827 (Red Hat 9.2.1-1)
REM options -cpp -mtune=generic -march=x86-64 -g -O0 -fpre-include=/usr/include/finclude/math-vector-fortran.h
REM seed -1931028498 -207058266 -1839037723 2083777200 408789457 1354673473 -299809590 936316042 1397208899 1543954589 1292706368 -695247436 1973117829 -953455925 -422052161 294129450 131915095 -1892154842 -540913462 1754196890 1674985252 -676440833 -1660907409 998952432 1584732632 -1908987235 -890839374 -632280994 -1164337376 985994535 462911970 809449758 -386773280
REM
CELL 1.54180   50.00000   50.00000   50.00000   90.00000   90.00000   90.00000
LATT -1
SFAC C  
C      1  0.5152850000000  0.4379340000000  0.5020020000000 1.0
C      1  0.5017020000000  0.5613740000000  0.4845020000000 1.0
C      1  0.4867740000000  0.4373470000000  0.4951710000000 1.0
C      1  0.4947460000000  0.5607130000000  0.5130280000000 1.0
C      1  0.4830450000000  0.4834280000000  0.4793510000000 1.0
C      1  0.4785740000000  0.5242350000000  0.5156390000000 1.0
C      1  0.5016550000000  0.4835620000000  0.5273700000000 1.0
C      1  0.5290050000000  0.5204590000000  0.4864460000000 1.0
C      1  0.5034440000000  0.5294660000000  0.5515770000000 1.0
C      1  0.5517550000000  0.4704860000000  0.4930440000000 1.0
C      1  0.4920960000000  0.5287830000000  0.4485810000000 1.0
C      1  0.4522190000000  0.4717260000000  0.5046500000000 1.0
C      1  0.5206940000000  0.4312260000000  0.5291920000000 1.0
C      1  0.5293050000000  0.5657710000000  0.4795260000000 1.0
C      1  0.4823530000000  0.4307510000000  0.4677550000000 1.0
C      1  0.4675510000000  0.5678780000000  0.5179190000000 1.0
C      1  0.5492270000000  0.5541880000000  0.4936250000000 1.0
C      1  0.5006640000000  0.4364530000000  0.4478570000000 1.0
C      1  0.4472830000000  0.5643100000000  0.4995360000000 1.0
C      1  0.5062970000000  0.4407890000000  0.5503970000000 1.0
C      1  0.4752260000000  0.5036880000000  0.4532490000000 1.0
C      1  0.4578600000000  0.4975450000000  0.5206530000000 1.0
C      1  0.5184680000000  0.5027950000000  0.5492340000000 1.0
C      1  0.5508110000000  0.4962740000000  0.4765840000000 1.0
C      1  0.5407800000000  0.4860130000000  0.4492610000000 1.0
C      1  0.4474110000000  0.5149800000000  0.4606260000000 1.0
C      1  0.4647270000000  0.4852060000000  0.5483420000000 1.0
C      1  0.5456550000000  0.5113330000000  0.5382080000000 1.0
C      1  0.5223990000000  0.4602990000000  0.4543040000000 1.0
C      1  0.4531570000000  0.5435670000000  0.4751000000000 1.0
C      1  0.4776550000000  0.4563040000000  0.5432030000000 1.0
C      1  0.5412600000000  0.5369660000000  0.5206960000000 1.0
C      1  0.4335970000000  0.4748310000000  0.4839700000000 1.0
C      1  0.4806340000000  0.5270400000000  0.5679380000000 1.0
C      1  0.5662320000000  0.4721120000000  0.5169090000000 1.0
C      1  0.5149680000000  0.5249520000000  0.4330280000000 1.0
C      1  0.5614380000000  0.5235970000000  0.4938420000000 1.0
C      1  0.4940260000000  0.4754230000000  0.4511130000000 1.0
C      1  0.4505510000000  0.5246610000000  0.5014410000000 1.0
C      1  0.5066420000000  0.4723380000000  0.5578540000000 1.0
C      1  0.4666670000000  0.5032440000000  0.5685060000000 1.0
C      1  0.5646520000000  0.4924950000000  0.5349700000000 1.0
C      1  0.5335910000000  0.5051130000000  0.4313680000000 1.0
C      1  0.4290690000000  0.4962080000000  0.4674410000000 1.0
C      1  0.5125470000000  0.5463480000000  0.5304120000000 1.0
C      1  0.5319380000000  0.4527000000000  0.4841010000000 1.0
C      1  0.4832770000000  0.5489860000000  0.4663220000000 1.0
C      1  0.4694800000000  0.4510090000000  0.5135700000000 1.0
C      1  0.4965730000000  0.4915320000000  0.5021320000000 1.0
C      1  0.5050300000000  0.5215610000000  0.4999510000000 1.0
END
