TITL C-2782230-7391-215 -0.003928030399551 125000 -416.95433121629 0 0 73 (C1) n - 1
REM
REM in /home/nfs/bkarasulu/CARBON/AIRSS/Generating-Clusters/REBO/Higher-Symm/SD-CG/HFTN-CG
REM
REM
REM
REM
REM
REM ./C.cell (12c818d87b63d06a65506943cc24bca4)
REM
REM compiler GCC version 9.2.1 20190827 (Red Hat 9.2.1-1)
REM options -cpp -mtune=generic -march=x86-64 -g -O0 -fpre-include=/usr/include/finclude/math-vector-fortran.h
REM seed 645067995 2102777746 -27964024 -1930010537 299533801 -640679122 -297097001 630334444 1881562534 1993804132 -917791662 -534982844 -1656335927 -28058802 -232638330 -1685378988 1093926900 462787682 507902276 1072310024 708752505 914693130 413020117 824863745 1395349581 -2020257797 1382281500 503967468 940251739 -313843690 -1087566724 906501948 -1368731896
REM
CELL 1.54180   50.00000   50.00000   50.00000   90.00000   90.00000   90.00000
LATT -1
SFAC C  
C      1  0.4291380000000  0.5246030000000  0.4884350000000 1.0
C      1  0.5624830000000  0.5558450000000  0.4962170000000 1.0
C      1  0.5177150000000  0.4186960000000  0.4971260000000 1.0
C      1  0.5432470000000  0.5206490000000  0.4475540000000 1.0
C      1  0.4976640000000  0.4501960000000  0.4469270000000 1.0
C      1  0.4566180000000  0.5258010000000  0.4494760000000 1.0
C      1  0.5524180000000  0.5257860000000  0.5598850000000 1.0
C      1  0.4980040000000  0.4433110000000  0.5607330000000 1.0
C      1  0.4530330000000  0.5291900000000  0.5582330000000 1.0
C      1  0.4674470000000  0.5026730000000  0.4968710000000 1.0
C      1  0.5163360000000  0.5278750000000  0.4953020000000 1.0
C      1  0.5181840000000  0.4733320000000  0.4937760000000 1.0
C      1  0.5394260000000  0.4705560000000  0.5149910000000 1.0
C      1  0.4543720000000  0.4825030000000  0.5164610000000 1.0
C      1  0.5081570000000  0.5483380000000  0.5155490000000 1.0
C      1  0.4580770000000  0.4224920000000  0.4870680000000 1.0
C      1  0.4561740000000  0.5787260000000  0.4886330000000 1.0
C      1  0.5900020000000  0.5019700000000  0.4858440000000 1.0
C      1  0.5242420000000  0.4238520000000  0.5254640000000 1.0
C      1  0.4309060000000  0.5106670000000  0.5159940000000 1.0
C      1  0.5558000000000  0.5585080000000  0.5249230000000 1.0
C      1  0.4794890000000  0.5522330000000  0.5248050000000 1.0
C      1  0.5579630000000  0.4936300000000  0.5239120000000 1.0
C      1  0.4668330000000  0.4552450000000  0.5245970000000 1.0
C      1  0.4753630000000  0.4601330000000  0.5558830000000 1.0
C      1  0.4787410000000  0.5403810000000  0.5540270000000 1.0
C      1  0.5489580000000  0.4980680000000  0.5543880000000 1.0
C      1  0.5278200000000  0.5419110000000  0.4665760000000 1.0
C      1  0.5230020000000  0.4544880000000  0.4661410000000 1.0
C      1  0.4549180000000  0.5027150000000  0.4672030000000 1.0
C      1  0.5280260000000  0.5567240000000  0.5342520000000 1.0
C      1  0.5365420000000  0.4491320000000  0.5339620000000 1.0
C      1  0.4354490000000  0.4902620000000  0.5413160000000 1.0
C      1  0.4981880000000  0.4223590000000  0.5406050000000 1.0
C      1  0.4367650000000  0.5356570000000  0.5355930000000 1.0
C      1  0.5702710000000  0.5365480000000  0.5395470000000 1.0
C      1  0.5479910000000  0.5628360000000  0.4746900000000 1.0
C      1  0.5310750000000  0.4269160000000  0.4753780000000 1.0
C      1  0.4183070000000  0.5232640000000  0.4650360000000 1.0
C      1  0.5259620000000  0.5118900000000  0.4268270000000 1.0
C      1  0.4959150000000  0.4694640000000  0.4266550000000 1.0
C      1  0.4731370000000  0.5194600000000  0.4281000000000 1.0
C      1  0.4988860000000  0.5268030000000  0.4595580000000 1.0
C      1  0.5309080000000  0.4839160000000  0.4574520000000 1.0
C      1  0.4735570000000  0.4800520000000  0.4580730000000 1.0
C      1  0.5271630000000  0.5411920000000  0.5593980000000 1.0
C      1  0.5240990000000  0.4571650000000  0.5595860000000 1.0
C      1  0.4504410000000  0.5006710000000  0.5638430000000 1.0
C      1  0.5509310000000  0.4827160000000  0.4375970000000 1.0
C      1  0.4596400000000  0.4621470000000  0.4413920000000 1.0
C      1  0.5004370000000  0.5468640000000  0.4378430000000 1.0
C      1  0.5655880000000  0.5195800000000  0.4737740000000 1.0
C      1  0.4858380000000  0.4343800000000  0.4751340000000 1.0
C      1  0.4545100000000  0.5509440000000  0.4723950000000 1.0
C      1  0.4722970000000  0.4839880000000  0.5715980000000 1.0
C      1  0.5018740000000  0.5308310000000  0.5670930000000 1.0
C      1  0.5288920000000  0.4835960000000  0.5682270000000 1.0
C      1  0.5647190000000  0.5234440000000  0.5081060000000 1.0
C      1  0.4891370000000  0.4339180000000  0.5094440000000 1.0
C      1  0.4521000000000  0.5430050000000  0.5061060000000 1.0
C      1  0.4882830000000  0.4656930000000  0.4819450000000 1.0
C      1  0.4788450000000  0.5310170000000  0.4817870000000 1.0
C      1  0.5371760000000  0.5058420000000  0.4806900000000 1.0
C      1  0.4493360000000  0.4316470000000  0.5091460000000 1.0
C      1  0.4669510000000  0.5796270000000  0.5115940000000 1.0
C      1  0.5868460000000  0.4902710000000  0.5082140000000 1.0
C      1  0.5016840000000  0.4969580000000  0.4548800000000 1.0
C      1  0.4991860000000  0.4973290000000  0.5454490000000 1.0
C      1  0.4967590000000  0.5012140000000  0.3870560000000 1.0
C      1  0.4975590000000  0.5006500000000  0.4155240000000 1.0
C      1  0.5015330000000  0.5000890000000  0.5779450000000 1.0
C      1  0.4942080000000  0.4892670000000  0.5233600000000 1.0
C      1  0.5004830000000  0.5008480000000  0.4951350000000 1.0
END
