TITL C-2782234-8014-712 0.00323531517382554 125000 -201.565932202262 0 0 36 (Ci) n - 1
REM
REM in /home/nfs/bkarasulu/CARBON/AIRSS/Generating-Clusters/REBO/Higher-Symm/SD-CG/HFTN-CG
REM
REM
REM
REM
REM
REM ./C.cell (12c818d87b63d06a65506943cc24bca4)
REM
REM compiler GCC version 9.2.1 20190827 (Red Hat 9.2.1-1)
REM options -cpp -mtune=generic -march=x86-64 -g -O0 -fpre-include=/usr/include/finclude/math-vector-fortran.h
REM seed -1576336526 463277493 1892452926 1381914606 -1054810890 -1019291207 1419441187 526107319 1611239842 902529638 -2115748662 1422007395 1605815098 107105701 1516293230 301675514 372653669 -2080682493 -1442233323 -1680356233 564444664 -1049629359 1821918735 -1602397809 1778025673 -1941165837 960017966 -1366190920 488170154 -2073342322 -1211882392 2065626444 2044009302
REM
CELL 1.54180   50.00000   50.00000   50.00000   90.00000   90.00000   90.00000
LATT -1
SFAC C  
C      1  0.4787470000000  0.4702540000000  0.4642530000000 1.0
C      1  0.5212530000000  0.5297460000000  0.5357470000000 1.0
C      1  0.4761390000000  0.4956430000000  0.4461690000000 1.0
C      1  0.5238610000000  0.5043570000000  0.5538310000000 1.0
C      1  0.4610050000000  0.4454700000000  0.5045300000000 1.0
C      1  0.5389950000000  0.5545300000000  0.4954700000000 1.0
C      1  0.5563700000000  0.4876440000000  0.4898250000000 1.0
C      1  0.4436300000000  0.5123560000000  0.5101750000000 1.0
C      1  0.4702720000000  0.5121240000000  0.5252990000000 1.0
C      1  0.5297280000000  0.4878760000000  0.4747010000000 1.0
C      1  0.4862510000000  0.4855930000000  0.5001120000000 1.0
C      1  0.5137490000000  0.5144070000000  0.4998880000000 1.0
C      1  0.4730020000000  0.5057970000000  0.4845830000000 1.0
C      1  0.5269980000000  0.4942030000000  0.5154170000000 1.0
C      1  0.4802650000000  0.4826580000000  0.5319280000000 1.0
C      1  0.5197350000000  0.5173420000000  0.4680720000000 1.0
C      1  0.5372640000000  0.4633050000000  0.5052750000000 1.0
C      1  0.4627360000000  0.5366950000000  0.4947250000000 1.0
C      1  0.4614280000000  0.4565950000000  0.5350700000000 1.0
C      1  0.5385720000000  0.5434050000000  0.4649300000000 1.0
C      1  0.4934660000000  0.5286550000000  0.5190340000000 1.0
C      1  0.5065340000000  0.4713450000000  0.4809660000000 1.0
C      1  0.5126900000000  0.4595760000000  0.5278230000000 1.0
C      1  0.4873100000000  0.5404240000000  0.4721770000000 1.0
C      1  0.4489250000000  0.4971960000000  0.4620240000000 1.0
C      1  0.5510750000000  0.5028040000000  0.5379760000000 1.0
C      1  0.5452530000000  0.4382400000000  0.4959400000000 1.0
C      1  0.4547470000000  0.5617600000000  0.5040600000000 1.0
C      1  0.5627930000000  0.5101160000000  0.5084150000000 1.0
C      1  0.4372070000000  0.4898840000000  0.4915850000000 1.0
C      1  0.4924270000000  0.5182440000000  0.4519410000000 1.0
C      1  0.5075730000000  0.4817560000000  0.5480590000000 1.0
C      1  0.5441040000000  0.5356450000000  0.5166770000000 1.0
C      1  0.4558960000000  0.4643550000000  0.4833230000000 1.0
C      1  0.5106800000000  0.5548230000000  0.4787090000000 1.0
C      1  0.4893200000000  0.4451770000000  0.5212910000000 1.0
END
