TITL C-2782230-7391-833 -0.00064492468901626 125000 -529.893073933358 0 0 88 (C2h) n - 1
REM
REM in /home/nfs/bkarasulu/CARBON/AIRSS/Generating-Clusters/REBO/Higher-Symm/SD-CG/HFTN-CG
REM
REM
REM
REM
REM
REM ./C.cell (12c818d87b63d06a65506943cc24bca4)
REM
REM compiler GCC version 9.2.1 20190827 (Red Hat 9.2.1-1)
REM options -cpp -mtune=generic -march=x86-64 -g -O0 -fpre-include=/usr/include/finclude/math-vector-fortran.h
REM seed 1847772118 814843721 -653670295 -1146673047 1964513423 -1460535004 154973205 1616516824 -1703672374 -807215734 1343490346 1400038637 1330727934 -24951229 1320054182 940591944 88394430 -228998818 -888251614 1364786469 1503247366 1721559223 -1330215199 1189733302 -2132512549 585496959 -510932521 1511909361 200340210 -1576194760 131762483 1337296775 1238340774
REM
CELL 1.54180   50.00000   50.00000   50.00000   90.00000   90.00000   90.00000
LATT -1
SFAC C  
C      1  0.4900470000000  0.4532660000000  0.4235330000000 1.0
C      1  0.4587930000000  0.5097420000000  0.4250410000000 1.0
C      1  0.5099460000000  0.5467300000000  0.4235300000000 1.0
C      1  0.5412010000000  0.4902540000000  0.4250380000000 1.0
C      1  0.4900540000000  0.4532700000000  0.5764700000000 1.0
C      1  0.4587990000000  0.5097460000000  0.5749620000000 1.0
C      1  0.5099530000000  0.5467340000000  0.5764670000000 1.0
C      1  0.5412070000000  0.4902580000000  0.5749590000000 1.0
C      1  0.4273740000000  0.4648040000000  0.5150160000000 1.0
C      1  0.4613140000000  0.5733090000000  0.5150180000000 1.0
C      1  0.5726270000000  0.5351970000000  0.5150080000000 1.0
C      1  0.5386870000000  0.4266920000000  0.5150190000000 1.0
C      1  0.4273730000000  0.4648030000000  0.4849920000000 1.0
C      1  0.4613130000000  0.5733080000000  0.4849810000000 1.0
C      1  0.5726260000000  0.5351960000000  0.4849840000000 1.0
C      1  0.5386860000000  0.4266910000000  0.4849820000000 1.0
C      1  0.4759310000000  0.4772340000000  0.4866300000000 1.0
C      1  0.4798830000000  0.5247490000000  0.4866340000000 1.0
C      1  0.5240670000000  0.5227650000000  0.4866260000000 1.0
C      1  0.5201160000000  0.4752510000000  0.4866330000000 1.0
C      1  0.4759330000000  0.4772350000000  0.5133740000000 1.0
C      1  0.4798840000000  0.5247490000000  0.5133670000000 1.0
C      1  0.5240690000000  0.5227660000000  0.5133700000000 1.0
C      1  0.5201170000000  0.4752510000000  0.5133660000000 1.0
C      1  0.4869020000000  0.5505240000000  0.4442200000000 1.0
C      1  0.5453710000000  0.5138140000000  0.4450190000000 1.0
C      1  0.5130930000000  0.4494730000000  0.4442210000000 1.0
C      1  0.4546240000000  0.4861830000000  0.4450240000000 1.0
C      1  0.4869070000000  0.5505270000000  0.5557790000000 1.0
C      1  0.5453760000000  0.5138170000000  0.5549760000000 1.0
C      1  0.5130980000000  0.4494760000000  0.5557800000000 1.0
C      1  0.4546290000000  0.4861860000000  0.5549810000000 1.0
C      1  0.4667670000000  0.4357760000000  0.4661900000000 1.0
C      1  0.4400190000000  0.5357430000000  0.4663860000000 1.0
C      1  0.5332300000000  0.5642230000000  0.4661840000000 1.0
C      1  0.5599780000000  0.4642550000000  0.4663830000000 1.0
C      1  0.4667700000000  0.4357770000000  0.5338160000000 1.0
C      1  0.4400220000000  0.5357450000000  0.5336170000000 1.0
C      1  0.5332330000000  0.5642240000000  0.5338100000000 1.0
C      1  0.5599810000000  0.4642570000000  0.5336140000000 1.0
C      1  0.4931390000000  0.4741190000000  0.4574270000000 1.0
C      1  0.4797180000000  0.5053660000000  0.4587710000000 1.0
C      1  0.5068570000000  0.5258790000000  0.4574260000000 1.0
C      1  0.5202790000000  0.4946320000000  0.4587700000000 1.0
C      1  0.4931430000000  0.4741210000000  0.5425740000000 1.0
C      1  0.4797210000000  0.5053680000000  0.5412300000000 1.0
C      1  0.5068610000000  0.5258810000000  0.5425730000000 1.0
C      1  0.5202820000000  0.4946340000000  0.5412290000000 1.0
C      1  0.5140860000000  0.5639280000000  0.4860440000000 1.0
C      1  0.5597440000000  0.4832350000000  0.4860870000000 1.0
C      1  0.4859130000000  0.4360710000000  0.4860480000000 1.0
C      1  0.4402550000000  0.5167640000000  0.4860920000000 1.0
C      1  0.5140870000000  0.5639290000000  0.5139520000000 1.0
C      1  0.5597450000000  0.4832360000000  0.5139080000000 1.0
C      1  0.4859140000000  0.4360720000000  0.5139560000000 1.0
C      1  0.4402560000000  0.5167650000000  0.5139130000000 1.0
C      1  0.5191990000000  0.4948640000000  0.5921910000000 1.0
C      1  0.4937220000000  0.4760890000000  0.5926940000000 1.0
C      1  0.4808090000000  0.5051400000000  0.5921930000000 1.0
C      1  0.5062860000000  0.5239160000000  0.5926920000000 1.0
C      1  0.5191910000000  0.4948600000000  0.4078070000000 1.0
C      1  0.4937140000000  0.4760840000000  0.4073080000000 1.0
C      1  0.4808010000000  0.5051360000000  0.4078090000000 1.0
C      1  0.5062780000000  0.5239110000000  0.4073060000000 1.0
C      1  0.5438500000000  0.4375700000000  0.4530050000000 1.0
C      1  0.4422000000000  0.4561760000000  0.4555880000000 1.0
C      1  0.4561460000000  0.5624270000000  0.4530060000000 1.0
C      1  0.5577960000000  0.5438220000000  0.4555810000000 1.0
C      1  0.5438540000000  0.4375730000000  0.5469940000000 1.0
C      1  0.4422040000000  0.4561780000000  0.5444190000000 1.0
C      1  0.4561500000000  0.5624300000000  0.5469950000000 1.0
C      1  0.5578000000000  0.5438240000000  0.5444120000000 1.0
C      1  0.5132590000000  0.4457530000000  0.5233510000000 1.0
C      1  0.4477570000000  0.4892750000000  0.5235140000000 1.0
C      1  0.4867430000000  0.5542480000000  0.5233500000000 1.0
C      1  0.5522450000000  0.5107260000000  0.5235090000000 1.0
C      1  0.5132570000000  0.4457520000000  0.4766500000000 1.0
C      1  0.4477550000000  0.4892740000000  0.4764910000000 1.0
C      1  0.4867410000000  0.5542470000000  0.4766490000000 1.0
C      1  0.5522430000000  0.5107250000000  0.4764860000000 1.0
C      1  0.4499620000000  0.5336030000000  0.4359580000000 1.0
C      1  0.5337610000000  0.5559470000000  0.4349800000000 1.0
C      1  0.5500320000000  0.4663940000000  0.4359560000000 1.0
C      1  0.4662330000000  0.4440500000000  0.4349860000000 1.0
C      1  0.4499680000000  0.5336060000000  0.5640440000000 1.0
C      1  0.5337670000000  0.5559500000000  0.5650140000000 1.0
C      1  0.5500380000000  0.4663970000000  0.5640420000000 1.0
C      1  0.4662390000000  0.4440530000000  0.5650200000000 1.0
END
