TITL C-2782235-7892-1137 -0.0103972285425249 125000 -584.522170681929 0 0 100 (C1) n - 1
REM
REM in /home/nfs/bkarasulu/CARBON/AIRSS/Generating-Clusters/REBO/Higher-Symm/SD-CG/HFTN-CG
REM
REM
REM
REM
REM
REM ./C.cell (12c818d87b63d06a65506943cc24bca4)
REM
REM compiler GCC version 9.2.1 20190827 (Red Hat 9.2.1-1)
REM options -cpp -mtune=generic -march=x86-64 -g -O0 -fpre-include=/usr/include/finclude/math-vector-fortran.h
REM seed -749158476 -1410318922 515150725 -651225450 985906486 -1196214126 -1161723448 -1038272763 -2076268929 904768632 993132268 -691442115 -1130600702 -1759893149 -1047118785 2116495935 851878320 1211029458 2081671858 -1325225966 394057821 1069869685 -2094806547 115223261 1055582441 852895419 1093654169 806106615 -518659663 570450267 -1013079041 -1820458826 -581819569
REM
CELL 1.54180   50.00000   50.00000   50.00000   90.00000   90.00000   90.00000
LATT -1
SFAC C  
C      1  0.4294500000000  0.4641720000000  0.4790340000000 1.0
C      1  0.4271540000000  0.5372650000000  0.5215490000000 1.0
C      1  0.5709870000000  0.5360020000000  0.4788270000000 1.0
C      1  0.5735730000000  0.4631130000000  0.5236810000000 1.0
C      1  0.4827580000000  0.5324840000000  0.4612100000000 1.0
C      1  0.4842730000000  0.4681220000000  0.5406090000000 1.0
C      1  0.5163920000000  0.4705130000000  0.4600060000000 1.0
C      1  0.5194950000000  0.5288230000000  0.5424680000000 1.0
C      1  0.4811440000000  0.5000230000000  0.5396210000000 1.0
C      1  0.4776740000000  0.5010670000000  0.4515820000000 1.0
C      1  0.5101480000000  0.4991670000000  0.5377510000000 1.0
C      1  0.5069360000000  0.5007420000000  0.4600550000000 1.0
C      1  0.4689800000000  0.5146080000000  0.5047640000000 1.0
C      1  0.4700320000000  0.4910360000000  0.4893630000000 1.0
C      1  0.5323170000000  0.4862620000000  0.5072280000000 1.0
C      1  0.5306860000000  0.5090650000000  0.4911150000000 1.0
C      1  0.5336940000000  0.5799860000000  0.4745810000000 1.0
C      1  0.5353480000000  0.4216420000000  0.5246390000000 1.0
C      1  0.4663060000000  0.4206720000000  0.4757620000000 1.0
C      1  0.4647800000000  0.5760300000000  0.5234850000000 1.0
C      1  0.5579810000000  0.4869280000000  0.5752990000000 1.0
C      1  0.5576470000000  0.5111260000000  0.4287300000000 1.0
C      1  0.4425740000000  0.5121930000000  0.5779950000000 1.0
C      1  0.4431340000000  0.4889740000000  0.4244920000000 1.0
C      1  0.5500640000000  0.4844210000000  0.4251270000000 1.0
C      1  0.5510650000000  0.5139810000000  0.5775450000000 1.0
C      1  0.4511900000000  0.5157410000000  0.4225240000000 1.0
C      1  0.4511320000000  0.4856010000000  0.5772140000000 1.0
C      1  0.5514980000000  0.4354140000000  0.4750180000000 1.0
C      1  0.5511930000000  0.5685360000000  0.5241210000000 1.0
C      1  0.4480170000000  0.5651220000000  0.4734170000000 1.0
C      1  0.4494280000000  0.4312240000000  0.5256630000000 1.0
C      1  0.5668770000000  0.5101950000000  0.5290540000000 1.0
C      1  0.5660640000000  0.4909910000000  0.4647850000000 1.0
C      1  0.4351830000000  0.4903890000000  0.5278090000000 1.0
C      1  0.4333770000000  0.5094410000000  0.4655600000000 1.0
C      1  0.5325630000000  0.4301520000000  0.4551360000000 1.0
C      1  0.5309900000000  0.5727980000000  0.5432980000000 1.0
C      1  0.4668180000000  0.5713870000000  0.4536000000000 1.0
C      1  0.4692410000000  0.4261630000000  0.5451690000000 1.0
C      1  0.4528880000000  0.5737510000000  0.4995970000000 1.0
C      1  0.4536870000000  0.4224310000000  0.4994200000000 1.0
C      1  0.5470620000000  0.4256590000000  0.5008660000000 1.0
C      1  0.5468330000000  0.5772750000000  0.4978840000000 1.0
C      1  0.4659650000000  0.4710650000000  0.4280890000000 1.0
C      1  0.4650470000000  0.5298880000000  0.5717660000000 1.0
C      1  0.5343000000000  0.5281700000000  0.4317470000000 1.0
C      1  0.5342390000000  0.4711270000000  0.5696290000000 1.0
C      1  0.4454660000000  0.4863320000000  0.4750720000000 1.0
C      1  0.4442110000000  0.5155390000000  0.5197090000000 1.0
C      1  0.5546760000000  0.5139300000000  0.4756460000000 1.0
C      1  0.5567060000000  0.4850890000000  0.5221760000000 1.0
C      1  0.4924450000000  0.5665350000000  0.4428910000000 1.0
C      1  0.4941420000000  0.4329420000000  0.5566530000000 1.0
C      1  0.5072200000000  0.4350740000000  0.4440680000000 1.0
C      1  0.5066660000000  0.5646430000000  0.5547840000000 1.0
C      1  0.4956160000000  0.4609870000000  0.5709570000000 1.0
C      1  0.4950310000000  0.5381990000000  0.4297630000000 1.0
C      1  0.5068050000000  0.5382070000000  0.5713160000000 1.0
C      1  0.5049720000000  0.4623950000000  0.4292330000000 1.0
C      1  0.4112910000000  0.5636380000000  0.5176360000000 1.0
C      1  0.4095920000000  0.4400870000000  0.4826900000000 1.0
C      1  0.5892430000000  0.4368520000000  0.5187380000000 1.0
C      1  0.5911020000000  0.5600180000000  0.4814970000000 1.0
C      1  0.5219960000000  0.5273470000000  0.4570850000000 1.0
C      1  0.5237920000000  0.4726120000000  0.5435880000000 1.0
C      1  0.4765890000000  0.4697970000000  0.4563340000000 1.0
C      1  0.4729280000000  0.5280320000000  0.5445120000000 1.0
C      1  0.5463380000000  0.4678490000000  0.4522080000000 1.0
C      1  0.5495420000000  0.5276340000000  0.5503970000000 1.0
C      1  0.4516900000000  0.5313320000000  0.4495920000000 1.0
C      1  0.4528980000000  0.4735000000000  0.5495250000000 1.0
C      1  0.4939580000000  0.4690530000000  0.4856800000000 1.0
C      1  0.4952100000000  0.5308730000000  0.5184880000000 1.0
C      1  0.5048910000000  0.5300190000000  0.4869340000000 1.0
C      1  0.5062710000000  0.4668840000000  0.5145980000000 1.0
C      1  0.4889150000000  0.5159930000000  0.5898450000000 1.0
C      1  0.4887880000000  0.4849310000000  0.4095620000000 1.0
C      1  0.5125080000000  0.4838120000000  0.5899350000000 1.0
C      1  0.5130000000000  0.5165880000000  0.4103990000000 1.0
C      1  0.5887410000000  0.5369150000000  0.5065560000000 1.0
C      1  0.5934950000000  0.4585280000000  0.4934400000000 1.0
C      1  0.4125240000000  0.4636280000000  0.5072890000000 1.0
C      1  0.4060080000000  0.5422430000000  0.4922420000000 1.0
C      1  0.5229660000000  0.5157300000000  0.5908260000000 1.0
C      1  0.5227730000000  0.4841990000000  0.4103730000000 1.0
C      1  0.4789140000000  0.4837130000000  0.5899510000000 1.0
C      1  0.4790650000000  0.5167130000000  0.4097040000000 1.0
C      1  0.5687880000000  0.5443040000000  0.5295500000000 1.0
C      1  0.5727670000000  0.4588260000000  0.4718340000000 1.0
C      1  0.4327980000000  0.4563530000000  0.5301150000000 1.0
C      1  0.4266000000000  0.5419130000000  0.4701520000000 1.0
C      1  0.3955710000000  0.5141720000000  0.5014310000000 1.0
C      1  0.3975630000000  0.4906800000000  0.5083250000000 1.0
C      1  0.6051270000000  0.4862620000000  0.5016260000000 1.0
C      1  0.6037300000000  0.5099730000000  0.5079110000000 1.0
C      1  0.5152640000000  0.5771780000000  0.4551960000000 1.0
C      1  0.5175900000000  0.4234120000000  0.5446950000000 1.0
C      1  0.4843240000000  0.4245220000000  0.4562030000000 1.0
C      1  0.4827110000000  0.5730820000000  0.5431890000000 1.0
END
