TITL C-2782228-2999-1112 2.60934807515496e-05 125000 -393.217199671249 0 0 66 (C1) n - 1
REM
REM in /home/nfs/bkarasulu/CARBON/AIRSS/Generating-Clusters/REBO/Higher-Symm/SD-CG/HFTN-CG
REM
REM
REM
REM
REM
REM ./C.cell (12c818d87b63d06a65506943cc24bca4)
REM
REM compiler GCC version 9.2.1 20190827 (Red Hat 9.2.1-1)
REM options -cpp -mtune=generic -march=x86-64 -g -O0 -fpre-include=/usr/include/finclude/math-vector-fortran.h
REM seed 722780144 -319296859 2102130587 1617064923 986353732 -1877202104 -865019728 -1862996060 -2007944227 -1650868099 -1062614173 -608985497 -1405582607 1447923685 -403128773 466646523 -677406169 1910303408 -34597008 1127432290 -1884515610 -807767983 -1688287272 -1548714458 1749693781 1058434127 164310902 -366478438 545248711 1437074796 -1408155635 -1541610478 1709848459
REM
CELL 1.54180   50.00000   50.00000   50.00000   90.00000   90.00000   90.00000
LATT -1
SFAC C  
C      1  0.4911790000000  0.4642970000000  0.5276020000000 1.0
C      1  0.5207330000000  0.4668150000000  0.5151960000000 1.0
C      1  0.5183020000000  0.4643490000000  0.4840540000000 1.0
C      1  0.4881570000000  0.4602140000000  0.4764710000000 1.0
C      1  0.4709030000000  0.4607230000000  0.5031460000000 1.0
C      1  0.5008000000000  0.5374950000000  0.5281360000000 1.0
C      1  0.5205010000000  0.5401610000000  0.5021360000000 1.0
C      1  0.5130430000000  0.5343960000000  0.4739290000000 1.0
C      1  0.4841200000000  0.5287470000000  0.4661980000000 1.0
C      1  0.4783120000000  0.5248470000000  0.5021150000000 1.0
C      1  0.5242010000000  0.4757300000000  0.4339140000000 1.0
C      1  0.4411980000000  0.4725170000000  0.4617420000000 1.0
C      1  0.4419040000000  0.4676930000000  0.5425570000000 1.0
C      1  0.5204610000000  0.4724640000000  0.5663130000000 1.0
C      1  0.5688100000000  0.4742640000000  0.5050640000000 1.0
C      1  0.5314230000000  0.5289150000000  0.4298340000000 1.0
C      1  0.4370360000000  0.5261970000000  0.4625270000000 1.0
C      1  0.4439480000000  0.5206130000000  0.5383990000000 1.0
C      1  0.5238470000000  0.5264970000000  0.5684060000000 1.0
C      1  0.5691430000000  0.5275770000000  0.5043980000000 1.0
C      1  0.4586160000000  0.5444750000000  0.4658280000000 1.0
C      1  0.4588490000000  0.5393480000000  0.5235340000000 1.0
C      1  0.5155960000000  0.5481710000000  0.5518450000000 1.0
C      1  0.5511430000000  0.5491620000000  0.5041690000000 1.0
C      1  0.5256490000000  0.5488700000000  0.4494510000000 1.0
C      1  0.4583780000000  0.4505870000000  0.4666290000000 1.0
C      1  0.4547820000000  0.4477140000000  0.5274040000000 1.0
C      1  0.5094150000000  0.4515930000000  0.5503000000000 1.0
C      1  0.5491390000000  0.4541780000000  0.5073280000000 1.0
C      1  0.5198330000000  0.4548800000000  0.4526640000000 1.0
C      1  0.5281080000000  0.5917850000000  0.5016510000000 1.0
C      1  0.5118870000000  0.5893760000000  0.4768980000000 1.0
C      1  0.4837420000000  0.5855880000000  0.4851830000000 1.0
C      1  0.4829960000000  0.5845940000000  0.5145930000000 1.0
C      1  0.5101020000000  0.5894150000000  0.5249440000000 1.0
C      1  0.5235940000000  0.4113650000000  0.4980390000000 1.0
C      1  0.5061000000000  0.4112750000000  0.4742730000000 1.0
C      1  0.4782030000000  0.4083540000000  0.4836750000000 1.0
C      1  0.4788120000000  0.4067750000000  0.5131790000000 1.0
C      1  0.5067630000000  0.4090340000000  0.5220070000000 1.0
C      1  0.4586300000000  0.4198100000000  0.5284970000000 1.0
C      1  0.5133300000000  0.4239550000000  0.5455180000000 1.0
C      1  0.5471500000000  0.4270790000000  0.4999920000000 1.0
C      1  0.5136960000000  0.4270730000000  0.4516260000000 1.0
C      1  0.4571620000000  0.4223080000000  0.4699880000000 1.0
C      1  0.4641750000000  0.5668720000000  0.5262960000000 1.0
C      1  0.5185370000000  0.5762890000000  0.5491200000000 1.0
C      1  0.5528110000000  0.5774150000000  0.5030730000000 1.0
C      1  0.5231510000000  0.5769300000000  0.4535230000000 1.0
C      1  0.4631240000000  0.5717200000000  0.4713250000000 1.0
C      1  0.5354900000000  0.4870450000000  0.4705390000000 1.0
C      1  0.4816550000000  0.4796140000000  0.4521580000000 1.0
C      1  0.4493510000000  0.4835770000000  0.4995250000000 1.0
C      1  0.4805890000000  0.4899790000000  0.5408470000000 1.0
C      1  0.5328330000000  0.4933910000000  0.5259360000000 1.0
C      1  0.5322800000000  0.5108080000000  0.4654880000000 1.0
C      1  0.4816270000000  0.5041090000000  0.4500100000000 1.0
C      1  0.4507500000000  0.5083990000000  0.4995820000000 1.0
C      1  0.4849320000000  0.5139450000000  0.5399320000000 1.0
C      1  0.5345780000000  0.5173830000000  0.5217150000000 1.0
C      1  0.4390680000000  0.4946610000000  0.5446420000000 1.0
C      1  0.5242730000000  0.4991820000000  0.5709530000000 1.0
C      1  0.5288500000000  0.5016920000000  0.4267080000000 1.0
C      1  0.4344110000000  0.4989010000000  0.4611270000000 1.0
C      1  0.5740210000000  0.5009050000000  0.5044560000000 1.0
C      1  0.5007270000000  0.5054710000000  0.5041780000000 1.0
END
