TITL C-2782237-5345-321 -0.00402016078374263 125000 -868.349696746161 0 0 150 (C1) n - 1
REM
REM in /home/nfs/bkarasulu/CARBON/AIRSS/Generating-Clusters/REBO/Higher-Symm/SD-CG/HFTN-CG
REM
REM
REM
REM
REM
REM ./C.cell (12c818d87b63d06a65506943cc24bca4)
REM
REM compiler GCC version 9.2.1 20190827 (Red Hat 9.2.1-1)
REM options -cpp -mtune=generic -march=x86-64 -g -O0 -fpre-include=/usr/include/finclude/math-vector-fortran.h
REM seed 151561812 958375684 -27202923 412111519 -1048136613 -943498040 1009572512 -228976821 962725940 1267883380 1254267122 -1388842025 -1742194187 -1170927471 -1741689049 -827511682 -228715572 -117203111 718945410 -1797940335 -255366834 -687452483 1487390073 -1163271244 -1830065305 -2114819238 -936515860 180100181 -1267725851 -124744794 -1161092378 -1333548277 -1027875286
REM
CELL 1.54180   50.00000   50.00000   50.00000   90.00000   90.00000   90.00000
LATT -1
SFAC C  
C      1  0.5732360000000  0.4793290000000  0.4444800000000 1.0
C      1  0.5812710000000  0.5453020000000  0.4642020000000 1.0
C      1  0.5766350000000  0.5445260000000  0.5304090000000 1.0
C      1  0.5718750000000  0.4857250000000  0.5504380000000 1.0
C      1  0.5719390000000  0.4450670000000  0.5026730000000 1.0
C      1  0.4831870000000  0.4883450000000  0.4013830000000 1.0
C      1  0.4868910000000  0.5943160000000  0.4614300000000 1.0
C      1  0.4856990000000  0.5688720000000  0.5737320000000 1.0
C      1  0.4766430000000  0.4484490000000  0.5784340000000 1.0
C      1  0.4879430000000  0.4076890000000  0.4750230000000 1.0
C      1  0.5604340000000  0.5726110000000  0.5406540000000 1.0
C      1  0.5521080000000  0.4899570000000  0.5780360000000 1.0
C      1  0.5515990000000  0.4193060000000  0.5123510000000 1.0
C      1  0.5552550000000  0.4650120000000  0.4188220000000 1.0
C      1  0.5680940000000  0.5679060000000  0.4420670000000 1.0
C      1  0.5784830000000  0.4307690000000  0.4528600000000 1.0
C      1  0.5831550000000  0.5224760000000  0.4190010000000 1.0
C      1  0.5879430000000  0.5824440000000  0.5000050000000 1.0
C      1  0.5825400000000  0.5242690000000  0.5776070000000 1.0
C      1  0.5771530000000  0.4352680000000  0.5508390000000 1.0
C      1  0.4527380000000  0.4090790000000  0.4998480000000 1.0
C      1  0.4518200000000  0.4749300000000  0.4220340000000 1.0
C      1  0.4589680000000  0.5485080000000  0.4669550000000 1.0
C      1  0.4568150000000  0.5582430000000  0.5485530000000 1.0
C      1  0.4377310000000  0.4744210000000  0.5662460000000 1.0
C      1  0.3907520000000  0.4724710000000  0.5021110000000 1.0
C      1  0.3882490000000  0.4902360000000  0.4795520000000 1.0
C      1  0.3844610000000  0.5173820000000  0.4888400000000 1.0
C      1  0.3837740000000  0.5168680000000  0.5175500000000 1.0
C      1  0.3871840000000  0.4885410000000  0.5259950000000 1.0
C      1  0.4115980000000  0.5176240000000  0.5612850000000 1.0
C      1  0.4231570000000  0.4384360000000  0.5295700000000 1.0
C      1  0.4187590000000  0.4553260000000  0.4667950000000 1.0
C      1  0.4165980000000  0.5208050000000  0.4491050000000 1.0
C      1  0.4193960000000  0.5529470000000  0.5054540000000 1.0
C      1  0.5412120000000  0.5180420000000  0.4500870000000 1.0
C      1  0.5449300000000  0.5539080000000  0.4984800000000 1.0
C      1  0.5340920000000  0.5184870000000  0.5521800000000 1.0
C      1  0.5329220000000  0.4564350000000  0.5300730000000 1.0
C      1  0.5376020000000  0.4585130000000  0.4725770000000 1.0
C      1  0.4813980000000  0.5644870000000  0.4489860000000 1.0
C      1  0.4811790000000  0.5771940000000  0.5410190000000 1.0
C      1  0.4695050000000  0.4815360000000  0.5748260000000 1.0
C      1  0.4848270000000  0.4016650000000  0.5081970000000 1.0
C      1  0.4838960000000  0.4649940000000  0.4239180000000 1.0
C      1  0.4668670000000  0.5143540000000  0.5836750000000 1.0
C      1  0.4690070000000  0.4143830000000  0.5358160000000 1.0
C      1  0.4722310000000  0.4371420000000  0.4366470000000 1.0
C      1  0.4646650000000  0.5448570000000  0.4276020000000 1.0
C      1  0.4627050000000  0.5859930000000  0.5140050000000 1.0
C      1  0.4783040000000  0.5149820000000  0.4357550000000 1.0
C      1  0.4949060000000  0.5812940000000  0.5037420000000 1.0
C      1  0.4954220000000  0.5287980000000  0.5722570000000 1.0
C      1  0.4906010000000  0.4386150000000  0.5422750000000 1.0
C      1  0.4883860000000  0.4546700000000  0.4619960000000 1.0
C      1  0.5241810000000  0.5489090000000  0.5535500000000 1.0
C      1  0.5176980000000  0.4639030000000  0.5564820000000 1.0
C      1  0.5189140000000  0.4326480000000  0.4791440000000 1.0
C      1  0.5217070000000  0.5004050000000  0.4339940000000 1.0
C      1  0.5264510000000  0.5690230000000  0.4790410000000 1.0
C      1  0.5245360000000  0.5327250000000  0.5900690000000 1.0
C      1  0.5180600000000  0.4240960000000  0.5563910000000 1.0
C      1  0.5313530000000  0.4140970000000  0.4314480000000 1.0
C      1  0.4947940000000  0.5354910000000  0.4141870000000 1.0
C      1  0.5205240000000  0.6034100000000  0.4983440000000 1.0
C      1  0.5521330000000  0.4318580000000  0.4112000000000 1.0
C      1  0.5171150000000  0.5539540000000  0.4187680000000 1.0
C      1  0.5461940000000  0.5938610000000  0.5181890000000 1.0
C      1  0.5439620000000  0.5132950000000  0.5905360000000 1.0
C      1  0.5346750000000  0.4119670000000  0.5378890000000 1.0
C      1  0.5668890000000  0.5699560000000  0.4814580000000 1.0
C      1  0.5617980000000  0.5372180000000  0.5588800000000 1.0
C      1  0.5569040000000  0.4581030000000  0.5542220000000 1.0
C      1  0.5587250000000  0.4334450000000  0.4759360000000 1.0
C      1  0.5609500000000  0.5033400000000  0.4279330000000 1.0
C      1  0.4914940000000  0.4438410000000  0.4916950000000 1.0
C      1  0.4938700000000  0.4902050000000  0.4445960000000 1.0
C      1  0.4960470000000  0.5577540000000  0.4790700000000 1.0
C      1  0.4940290000000  0.5453220000000  0.5424980000000 1.0
C      1  0.4878850000000  0.4721210000000  0.5483370000000 1.0
C      1  0.4510620000000  0.5520020000000  0.4969400000000 1.0
C      1  0.4391380000000  0.5347070000000  0.5593100000000 1.0
C      1  0.4343340000000  0.4482910000000  0.5540660000000 1.0
C      1  0.4382920000000  0.4293500000000  0.4768750000000 1.0
C      1  0.4400840000000  0.5039370000000  0.4322060000000 1.0
C      1  0.5080080000000  0.4437810000000  0.5812680000000 1.0
C      1  0.5174960000000  0.4064910000000  0.4584000000000 1.0
C      1  0.5072410000000  0.5064040000000  0.4042150000000 1.0
C      1  0.5165690000000  0.5992980000000  0.4672890000000 1.0
C      1  0.5150620000000  0.5642760000000  0.5821100000000 1.0
C      1  0.4917220000000  0.5283590000000  0.4878040000000 1.0
C      1  0.4961770000000  0.5234380000000  0.5191080000000 1.0
C      1  0.4944810000000  0.4895170000000  0.5227640000000 1.0
C      1  0.4777430000000  0.4837320000000  0.4973240000000 1.0
C      1  0.4860480000000  0.5018690000000  0.4755700000000 1.0
C      1  0.5167550000000  0.4039200000000  0.5123350000000 1.0
C      1  0.5276430000000  0.4476850000000  0.4271730000000 1.0
C      1  0.5418890000000  0.5732030000000  0.4229350000000 1.0
C      1  0.5379870000000  0.5962900000000  0.5511810000000 1.0
C      1  0.5066660000000  0.4835680000000  0.5894090000000 1.0
C      1  0.4362970000000  0.4126610000000  0.5265440000000 1.0
C      1  0.4395100000000  0.4447840000000  0.4419430000000 1.0
C      1  0.4353930000000  0.5434010000000  0.4319950000000 1.0
C      1  0.4326100000000  0.5804000000000  0.5176140000000 1.0
C      1  0.4344230000000  0.5033630000000  0.5829490000000 1.0
C      1  0.4591360000000  0.4698670000000  0.4549080000000 1.0
C      1  0.4554200000000  0.5202560000000  0.4576200000000 1.0
C      1  0.4615900000000  0.5387370000000  0.5235740000000 1.0
C      1  0.4473170000000  0.5038320000000  0.5506980000000 1.0
C      1  0.4626540000000  0.4408810000000  0.4978790000000 1.0
C      1  0.5813520000000  0.5193620000000  0.4822210000000 1.0
C      1  0.5792980000000  0.5205000000000  0.5115350000000 1.0
C      1  0.5762190000000  0.4936370000000  0.5215680000000 1.0
C      1  0.5760120000000  0.4752450000000  0.4993570000000 1.0
C      1  0.5780100000000  0.4906160000000  0.4742860000000 1.0
C      1  0.5161380000000  0.4598900000000  0.4504770000000 1.0
C      1  0.5376590000000  0.5462220000000  0.4429710000000 1.0
C      1  0.5129130000000  0.5949180000000  0.5294260000000 1.0
C      1  0.5119750000000  0.5007890000000  0.5702200000000 1.0
C      1  0.5107590000000  0.4367310000000  0.5177280000000 1.0
C      1  0.5268940000000  0.4823870000000  0.5152160000000 1.0
C      1  0.5386830000000  0.4831800000000  0.4873850000000 1.0
C      1  0.5428080000000  0.5095550000000  0.4787410000000 1.0
C      1  0.5413630000000  0.5267310000000  0.5006130000000 1.0
C      1  0.5266940000000  0.5130090000000  0.5233090000000 1.0
C      1  0.4080060000000  0.5346020000000  0.4789710000000 1.0
C      1  0.4096440000000  0.5308590000000  0.5296350000000 1.0
C      1  0.4104700000000  0.4906630000000  0.5424930000000 1.0
C      1  0.4161510000000  0.4537880000000  0.5009630000000 1.0
C      1  0.4122860000000  0.4884050000000  0.4600370000000 1.0
C      1  0.4469390000000  0.4696420000000  0.5020240000000 1.0
C      1  0.4424730000000  0.4863630000000  0.4739180000000 1.0
C      1  0.4360040000000  0.5173960000000  0.4838670000000 1.0
C      1  0.4378810000000  0.5188950000000  0.5149020000000 1.0
C      1  0.4380640000000  0.4884860000000  0.5248650000000 1.0
C      1  0.5861550000000  0.4506390000000  0.4396490000000 1.0
C      1  0.5938540000000  0.5385070000000  0.4351220000000 1.0
C      1  0.5948110000000  0.5696420000000  0.5206810000000 1.0
C      1  0.5900170000000  0.5008540000000  0.5718810000000 1.0
C      1  0.5864650000000  0.4311460000000  0.5277390000000 1.0
C      1  0.4673460000000  0.4207450000000  0.4636620000000 1.0
C      1  0.4550540000000  0.5025660000000  0.4019200000000 1.0
C      1  0.4627750000000  0.5798200000000  0.4805290000000 1.0
C      1  0.4616470000000  0.5478960000000  0.5807630000000 1.0
C      1  0.4570520000000  0.4324230000000  0.5622810000000 1.0
C      1  0.5474060000000  0.5875410000000  0.4596890000000 1.0
C      1  0.5476000000000  0.5654450000000  0.5715010000000 1.0
C      1  0.5380890000000  0.4601330000000  0.5825320000000 1.0
C      1  0.5408550000000  0.4065290000000  0.4828520000000 1.0
C      1  0.5377990000000  0.4911960000000  0.4061540000000 1.0
END
