TITL C-2782228-2999-787 0.00170335852132148 125000 -358.796816054753 0 0 60 (C1) n - 1
REM
REM in /home/nfs/bkarasulu/CARBON/AIRSS/Generating-Clusters/REBO/Higher-Symm/SD-CG/HFTN-CG
REM
REM
REM
REM
REM
REM ./C.cell (12c818d87b63d06a65506943cc24bca4)
REM
REM compiler GCC version 9.2.1 20190827 (Red Hat 9.2.1-1)
REM options -cpp -mtune=generic -march=x86-64 -g -O0 -fpre-include=/usr/include/finclude/math-vector-fortran.h
REM seed -585532278 1616724457 -1960511872 -1517111472 -262657408 555604387 -224467627 951455290 589951912 1807734635 901192508 1196517266 -2129171013 -389208553 -428029818 1675446320 2025870720 -1816317518 1973731373 1016233247 -515017625 -491252502 250211498 -191873542 154529217 879336381 -643373792 -2080480955 2135431596 -657033089 -1101715163 -1771705911 -1044822789
REM
CELL 1.54180   50.00000   50.00000   50.00000   90.00000   90.00000   90.00000
LATT -1
SFAC C  
C      1  0.5245530000000  0.5532600000000  0.5155270000000 1.0
C      1  0.4746130000000  0.5573740000000  0.5156500000000 1.0
C      1  0.4991240000000  0.5554620000000  0.4717560000000 1.0
C      1  0.5252940000000  0.4426430000000  0.5156330000000 1.0
C      1  0.4748400000000  0.4464630000000  0.5155280000000 1.0
C      1  0.5005260000000  0.4444560000000  0.4724450000000 1.0
C      1  0.5238270000000  0.5549260000000  0.4866970000000 1.0
C      1  0.4741910000000  0.5562130000000  0.4863380000000 1.0
C      1  0.4998490000000  0.5553140000000  0.5308530000000 1.0
C      1  0.5256010000000  0.4443370000000  0.4864740000000 1.0
C      1  0.4753700000000  0.4454340000000  0.4865280000000 1.0
C      1  0.4998910000000  0.4448020000000  0.5306870000000 1.0
C      1  0.4516960000000  0.4849720000000  0.5542650000000 1.0
C      1  0.4811960000000  0.4837640000000  0.4318160000000 1.0
C      1  0.5711190000000  0.4826020000000  0.5162660000000 1.0
C      1  0.4487790000000  0.5166090000000  0.5525540000000 1.0
C      1  0.4774790000000  0.5153860000000  0.4321930000000 1.0
C      1  0.5697220000000  0.5136110000000  0.5126400000000 1.0
C      1  0.4551220000000  0.4862970000000  0.4472380000000 1.0
C      1  0.4774150000000  0.4820190000000  0.5706410000000 1.0
C      1  0.5704350000000  0.4848460000000  0.4853140000000 1.0
C      1  0.4506160000000  0.5169800000000  0.4477560000000 1.0
C      1  0.4753750000000  0.5138690000000  0.5675380000000 1.0
C      1  0.5697830000000  0.5165830000000  0.4823390000000 1.0
C      1  0.5035060000000  0.4843290000000  0.5293300000000 1.0
C      1  0.4762310000000  0.4849590000000  0.4816450000000 1.0
C      1  0.5305150000000  0.4838970000000  0.4848780000000 1.0
C      1  0.4970600000000  0.5157700000000  0.5288620000000 1.0
C      1  0.4697190000000  0.5166570000000  0.4841230000000 1.0
C      1  0.5244130000000  0.5154530000000  0.4810810000000 1.0
C      1  0.5040010000000  0.4838980000000  0.4675340000000 1.0
C      1  0.4759630000000  0.4861710000000  0.5128290000000 1.0
C      1  0.5311560000000  0.4819810000000  0.5158640000000 1.0
C      1  0.4966670000000  0.5159440000000  0.4672100000000 1.0
C      1  0.4694000000000  0.5179320000000  0.5152150000000 1.0
C      1  0.5245000000000  0.5135210000000  0.5123030000000 1.0
C      1  0.5213100000000  0.5135280000000  0.4344180000000 1.0
C      1  0.5483480000000  0.5150970000000  0.5540860000000 1.0
C      1  0.4294560000000  0.5166830000000  0.5167130000000 1.0
C      1  0.5210250000000  0.4825020000000  0.4314180000000 1.0
C      1  0.5511380000000  0.4834160000000  0.5521110000000 1.0
C      1  0.4295090000000  0.4857170000000  0.5131330000000 1.0
C      1  0.5225390000000  0.5178320000000  0.5704350000000 1.0
C      1  0.5480660000000  0.5162480000000  0.4488480000000 1.0
C      1  0.4298570000000  0.5145880000000  0.4858620000000 1.0
C      1  0.5246110000000  0.4861370000000  0.5671160000000 1.0
C      1  0.5463470000000  0.4856140000000  0.4480720000000 1.0
C      1  0.4285850000000  0.4826460000000  0.4828680000000 1.0
C      1  0.4991460000000  0.5372060000000  0.4429700000000 1.0
C      1  0.5473450000000  0.5307280000000  0.5270590000000 1.0
C      1  0.4493690000000  0.5392730000000  0.5291890000000 1.0
C      1  0.5010290000000  0.4607950000000  0.4438510000000 1.0
C      1  0.5510250000000  0.4601910000000  0.5292270000000 1.0
C      1  0.4525890000000  0.4694890000000  0.5271530000000 1.0
C      1  0.4990380000000  0.5322330000000  0.5560790000000 1.0
C      1  0.5474560000000  0.5376630000000  0.4722690000000 1.0
C      1  0.4489140000000  0.5382340000000  0.4722220000000 1.0
C      1  0.5008180000000  0.4675130000000  0.5562400000000 1.0
C      1  0.5504900000000  0.4624050000000  0.4716790000000 1.0
C      1  0.4524450000000  0.4655220000000  0.4714300000000 1.0
END
