TITL C-2782238-9940-610 0.000651791138059806 125000 -357.403234260939 0 0 63 (C1) n - 1
REM
REM in /home/nfs/bkarasulu/CARBON/AIRSS/Generating-Clusters/REBO/Higher-Symm/SD-CG/HFTN-CG
REM
REM
REM
REM
REM
REM ./C.cell (12c818d87b63d06a65506943cc24bca4)
REM
REM compiler GCC version 9.2.1 20190827 (Red Hat 9.2.1-1)
REM options -cpp -mtune=generic -march=x86-64 -g -O0 -fpre-include=/usr/include/finclude/math-vector-fortran.h
REM seed -1222452017 81356305 1266917936 -1628485952 1161769129 452150062 -1137451169 493868509 -623689238 729547706 -996804567 -599102042 115188344 619265698 -1852740535 421129999 -1837865223 93260759 1414021999 46343036 -937193492 1734775452 -1703772476 395655873 522088974 -562490764 -129654465 -230202752 1579135165 1787272925 -752203211 828178707 370046893
REM
CELL 1.54180   50.00000   50.00000   50.00000   90.00000   90.00000   90.00000
LATT -1
SFAC C  
C      1  0.4670420000000  0.5143390000000  0.4710070000000 1.0
C      1  0.4943060000000  0.5089750000000  0.4805980000000 1.0
C      1  0.5028800000000  0.4813270000000  0.4709430000000 1.0
C      1  0.4743230000000  0.4892630000000  0.4265440000000 1.0
C      1  0.4945230000000  0.5303450000000  0.4468550000000 1.0
C      1  0.5315420000000  0.4813280000000  0.4544320000000 1.0
C      1  0.4961880000000  0.4729640000000  0.5163010000000 1.0
C      1  0.4827240000000  0.5025290000000  0.5264550000000 1.0
C      1  0.5172430000000  0.4972400000000  0.5220520000000 1.0
C      1  0.4798550000000  0.4654270000000  0.5407250000000 1.0
C      1  0.4795350000000  0.5348130000000  0.5167390000000 1.0
C      1  0.5461660000000  0.4901090000000  0.5228230000000 1.0
C      1  0.5549580000000  0.4725050000000  0.4691500000000 1.0
C      1  0.4561860000000  0.4696860000000  0.4176870000000 1.0
C      1  0.4890010000000  0.5527630000000  0.4644740000000 1.0
C      1  0.4310800000000  0.4550610000000  0.4943410000000 1.0
C      1  0.5354860000000  0.5648750000000  0.5109160000000 1.0
C      1  0.5439500000000  0.4249700000000  0.4907620000000 1.0
C      1  0.4644700000000  0.5149820000000  0.5734000000000 1.0
C      1  0.5377540000000  0.5542110000000  0.5389910000000 1.0
C      1  0.5403080000000  0.4607500000000  0.5671650000000 1.0
C      1  0.5168720000000  0.5547850000000  0.4930080000000 1.0
C      1  0.5235400000000  0.4402890000000  0.4906820000000 1.0
C      1  0.4364550000000  0.4802660000000  0.4895860000000 1.0
C      1  0.5458890000000  0.5319450000000  0.5549880000000 1.0
C      1  0.5160270000000  0.4694030000000  0.5789230000000 1.0
C      1  0.4726630000000  0.5452070000000  0.5697540000000 1.0
C      1  0.4355410000000  0.4611770000000  0.4371630000000 1.0
C      1  0.4747650000000  0.5494160000000  0.4906890000000 1.0
C      1  0.5594770000000  0.4834480000000  0.4964890000000 1.0
C      1  0.4271020000000  0.5549350000000  0.4968060000000 1.0
C      1  0.5690060000000  0.5193020000000  0.4817460000000 1.0
C      1  0.4535570000000  0.4307600000000  0.4709110000000 1.0
C      1  0.4640550000000  0.4439280000000  0.4055370000000 1.0
C      1  0.4789850000000  0.5781610000000  0.4535490000000 1.0
C      1  0.5804920000000  0.4671910000000  0.4565040000000 1.0
C      1  0.4947460000000  0.5239420000000  0.5845200000000 1.0
C      1  0.5270000000000  0.5233440000000  0.5737540000000 1.0
C      1  0.5141910000000  0.4966070000000  0.5847970000000 1.0
C      1  0.4737950000000  0.4418560000000  0.4844060000000 1.0
C      1  0.4249340000000  0.5278420000000  0.4931620000000 1.0
C      1  0.5422380000000  0.5194920000000  0.4768210000000 1.0
C      1  0.4776270000000  0.5549920000000  0.5442260000000 1.0
C      1  0.5623930000000  0.5117160000000  0.5430620000000 1.0
C      1  0.4922940000000  0.4563140000000  0.5710100000000 1.0
C      1  0.5577720000000  0.4728220000000  0.5488950000000 1.0
C      1  0.4641710000000  0.4937120000000  0.5529350000000 1.0
C      1  0.5124410000000  0.5280830000000  0.5223980000000 1.0
C      1  0.4601720000000  0.4635260000000  0.5682440000000 1.0
C      1  0.5065010000000  0.5560180000000  0.5369210000000 1.0
C      1  0.5806700000000  0.4917370000000  0.5587860000000 1.0
C      1  0.6007990000000  0.4817060000000  0.4698020000000 1.0
C      1  0.4548080000000  0.4224480000000  0.4217540000000 1.0
C      1  0.4566570000000  0.5868210000000  0.4686470000000 1.0
C      1  0.4514120000000  0.5676390000000  0.4898940000000 1.0
C      1  0.5877750000000  0.4973930000000  0.4907850000000 1.0
C      1  0.4411120000000  0.4333070000000  0.4457060000000 1.0
C      1  0.4988890000000  0.4587920000000  0.4905850000000 1.0
C      1  0.4421830000000  0.5071330000000  0.4845180000000 1.0
C      1  0.5158170000000  0.5282200000000  0.4825760000000 1.0
C      1  0.4681530000000  0.5146350000000  0.4395350000000 1.0
C      1  0.5154950000000  0.5105350000000  0.4467070000000 1.0
C      1  0.5020070000000  0.4806920000000  0.4368600000000 1.0
END
