TITL C-2782228-2999-1368 -0.000913063289131029 125000 -829.024929032394 0 0 143 (C1) n - 1
REM
REM in /home/nfs/bkarasulu/CARBON/AIRSS/Generating-Clusters/REBO/Higher-Symm/SD-CG/HFTN-CG
REM
REM
REM
REM
REM
REM ./C.cell (12c818d87b63d06a65506943cc24bca4)
REM
REM compiler GCC version 9.2.1 20190827 (Red Hat 9.2.1-1)
REM options -cpp -mtune=generic -march=x86-64 -g -O0 -fpre-include=/usr/include/finclude/math-vector-fortran.h
REM seed 1897648237 963170164 1361785481 -592765718 -707604999 -1030551466 -2100333729 -1099222082 283827335 -542819213 -1634067829 239920004 -1956943440 1800497235 -1142333330 568943675 907736515 1318185605 85486142 -198322235 1486517934 -1020229012 1720588780 -1845554446 -675363776 -1895428350 -1303254837 -1877282913 1371494522 -1654336639 1211767491 4430801 -462244136
REM
CELL 1.54180   50.00000   50.00000   50.00000   90.00000   90.00000   90.00000
LATT -1
SFAC C  
C      1  0.5400110000000  0.4442350000000  0.5687140000000 1.0
C      1  0.5428070000000  0.5858590000000  0.5150130000000 1.0
C      1  0.5570090000000  0.4538800000000  0.4204860000000 1.0
C      1  0.4543350000000  0.4544130000000  0.4324850000000 1.0
C      1  0.4609020000000  0.5877890000000  0.4874430000000 1.0
C      1  0.4596630000000  0.4696370000000  0.5806260000000 1.0
C      1  0.4514280000000  0.5257350000000  0.5002470000000 1.0
C      1  0.4497220000000  0.4846700000000  0.4793090000000 1.0
C      1  0.4507700000000  0.4878540000000  0.5210080000000 1.0
C      1  0.5505950000000  0.5243140000000  0.5012700000000 1.0
C      1  0.5489120000000  0.4880360000000  0.5225360000000 1.0
C      1  0.5506330000000  0.4894860000000  0.4776770000000 1.0
C      1  0.5369180000000  0.5491520000000  0.5293130000000 1.0
C      1  0.5379750000000  0.5002410000000  0.4414980000000 1.0
C      1  0.5376720000000  0.4504710000000  0.5294230000000 1.0
C      1  0.4645690000000  0.5510960000000  0.4724510000000 1.0
C      1  0.4654020000000  0.5003490000000  0.5559700000000 1.0
C      1  0.4725120000000  0.4534570000000  0.4693090000000 1.0
C      1  0.4221290000000  0.4593710000000  0.5436230000000 1.0
C      1  0.4229030000000  0.5567300000000  0.5117240000000 1.0
C      1  0.4249290000000  0.4700530000000  0.4449000000000 1.0
C      1  0.5755580000000  0.4597880000000  0.4488150000000 1.0
C      1  0.5799030000000  0.5576870000000  0.4878310000000 1.0
C      1  0.5778590000000  0.4818460000000  0.5561570000000 1.0
C      1  0.4746500000000  0.5289910000000  0.5704840000000 1.0
C      1  0.4707310000000  0.5524910000000  0.4407120000000 1.0
C      1  0.4756000000000  0.4262940000000  0.4877290000000 1.0
C      1  0.5267290000000  0.5275150000000  0.4295040000000 1.0
C      1  0.5269420000000  0.5499400000000  0.5609080000000 1.0
C      1  0.5285260000000  0.4254980000000  0.5081940000000 1.0
C      1  0.4930160000000  0.5306130000000  0.5185480000000 1.0
C      1  0.4924420000000  0.5027370000000  0.4616940000000 1.0
C      1  0.4927750000000  0.4688410000000  0.5152160000000 1.0
C      1  0.5088970000000  0.5324670000000  0.4822980000000 1.0
C      1  0.5081850000000  0.4986200000000  0.5365080000000 1.0
C      1  0.5091260000000  0.4695940000000  0.4788810000000 1.0
C      1  0.5660590000000  0.4531850000000  0.5483360000000 1.0
C      1  0.5661280000000  0.5603650000000  0.5157280000000 1.0
C      1  0.5643370000000  0.4858390000000  0.4300260000000 1.0
C      1  0.4399160000000  0.4472290000000  0.4618050000000 1.0
C      1  0.4356490000000  0.5645530000000  0.4838220000000 1.0
C      1  0.4363790000000  0.4824980000000  0.5591390000000 1.0
C      1  0.4452420000000  0.5253600000000  0.5809590000000 1.0
C      1  0.4412230000000  0.5634780000000  0.4413150000000 1.0
C      1  0.4461230000000  0.4143160000000  0.4828830000000 1.0
C      1  0.5567810000000  0.5264350000000  0.4179130000000 1.0
C      1  0.5567390000000  0.5585640000000  0.5638320000000 1.0
C      1  0.5562960000000  0.4163650000000  0.5202890000000 1.0
C      1  0.5085540000000  0.4018910000000  0.4619580000000 1.0
C      1  0.5133170000000  0.5189930000000  0.5984240000000 1.0
C      1  0.5127510000000  0.5749280000000  0.4331860000000 1.0
C      1  0.4915380000000  0.4048750000000  0.5333560000000 1.0
C      1  0.4868320000000  0.5079880000000  0.4088930000000 1.0
C      1  0.4886350000000  0.5799840000000  0.5662000000000 1.0
C      1  0.4779990000000  0.4784670000000  0.4898630000000 1.0
C      1  0.4769280000000  0.5040660000000  0.5250400000000 1.0
C      1  0.4771350000000  0.5222620000000  0.4828190000000 1.0
C      1  0.5239580000000  0.4739330000000  0.5091820000000 1.0
C      1  0.5241750000000  0.5056410000000  0.4713230000000 1.0
C      1  0.5239050000000  0.5211350000000  0.5174990000000 1.0
C      1  0.5249180000000  0.4397690000000  0.4797590000000 1.0
C      1  0.5214210000000  0.5197000000000  0.5592690000000 1.0
C      1  0.5229950000000  0.5431020000000  0.4549710000000 1.0
C      1  0.4802220000000  0.4391160000000  0.5161390000000 1.0
C      1  0.4711120000000  0.5207530000000  0.4433320000000 1.0
C      1  0.4797080000000  0.5460020000000  0.5444070000000 1.0
C      1  0.5063730000000  0.4409800000000  0.5667620000000 1.0
C      1  0.5089430000000  0.5867560000000  0.5185530000000 1.0
C      1  0.5303260000000  0.4716860000000  0.4148360000000 1.0
C      1  0.4836140000000  0.4369530000000  0.4349310000000 1.0
C      1  0.4942940000000  0.5843260000000  0.4815600000000 1.0
C      1  0.4929490000000  0.4762940000000  0.5793420000000 1.0
C      1  0.5507450000000  0.5765140000000  0.4831020000000 1.0
C      1  0.5476110000000  0.4376540000000  0.4469740000000 1.0
C      1  0.5487490000000  0.4767750000000  0.5747330000000 1.0
C      1  0.4514060000000  0.5762470000000  0.5181380000000 1.0
C      1  0.4510900000000  0.4458400000000  0.5577060000000 1.0
C      1  0.4417820000000  0.4836990000000  0.4202260000000 1.0
C      1  0.4159150000000  0.4503970000000  0.5111220000000 1.0
C      1  0.4162730000000  0.5322690000000  0.5352450000000 1.0
C      1  0.4166590000000  0.5209980000000  0.4602760000000 1.0
C      1  0.5828400000000  0.4565030000000  0.4992320000000 1.0
C      1  0.5857430000000  0.5335860000000  0.4641520000000 1.0
C      1  0.5846960000000  0.5145300000000  0.5473150000000 1.0
C      1  0.5980490000000  0.4908560000000  0.5295730000000 1.0
C      1  0.5995150000000  0.5301190000000  0.4947050000000 1.0
C      1  0.5904010000000  0.4725040000000  0.4734620000000 1.0
C      1  0.4085230000000  0.4902070000000  0.4632560000000 1.0
C      1  0.4025810000000  0.5293030000000  0.5060790000000 1.0
C      1  0.4020580000000  0.4786710000000  0.5234110000000 1.0
C      1  0.5612240000000  0.5778580000000  0.5427820000000 1.0
C      1  0.5476690000000  0.4986520000000  0.4031330000000 1.0
C      1  0.5569570000000  0.4217180000000  0.5491830000000 1.0
C      1  0.4403930000000  0.5874810000000  0.4600940000000 1.0
C      1  0.4412440000000  0.4976560000000  0.5876430000000 1.0
C      1  0.4589870000000  0.4205860000000  0.4519880000000 1.0
C      1  0.4425110000000  0.5598690000000  0.5461050000000 1.0
C      1  0.4411590000000  0.5151470000000  0.4293440000000 1.0
C      1  0.4441340000000  0.4295150000000  0.5292920000000 1.0
C      1  0.5585530000000  0.5604960000000  0.4543980000000 1.0
C      1  0.5567230000000  0.5098910000000  0.5750370000000 1.0
C      1  0.5641330000000  0.4341570000000  0.4745120000000 1.0
C      1  0.4836550000000  0.5575650000000  0.4998460000000 1.0
C      1  0.4850280000000  0.4748480000000  0.4476100000000 1.0
C      1  0.4816400000000  0.4715020000000  0.5474440000000 1.0
C      1  0.5175260000000  0.5576810000000  0.5031100000000 1.0
C      1  0.5156350000000  0.4674900000000  0.5475990000000 1.0
C      1  0.5170830000000  0.4753780000000  0.4462700000000 1.0
C      1  0.5757250000000  0.5216060000000  0.5154010000000 1.0
C      1  0.5783970000000  0.5039550000000  0.4734820000000 1.0
C      1  0.5732470000000  0.4763240000000  0.5168400000000 1.0
C      1  0.4271330000000  0.5257730000000  0.4867160000000 1.0
C      1  0.4256170000000  0.5013140000000  0.5257060000000 1.0
C      1  0.4222090000000  0.4732840000000  0.4895420000000 1.0
C      1  0.5192430000000  0.4929050000000  0.5802560000000 1.0
C      1  0.5214010000000  0.5754550000000  0.4654730000000 1.0
C      1  0.5144040000000  0.4304120000000  0.4485460000000 1.0
C      1  0.4736580000000  0.4873290000000  0.4211340000000 1.0
C      1  0.4813770000000  0.5780310000000  0.5347430000000 1.0
C      1  0.4806750000000  0.4310170000000  0.5491580000000 1.0
C      1  0.4276960000000  0.5407610000000  0.5646500000000 1.0
C      1  0.4242860000000  0.5403730000000  0.4383600000000 1.0
C      1  0.4291460000000  0.4212770000000  0.5041420000000 1.0
C      1  0.5734260000000  0.5414390000000  0.4351280000000 1.0
C      1  0.5725880000000  0.5354630000000  0.5691890000000 1.0
C      1  0.5759380000000  0.4260730000000  0.5019350000000 1.0
C      1  0.4939030000000  0.5574260000000  0.4228950000000 1.0
C      1  0.4949110000000  0.4030320000000  0.4854470000000 1.0
C      1  0.4954320000000  0.5380550000000  0.5901320000000 1.0
C      1  0.5058400000000  0.5624690000000  0.5783060000000 1.0
C      1  0.5073590000000  0.4044770000000  0.5111270000000 1.0
C      1  0.5025360000000  0.5314050000000  0.4125700000000 1.0
C      1  0.5465160000000  0.5033700000000  0.5450590000000 1.0
C      1  0.5479670000000  0.5371740000000  0.4767810000000 1.0
C      1  0.5484290000000  0.4630270000000  0.4778710000000 1.0
C      1  0.4497070000000  0.4988280000000  0.4573950000000 1.0
C      1  0.4544980000000  0.5370800000000  0.5250710000000 1.0
C      1  0.4542870000000  0.4604170000000  0.5205230000000 1.0
C      1  0.4958850000000  0.4486320000000  0.5949590000000 1.0
C      1  0.5009000000000  0.6097700000000  0.4991400000000 1.0
C      1  0.5045600000000  0.4525070000000  0.4160110000000 1.0
C      1  0.3996020000000  0.4982730000000  0.4956080000000 1.0
C      1  0.6014730000000  0.4960160000000  0.4967710000000 1.0
END
