TITL C-2782228-2999-1234 0.00144734935638538 125000 -1046.01221810077 0 0 181 (C1) n - 1
REM
REM in /home/nfs/bkarasulu/CARBON/AIRSS/Generating-Clusters/REBO/Higher-Symm/SD-CG/HFTN-CG
REM
REM
REM
REM
REM
REM ./C.cell (12c818d87b63d06a65506943cc24bca4)
REM
REM compiler GCC version 9.2.1 20190827 (Red Hat 9.2.1-1)
REM options -cpp -mtune=generic -march=x86-64 -g -O0 -fpre-include=/usr/include/finclude/math-vector-fortran.h
REM seed 1688613820 26984171 -1977011349 1981396706 -255660695 432990562 197400287 -1082005322 1569334999 -1126001392 -1806076404 2094350512 -973595122 -1361678780 -2073857202 972800313 571944888 2040101640 -1967240847 1272958123 -1690534722 1831184899 12518513 1484852706 -1359100909 1232889870 -1097916566 1695474447 -315920315 1053060460 -2101971137 1803349409 -804682147
REM
CELL 1.54180   50.00000   50.00000   50.00000   90.00000   90.00000   90.00000
LATT -1
SFAC C  
C      1  0.5069560000000  0.5667020000000  0.4701020000000 1.0
C      1  0.5586250000000  0.4554470000000  0.4585890000000 1.0
C      1  0.4349650000000  0.4662210000000  0.4602810000000 1.0
C      1  0.4626540000000  0.5481920000000  0.5181630000000 1.0
C      1  0.5594700000000  0.5058520000000  0.5201150000000 1.0
C      1  0.4778750000000  0.4468200000000  0.5147390000000 1.0
C      1  0.6020020000000  0.4721550000000  0.5055050000000 1.0
C      1  0.4268020000000  0.4286090000000  0.5067490000000 1.0
C      1  0.4764920000000  0.6056090000000  0.5067740000000 1.0
C      1  0.5184720000000  0.3841180000000  0.5189300000000 1.0
C      1  0.4085230000000  0.5357750000000  0.5144520000000 1.0
C      1  0.5812160000000  0.5710370000000  0.5118820000000 1.0
C      1  0.5406860000000  0.5412100000000  0.4366230000000 1.0
C      1  0.5123120000000  0.4523660000000  0.4311590000000 1.0
C      1  0.4471970000000  0.5142900000000  0.4310910000000 1.0
C      1  0.5371770000000  0.4197390000000  0.4891380000000 1.0
C      1  0.4194990000000  0.5095860000000  0.5002450000000 1.0
C      1  0.5504320000000  0.5668490000000  0.5018570000000 1.0
C      1  0.4235330000000  0.6013850000000  0.4479960000000 1.0
C      1  0.6242750000000  0.5200610000000  0.4439370000000 1.0
C      1  0.4443000000000  0.3880860000000  0.4503870000000 1.0
C      1  0.5829480000000  0.4371040000000  0.5383320000000 1.0
C      1  0.4101810000000  0.4569450000000  0.5464000000000 1.0
C      1  0.5133340000000  0.6006250000000  0.5419540000000 1.0
C      1  0.4316920000000  0.5414110000000  0.4304040000000 1.0
C      1  0.5783710000000  0.5350630000000  0.4253060000000 1.0
C      1  0.4883810000000  0.3939370000000  0.4305040000000 1.0
C      1  0.5259340000000  0.4468540000000  0.4623890000000 1.0
C      1  0.4349940000000  0.4987610000000  0.4533660000000 1.0
C      1  0.5371180000000  0.5509560000000  0.4679700000000 1.0
C      1  0.5112870000000  0.5385830000000  0.4260210000000 1.0
C      1  0.5251220000000  0.4814210000000  0.4278250000000 1.0
C      1  0.4652540000000  0.4893980000000  0.4201920000000 1.0
C      1  0.4457260000000  0.5607540000000  0.4164230000000 1.0
C      1  0.5680300000000  0.5111330000000  0.4155150000000 1.0
C      1  0.5039710000000  0.4050740000000  0.4099100000000 1.0
C      1  0.4045980000000  0.4890360000000  0.4483930000000 1.0
C      1  0.5377940000000  0.5792190000000  0.4482260000000 1.0
C      1  0.5385360000000  0.4243570000000  0.4408150000000 1.0
C      1  0.3911840000000  0.4792710000000  0.5343240000000 1.0
C      1  0.5438410000000  0.5907130000000  0.5385990000000 1.0
C      1  0.5613020000000  0.4136350000000  0.5309880000000 1.0
C      1  0.5255410000000  0.4862070000000  0.5125520000000 1.0
C      1  0.4735680000000  0.4913320000000  0.5071220000000 1.0
C      1  0.5074720000000  0.5236250000000  0.5243630000000 1.0
C      1  0.4345190000000  0.5087630000000  0.5394400000000 1.0
C      1  0.5385500000000  0.5596150000000  0.5417560000000 1.0
C      1  0.5344440000000  0.4342210000000  0.5302260000000 1.0
C      1  0.5848010000000  0.4859490000000  0.4265200000000 1.0
C      1  0.4478420000000  0.4317980000000  0.4245110000000 1.0
C      1  0.4714980000000  0.5762980000000  0.4308740000000 1.0
C      1  0.5217760000000  0.4259740000000  0.4157050000000 1.0
C      1  0.3936870000000  0.4798830000000  0.4264100000000 1.0
C      1  0.5527320000000  0.5652070000000  0.4209300000000 1.0
C      1  0.4849900000000  0.4592690000000  0.4447730000000 1.0
C      1  0.4694290000000  0.5310690000000  0.4479020000000 1.0
C      1  0.5429610000000  0.5100730000000  0.4492820000000 1.0
C      1  0.4195610000000  0.5651960000000  0.4725020000000 1.0
C      1  0.5998670000000  0.5400720000000  0.4684900000000 1.0
C      1  0.4838300000000  0.3833690000000  0.4755460000000 1.0
C      1  0.3947120000000  0.4647450000000  0.4972220000000 1.0
C      1  0.5273830000000  0.6104490000000  0.4923170000000 1.0
C      1  0.5885200000000  0.4288650000000  0.4892150000000 1.0
C      1  0.5118740000000  0.5223650000000  0.4565450000000 1.0
C      1  0.5070100000000  0.4828720000000  0.4559200000000 1.0
C      1  0.4781020000000  0.4982490000000  0.4504880000000 1.0
C      1  0.5484490000000  0.4010070000000  0.4557830000000 1.0
C      1  0.3905480000000  0.4929550000000  0.4780620000000 1.0
C      1  0.5505510000000  0.6013300000000  0.4697970000000 1.0
C      1  0.5331300000000  0.5600890000000  0.5750800000000 1.0
C      1  0.5512720000000  0.4371500000000  0.5775750000000 1.0
C      1  0.4263610000000  0.4986590000000  0.5708720000000 1.0
C      1  0.4625140000000  0.4066140000000  0.4396070000000 1.0
C      1  0.4434530000000  0.5850960000000  0.4476450000000 1.0
C      1  0.6014540000000  0.5080100000000  0.4447030000000 1.0
C      1  0.5387730000000  0.5189320000000  0.5691370000000 1.0
C      1  0.4958460000000  0.4648800000000  0.5587300000000 1.0
C      1  0.4658710000000  0.5169660000000  0.5627720000000 1.0
C      1  0.4580830000000  0.5588000000000  0.4640810000000 1.0
C      1  0.5733430000000  0.5038200000000  0.4634210000000 1.0
C      1  0.4696660000000  0.4337830000000  0.4585220000000 1.0
C      1  0.5208210000000  0.4833610000000  0.5677810000000 1.0
C      1  0.4608860000000  0.4834600000000  0.5582440000000 1.0
C      1  0.5086500000000  0.5265900000000  0.5574080000000 1.0
C      1  0.4804240000000  0.5320260000000  0.5392690000000 1.0
C      1  0.5361050000000  0.4975160000000  0.5428290000000 1.0
C      1  0.4804330000000  0.4729050000000  0.5324510000000 1.0
C      1  0.4453100000000  0.4887390000000  0.5222630000000 1.0
C      1  0.5116990000000  0.5545680000000  0.5291020000000 1.0
C      1  0.5435480000000  0.4626380000000  0.5249280000000 1.0
C      1  0.4466010000000  0.5094990000000  0.4825420000000 1.0
C      1  0.5484180000000  0.5349810000000  0.4952020000000 1.0
C      1  0.5095420000000  0.4393290000000  0.4914000000000 1.0
C      1  0.4588530000000  0.5927800000000  0.5544460000000 1.0
C      1  0.6074420000000  0.4921770000000  0.5527290000000 1.0
C      1  0.4433500000000  0.4178450000000  0.5572210000000 1.0
C      1  0.6042120000000  0.4856480000000  0.4811350000000 1.0
C      1  0.4369550000000  0.4166240000000  0.4827250000000 1.0
C      1  0.4622990000000  0.6004580000000  0.4826520000000 1.0
C      1  0.5694110000000  0.4663120000000  0.5309570000000 1.0
C      1  0.4428400000000  0.4614130000000  0.5387230000000 1.0
C      1  0.4959610000000  0.5756790000000  0.5300600000000 1.0
C      1  0.5960380000000  0.4450830000000  0.5100260000000 1.0
C      1  0.4050630000000  0.4450430000000  0.5158820000000 1.0
C      1  0.5037210000000  0.6119210000000  0.5128230000000 1.0
C      1  0.5278110000000  0.5235570000000  0.3852440000000 1.0
C      1  0.5095690000000  0.4890000000000  0.3937390000000 1.0
C      1  0.4813080000000  0.5249160000000  0.3903360000000 1.0
C      1  0.4672610000000  0.4825290000000  0.4771880000000 1.0
C      1  0.4951280000000  0.5226190000000  0.4772350000000 1.0
C      1  0.5261290000000  0.4870660000000  0.4789890000000 1.0
C      1  0.5232490000000  0.4517680000000  0.5699660000000 1.0
C      1  0.4557030000000  0.4993260000000  0.5881520000000 1.0
C      1  0.5162860000000  0.5350420000000  0.5889070000000 1.0
C      1  0.5079220000000  0.5792040000000  0.5679460000000 1.0
C      1  0.5742460000000  0.4494500000000  0.5668440000000 1.0
C      1  0.4244510000000  0.4667740000000  0.5734770000000 1.0
C      1  0.5169850000000  0.4954620000000  0.5928650000000 1.0
C      1  0.4917190000000  0.4924710000000  0.6596860000000 1.0
C      1  0.4493940000000  0.5349940000000  0.6224210000000 1.0
C      1  0.4652660000000  0.5359310000000  0.4871570000000 1.0
C      1  0.5526180000000  0.5044690000000  0.4876320000000 1.0
C      1  0.4789110000000  0.4520570000000  0.4834510000000 1.0
C      1  0.5064980000000  0.5366070000000  0.3969270000000 1.0
C      1  0.5402550000000  0.5009550000000  0.4044380000000 1.0
C      1  0.4827660000000  0.4969450000000  0.3966290000000 1.0
C      1  0.4474970000000  0.4523950000000  0.5794710000000 1.0
C      1  0.4836590000000  0.5667370000000  0.5717510000000 1.0
C      1  0.5747140000000  0.4774480000000  0.5700640000000 1.0
C      1  0.4362680000000  0.5896840000000  0.4866230000000 1.0
C      1  0.6062660000000  0.5134680000000  0.4839680000000 1.0
C      1  0.4589850000000  0.3988930000000  0.4874840000000 1.0
C      1  0.5691020000000  0.5751370000000  0.4579640000000 1.0
C      1  0.5292190000000  0.3802680000000  0.4563830000000 1.0
C      1  0.3964760000000  0.5238260000000  0.4648820000000 1.0
C      1  0.4722620000000  0.4456070000000  0.5713790000000 1.0
C      1  0.4629660000000  0.5492760000000  0.5706130000000 1.0
C      1  0.5678910000000  0.5028530000000  0.5677030000000 1.0
C      1  0.4299340000000  0.5824500000000  0.5188030000000 1.0
C      1  0.6024730000000  0.5227920000000  0.5159640000000 1.0
C      1  0.4676450000000  0.4013800000000  0.5195730000000 1.0
C      1  0.4914400000000  0.3972690000000  0.5403990000000 1.0
C      1  0.4137790000000  0.5724910000000  0.5441410000000 1.0
C      1  0.5939980000000  0.5496550000000  0.5350630000000 1.0
C      1  0.5642290000000  0.5563560000000  0.5761180000000 1.0
C      1  0.5234550000000  0.4192450000000  0.5727290000000 1.0
C      1  0.4118810000000  0.5268500000000  0.5667600000000 1.0
C      1  0.4936470000000  0.4252920000000  0.5571010000000 1.0
C      1  0.4322200000000  0.5541910000000  0.5649590000000 1.0
C      1  0.5740250000000  0.5312600000000  0.5555440000000 1.0
C      1  0.5994300000000  0.5504300000000  0.4963250000000 1.0
C      1  0.4921450000000  0.3839720000000  0.5037450000000 1.0
C      1  0.4156320000000  0.5590690000000  0.5010480000000 1.0
C      1  0.4136940000000  0.5444850000000  0.4536890000000 1.0
C      1  0.5840020000000  0.5524250000000  0.4482830000000 1.0
C      1  0.5006560000000  0.3815550000000  0.4529100000000 1.0
C      1  0.4018290000000  0.5427370000000  0.5419990000000 1.0
C      1  0.5894140000000  0.5669620000000  0.5632190000000 1.0
C      1  0.5246660000000  0.4042850000000  0.5444200000000 1.0
C      1  0.4515550000000  0.4303270000000  0.5277120000000 1.0
C      1  0.4631850000000  0.5814680000000  0.5263660000000 1.0
C      1  0.5902790000000  0.4934800000000  0.5285210000000 1.0
C      1  0.5563680000000  0.5379750000000  0.5284080000000 1.0
C      1  0.5033860000000  0.4318010000000  0.5247140000000 1.0
C      1  0.4408710000000  0.5358930000000  0.5379500000000 1.0
C      1  0.4798770000000  0.5853210000000  0.4630720000000 1.0
C      1  0.5875400000000  0.4731220000000  0.4580340000000 1.0
C      1  0.4368050000000  0.4342110000000  0.4567890000000 1.0
C      1  0.4913310000000  0.5535770000000  0.4427500000000 1.0
C      1  0.5546520000000  0.4803950000000  0.4372450000000 1.0
C      1  0.4548810000000  0.4617050000000  0.4340960000000 1.0
C      1  0.4879940000000  0.5029740000000  0.6366370000000 1.0
C      1  0.4669900000000  0.5121090000000  0.6123780000000 1.0
C      1  0.5004830000000  0.5172340000000  0.6095000000000 1.0
C      1  0.5266720000000  0.5798060000000  0.4932540000000 1.0
C      1  0.5626600000000  0.4274940000000  0.4723380000000 1.0
C      1  0.4206540000000  0.4792260000000  0.4847890000000 1.0
C      1  0.5671270000000  0.5962220000000  0.5250880000000 1.0
C      1  0.5431310000000  0.4012230000000  0.5094410000000 1.0
C      1  0.3959030000000  0.4981460000000  0.5191900000000 1.0
C      1  0.5002180000000  0.5056560000000  0.5024720000000 1.0
END
