TITL C-2782228-2999-1344 -0.0076364296193387 125000 -680.342433591024 0 0 118 (C1) n - 1
REM
REM in /home/nfs/bkarasulu/CARBON/AIRSS/Generating-Clusters/REBO/Higher-Symm/SD-CG/HFTN-CG
REM
REM
REM
REM
REM
REM ./C.cell (12c818d87b63d06a65506943cc24bca4)
REM
REM compiler GCC version 9.2.1 20190827 (Red Hat 9.2.1-1)
REM options -cpp -mtune=generic -march=x86-64 -g -O0 -fpre-include=/usr/include/finclude/math-vector-fortran.h
REM seed 79292852 532641390 1797445929 271487918 -1214523575 -213780825 -756665377 -1890696084 -769802013 191255468 1039431168 1587713018 -1841427477 -1189338707 999682277 -137685444 -2068131115 1594785428 -1629645346 -830062336 -147118711 -1587901110 -452874124 -1149464020 1186263352 1314329794 1027925318 -124797972 812140534 -211483827 1368084323 1000074475 -387639850
REM
CELL 1.54180   50.00000   50.00000   50.00000   90.00000   90.00000   90.00000
LATT -1
SFAC C  
C      1  0.5965140000000  0.5071470000000  0.4595080000000 1.0
C      1  0.4522430000000  0.4254680000000  0.5267510000000 1.0
C      1  0.4246610000000  0.5073960000000  0.4623070000000 1.0
C      1  0.4438790000000  0.4336380000000  0.4729520000000 1.0
C      1  0.4056490000000  0.4763140000000  0.5444930000000 1.0
C      1  0.4943020000000  0.4662480000000  0.5387280000000 1.0
C      1  0.4868670000000  0.4359850000000  0.4784100000000 1.0
C      1  0.4533560000000  0.5663270000000  0.4611600000000 1.0
C      1  0.4927870000000  0.5176750000000  0.4268640000000 1.0
C      1  0.5662610000000  0.5246310000000  0.5085580000000 1.0
C      1  0.5250510000000  0.4650640000000  0.4430020000000 1.0
C      1  0.4610940000000  0.4325670000000  0.5570930000000 1.0
C      1  0.4299070000000  0.5123800000000  0.5458650000000 1.0
C      1  0.4494570000000  0.4549240000000  0.5705190000000 1.0
C      1  0.4909240000000  0.4323310000000  0.5589780000000 1.0
C      1  0.5749560000000  0.4438180000000  0.5028940000000 1.0
C      1  0.5065470000000  0.5567090000000  0.5108210000000 1.0
C      1  0.4989550000000  0.4605410000000  0.4634940000000 1.0
C      1  0.4386450000000  0.5313200000000  0.5717100000000 1.0
C      1  0.4907600000000  0.5749510000000  0.5558310000000 1.0
C      1  0.5472970000000  0.5689930000000  0.4677890000000 1.0
C      1  0.4940600000000  0.5047380000000  0.5702510000000 1.0
C      1  0.4432030000000  0.4172180000000  0.4953010000000 1.0
C      1  0.4082880000000  0.5316700000000  0.5640000000000 1.0
C      1  0.4070810000000  0.5074240000000  0.4978490000000 1.0
C      1  0.4464760000000  0.4954110000000  0.4278790000000 1.0
C      1  0.5698010000000  0.4934960000000  0.4778540000000 1.0
C      1  0.5304300000000  0.5203650000000  0.5678500000000 1.0
C      1  0.5426040000000  0.5149110000000  0.4234170000000 1.0
C      1  0.4664270000000  0.5763700000000  0.4867560000000 1.0
C      1  0.4774250000000  0.4936420000000  0.5363060000000 1.0
C      1  0.5560820000000  0.5320950000000  0.4801980000000 1.0
C      1  0.4714550000000  0.4744390000000  0.5828270000000 1.0
C      1  0.5292800000000  0.4523810000000  0.4882610000000 1.0
C      1  0.5632410000000  0.4363230000000  0.5318670000000 1.0
C      1  0.4517980000000  0.5268070000000  0.4665760000000 1.0
C      1  0.4544490000000  0.4929110000000  0.5593300000000 1.0
C      1  0.5138310000000  0.5955620000000  0.5072480000000 1.0
C      1  0.4837450000000  0.5658430000000  0.4510340000000 1.0
C      1  0.5046560000000  0.4255740000000  0.5301880000000 1.0
C      1  0.5539510000000  0.4275660000000  0.4488740000000 1.0
C      1  0.5965220000000  0.4672870000000  0.4916460000000 1.0
C      1  0.4333380000000  0.5141930000000  0.5161950000000 1.0
C      1  0.5466340000000  0.5444850000000  0.4250420000000 1.0
C      1  0.4986330000000  0.5600800000000  0.5784510000000 1.0
C      1  0.4973790000000  0.5766900000000  0.4869590000000 1.0
C      1  0.4571220000000  0.4620230000000  0.4295150000000 1.0
C      1  0.5635760000000  0.5549050000000  0.4482640000000 1.0
C      1  0.4552050000000  0.4706530000000  0.4602520000000 1.0
C      1  0.4599970000000  0.5400860000000  0.5308120000000 1.0
C      1  0.5820430000000  0.5330100000000  0.4597630000000 1.0
C      1  0.4109860000000  0.4812970000000  0.5185050000000 1.0
C      1  0.5163840000000  0.5048970000000  0.4171020000000 1.0
C      1  0.4563460000000  0.5315230000000  0.4980000000000 1.0
C      1  0.4857540000000  0.4666360000000  0.4143510000000 1.0
C      1  0.5039370000000  0.4104550000000  0.4693330000000 1.0
C      1  0.5363710000000  0.5113810000000  0.4655630000000 1.0
C      1  0.5539400000000  0.5610720000000  0.4978860000000 1.0
C      1  0.4634670000000  0.4576870000000  0.5261540000000 1.0
C      1  0.5567040000000  0.4688750000000  0.4883220000000 1.0
C      1  0.4598670000000  0.4945580000000  0.5114820000000 1.0
C      1  0.4808740000000  0.4874840000000  0.4666880000000 1.0
C      1  0.5740720000000  0.4930740000000  0.5572620000000 1.0
C      1  0.4047270000000  0.4879840000000  0.4452570000000 1.0
C      1  0.4547460000000  0.5752270000000  0.5128000000000 1.0
C      1  0.4105140000000  0.4809860000000  0.4764740000000 1.0
C      1  0.5861390000000  0.5378310000000  0.5362560000000 1.0
C      1  0.4383930000000  0.4708970000000  0.5091940000000 1.0
C      1  0.5992700000000  0.4741050000000  0.4598530000000 1.0
C      1  0.4317570000000  0.5553320000000  0.5184550000000 1.0
C      1  0.5120780000000  0.5787870000000  0.5365200000000 1.0
C      1  0.5268820000000  0.5394040000000  0.4508470000000 1.0
C      1  0.5023430000000  0.5270940000000  0.5001310000000 1.0
C      1  0.5217870000000  0.4878420000000  0.5698750000000 1.0
C      1  0.5531720000000  0.4534150000000  0.4403300000000 1.0
C      1  0.4290260000000  0.5450690000000  0.4503770000000 1.0
C      1  0.5998000000000  0.5313720000000  0.5067390000000 1.0
C      1  0.4795850000000  0.4257000000000  0.5092020000000 1.0
C      1  0.5450390000000  0.4716090000000  0.5197710000000 1.0
C      1  0.6194390000000  0.5468310000000  0.4958540000000 1.0
C      1  0.4584520000000  0.4331140000000  0.4478840000000 1.0
C      1  0.4738080000000  0.5052510000000  0.5946030000000 1.0
C      1  0.5597830000000  0.5558920000000  0.5310970000000 1.0
C      1  0.4093580000000  0.5336220000000  0.4758180000000 1.0
C      1  0.4345200000000  0.5211610000000  0.4265140000000 1.0
C      1  0.4847350000000  0.4590140000000  0.5007630000000 1.0
C      1  0.5178130000000  0.4222240000000  0.4994540000000 1.0
C      1  0.5340270000000  0.4986400000000  0.5334680000000 1.0
C      1  0.5207740000000  0.4864450000000  0.4691760000000 1.0
C      1  0.5143320000000  0.5692470000000  0.4612200000000 1.0
C      1  0.4779570000000  0.5063500000000  0.4887780000000 1.0
C      1  0.5535750000000  0.4485150000000  0.5512700000000 1.0
C      1  0.5345890000000  0.4232000000000  0.4709940000000 1.0
C      1  0.4766040000000  0.5343990000000  0.4512990000000 1.0
C      1  0.4338790000000  0.4619460000000  0.4804770000000 1.0
C      1  0.5598900000000  0.5004930000000  0.4455660000000 1.0
C      1  0.4793570000000  0.4142880000000  0.4460420000000 1.0
C      1  0.4270520000000  0.4723850000000  0.5617020000000 1.0
C      1  0.4856820000000  0.5300140000000  0.5507140000000 1.0
C      1  0.5432550000000  0.5293590000000  0.5387010000000 1.0
C      1  0.5059330000000  0.5001320000000  0.5187980000000 1.0
C      1  0.5158530000000  0.5390870000000  0.5811390000000 1.0
C      1  0.5411120000000  0.5806880000000  0.5206440000000 1.0
C      1  0.5733780000000  0.4723220000000  0.4441930000000 1.0
C      1  0.5958640000000  0.5004190000000  0.4987530000000 1.0
C      1  0.5486540000000  0.4769560000000  0.5590920000000 1.0
C      1  0.4742950000000  0.4971280000000  0.4375500000000 1.0
C      1  0.4110340000000  0.5489100000000  0.5032450000000 1.0
C      1  0.5219140000000  0.4534330000000  0.5273760000000 1.0
C      1  0.5115090000000  0.5388360000000  0.5371880000000 1.0
C      1  0.5020570000000  0.5311340000000  0.4687850000000 1.0
C      1  0.4981640000000  0.4633870000000  0.5710730000000 1.0
C      1  0.5115190000000  0.4762130000000  0.4181840000000 1.0
C      1  0.4651550000000  0.5302260000000  0.5780540000000 1.0
C      1  0.5789900000000  0.4726340000000  0.5211370000000 1.0
C      1  0.5875860000000  0.5031620000000  0.5320330000000 1.0
C      1  0.4670050000000  0.5715350000000  0.5417050000000 1.0
C      1  0.5082920000000  0.4772350000000  0.4984320000000 1.0
END
