TITL C-2782231-7322-900 0.00015884940878869 125000 -1100.76130534569 0 0 188 (C1) n - 1
REM
REM in /home/nfs/bkarasulu/CARBON/AIRSS/Generating-Clusters/REBO/Higher-Symm/SD-CG/HFTN-CG
REM
REM
REM
REM
REM
REM ./C.cell (12c818d87b63d06a65506943cc24bca4)
REM
REM compiler GCC version 9.2.1 20190827 (Red Hat 9.2.1-1)
REM options -cpp -mtune=generic -march=x86-64 -g -O0 -fpre-include=/usr/include/finclude/math-vector-fortran.h
REM seed -2032426503 2021142629 2080304301 1639608698 2089335292 1692236710 -1806980352 1279497527 -286752033 1936740288 -1746047744 1102354104 -15585014 997767569 -870414598 1390045334 -1876108914 266463856 1341880852 -69267794 -1457952658 84180676 -779666797 -2121111054 2106767686 626586234 -1492385853 -1820928704 -1444499871 -192165685 -1260589425 1454203432 -254960931
REM
CELL 1.54180   50.00000   50.00000   50.00000   90.00000   90.00000   90.00000
LATT -1
SFAC C  
C      1  0.4217650000000  0.5469070000000  0.4621140000000 1.0
C      1  0.5218270000000  0.5919830000000  0.4645900000000 1.0
C      1  0.6054250000000  0.5161330000000  0.4602540000000 1.0
C      1  0.5336290000000  0.4152660000000  0.4618000000000 1.0
C      1  0.4364990000000  0.4376490000000  0.4633520000000 1.0
C      1  0.4096960000000  0.5635160000000  0.5370350000000 1.0
C      1  0.5365810000000  0.6047180000000  0.5360110000000 1.0
C      1  0.6056950000000  0.5109840000000  0.5335320000000 1.0
C      1  0.5367630000000  0.3980980000000  0.5399240000000 1.0
C      1  0.4099820000000  0.4324400000000  0.5388430000000 1.0
C      1  0.5046800000000  0.5997350000000  0.5263750000000 1.0
C      1  0.5976660000000  0.5383380000000  0.5173690000000 1.0
C      1  0.5579220000000  0.4159450000000  0.5219600000000 1.0
C      1  0.4378680000000  0.4184720000000  0.5261040000000 1.0
C      1  0.4043900000000  0.5330820000000  0.5238490000000 1.0
C      1  0.5615080000000  0.5970100000000  0.4855100000000 1.0
C      1  0.5991460000000  0.4718960000000  0.4952680000000 1.0
C      1  0.4989940000000  0.3891390000000  0.4917630000000 1.0
C      1  0.3955360000000  0.4651840000000  0.4916370000000 1.0
C      1  0.4367420000000  0.5880250000000  0.4927170000000 1.0
C      1  0.5423150000000  0.5578870000000  0.4647550000000 1.0
C      1  0.5612720000000  0.4813010000000  0.4664360000000 1.0
C      1  0.4962320000000  0.4289840000000  0.4615100000000 1.0
C      1  0.4348920000000  0.4773870000000  0.4644460000000 1.0
C      1  0.4606420000000  0.5555160000000  0.4650030000000 1.0
C      1  0.5900400000000  0.5011500000000  0.5049440000000 1.0
C      1  0.5233300000000  0.4036080000000  0.5085880000000 1.0
C      1  0.4169290000000  0.4470200000000  0.5088010000000 1.0
C      1  0.4273780000000  0.5607130000000  0.5079080000000 1.0
C      1  0.5365200000000  0.5906540000000  0.5049740000000 1.0
C      1  0.5002890000000  0.4254800000000  0.3968650000000 1.0
C      1  0.4321610000000  0.4769990000000  0.4010460000000 1.0
C      1  0.4601970000000  0.5612600000000  0.4024220000000 1.0
C      1  0.5447440000000  0.5639270000000  0.3998440000000 1.0
C      1  0.5709150000000  0.4767350000000  0.4033990000000 1.0
C      1  0.4569740000000  0.5635280000000  0.5469860000000 1.0
C      1  0.5544830000000  0.5581350000000  0.5418970000000 1.0
C      1  0.5663030000000  0.4820450000000  0.5435210000000 1.0
C      1  0.4929820000000  0.4184760000000  0.5492860000000 1.0
C      1  0.4224760000000  0.4802250000000  0.5478440000000 1.0
C      1  0.5876060000000  0.4433100000000  0.4507010000000 1.0
C      1  0.4715530000000  0.3946960000000  0.4439400000000 1.0
C      1  0.3938270000000  0.4936620000000  0.4456410000000 1.0
C      1  0.4637200000000  0.6003410000000  0.4472990000000 1.0
C      1  0.5782830000000  0.5783340000000  0.4386020000000 1.0
C      1  0.4657440000000  0.4676150000000  0.4206380000000 1.0
C      1  0.4592990000000  0.5258200000000  0.4208350000000 1.0
C      1  0.5146790000000  0.5476230000000  0.4204590000000 1.0
C      1  0.5513270000000  0.5064260000000  0.4215890000000 1.0
C      1  0.5185640000000  0.4548650000000  0.4168960000000 1.0
C      1  0.4718440000000  0.5300900000000  0.5034310000000 1.0
C      1  0.5211790000000  0.5392780000000  0.5058680000000 1.0
C      1  0.5344570000000  0.4869140000000  0.5002030000000 1.0
C      1  0.5041000000000  0.4519040000000  0.5084690000000 1.0
C      1  0.4579270000000  0.4814990000000  0.5042970000000 1.0
C      1  0.5732260000000  0.5518340000000  0.4245670000000 1.0
C      1  0.5670200000000  0.4479240000000  0.4303320000000 1.0
C      1  0.4736020000000  0.4168370000000  0.4253590000000 1.0
C      1  0.4155140000000  0.5014210000000  0.4276540000000 1.0
C      1  0.4794070000000  0.5830790000000  0.4294510000000 1.0
C      1  0.4796360000000  0.5201820000000  0.4475220000000 1.0
C      1  0.5117970000000  0.5266270000000  0.4439840000000 1.0
C      1  0.5281680000000  0.4981390000000  0.4451550000000 1.0
C      1  0.5067600000000  0.4761600000000  0.4366390000000 1.0
C      1  0.4775550000000  0.4862030000000  0.4466710000000 1.0
C      1  0.5606930000000  0.5100860000000  0.5970900000000 1.0
C      1  0.5290080000000  0.4457080000000  0.5991750000000 1.0
C      1  0.4576650000000  0.4539600000000  0.5995980000000 1.0
C      1  0.4434690000000  0.5244150000000  0.5977710000000 1.0
C      1  0.5094380000000  0.5607250000000  0.5964870000000 1.0
C      1  0.4908420000000  0.4709950000000  0.4842290000000 1.0
C      1  0.4659960000000  0.4988890000000  0.4761820000000 1.0
C      1  0.4912100000000  0.5328270000000  0.4771400000000 1.0
C      1  0.5243050000000  0.5234090000000  0.4757970000000 1.0
C      1  0.5219210000000  0.4797120000000  0.4731530000000 1.0
C      1  0.4733110000000  0.5435840000000  0.3857500000000 1.0
C      1  0.5340340000000  0.5428420000000  0.3856320000000 1.0
C      1  0.5510350000000  0.4839370000000  0.3855140000000 1.0
C      1  0.4991880000000  0.4489670000000  0.3824360000000 1.0
C      1  0.4529530000000  0.4860930000000  0.3854480000000 1.0
C      1  0.5397230000000  0.5610600000000  0.5145030000000 1.0
C      1  0.5616120000000  0.4968060000000  0.5169040000000 1.0
C      1  0.5090870000000  0.4265550000000  0.5247960000000 1.0
C      1  0.4348220000000  0.4688280000000  0.5226850000000 1.0
C      1  0.4532630000000  0.5497540000000  0.5213860000000 1.0
C      1  0.5217280000000  0.4721430000000  0.3895960000000 1.0
C      1  0.4819510000000  0.4735360000000  0.3933740000000 1.0
C      1  0.4702480000000  0.5117780000000  0.3938550000000 1.0
C      1  0.5030640000000  0.5349840000000  0.3930320000000 1.0
C      1  0.5355240000000  0.5116620000000  0.3938100000000 1.0
C      1  0.4370770000000  0.4271030000000  0.4931400000000 1.0
C      1  0.4144190000000  0.5353690000000  0.4913320000000 1.0
C      1  0.5056740000000  0.5951390000000  0.4926660000000 1.0
C      1  0.5903970000000  0.5208420000000  0.4822040000000 1.0
C      1  0.5455130000000  0.4210220000000  0.4908740000000 1.0
C      1  0.5508650000000  0.4664270000000  0.5661260000000 1.0
C      1  0.4862030000000  0.4403230000000  0.5668090000000 1.0
C      1  0.4402320000000  0.4928840000000  0.5663460000000 1.0
C      1  0.4756570000000  0.5520100000000  0.5652500000000 1.0
C      1  0.5451400000000  0.5386090000000  0.5614680000000 1.0
C      1  0.5632180000000  0.5862270000000  0.5343730000000 1.0
C      1  0.5965720000000  0.4795000000000  0.5425720000000 1.0
C      1  0.5042830000000  0.3906240000000  0.5412130000000 1.0
C      1  0.3988780000000  0.4622940000000  0.5410470000000 1.0
C      1  0.4344550000000  0.5833970000000  0.5426430000000 1.0
C      1  0.5229930000000  0.4728600000000  0.5482460000000 1.0
C      1  0.4817810000000  0.4677470000000  0.5493310000000 1.0
C      1  0.4654160000000  0.5048260000000  0.5488170000000 1.0
C      1  0.4951590000000  0.5315420000000  0.5478490000000 1.0
C      1  0.5300070000000  0.5121190000000  0.5483710000000 1.0
C      1  0.5352610000000  0.4681690000000  0.6205330000000 1.0
C      1  0.4807120000000  0.4564760000000  0.6215590000000 1.0
C      1  0.4524920000000  0.5042450000000  0.6206980000000 1.0
C      1  0.4909280000000  0.5464970000000  0.6177290000000 1.0
C      1  0.5414070000000  0.5233620000000  0.6182080000000 1.0
C      1  0.4424500000000  0.4313540000000  0.5839110000000 1.0
C      1  0.4175400000000  0.5317890000000  0.5819390000000 1.0
C      1  0.5108660000000  0.5887790000000  0.5829710000000 1.0
C      1  0.5882340000000  0.5174080000000  0.5855270000000 1.0
C      1  0.5439280000000  0.4209160000000  0.5885280000000 1.0
C      1  0.5430560000000  0.5602770000000  0.4331990000000 1.0
C      1  0.5616940000000  0.4785520000000  0.4357290000000 1.0
C      1  0.5022020000000  0.4289840000000  0.4294790000000 1.0
C      1  0.4371830000000  0.4794780000000  0.4336610000000 1.0
C      1  0.4654840000000  0.5553910000000  0.4348340000000 1.0
C      1  0.5064220000000  0.5790900000000  0.4230770000000 1.0
C      1  0.5768160000000  0.5245790000000  0.4221880000000 1.0
C      1  0.5437690000000  0.4352020000000  0.4214860000000 1.0
C      1  0.4548860000000  0.4373330000000  0.4212040000000 1.0
C      1  0.4277570000000  0.5257940000000  0.4215580000000 1.0
C      1  0.5508050000000  0.4542550000000  0.4842700000000 1.0
C      1  0.4699760000000  0.4298680000000  0.4831990000000 1.0
C      1  0.4274600000000  0.5044830000000  0.4836690000000 1.0
C      1  0.4826020000000  0.5707000000000  0.4858500000000 1.0
C      1  0.5630030000000  0.5399790000000  0.4796030000000 1.0
C      1  0.4938710000000  0.5458710000000  0.5196590000000 1.0
C      1  0.5335330000000  0.5140230000000  0.5175040000000 1.0
C      1  0.5314020000000  0.4630040000000  0.5197830000000 1.0
C      1  0.4742510000000  0.4574810000000  0.5200550000000 1.0
C      1  0.4527310000000  0.5088100000000  0.5201820000000 1.0
C      1  0.4077860000000  0.5415910000000  0.5613500000000 1.0
C      1  0.5183480000000  0.6006650000000  0.5626460000000 1.0
C      1  0.6018340000000  0.5159290000000  0.5650930000000 1.0
C      1  0.5448430000000  0.4055070000000  0.5693170000000 1.0
C      1  0.4301100000000  0.4249980000000  0.5634080000000 1.0
C      1  0.4853580000000  0.3953910000000  0.5177270000000 1.0
C      1  0.3971390000000  0.4806790000000  0.5171630000000 1.0
C      1  0.4515100000000  0.5907420000000  0.5185840000000 1.0
C      1  0.5754590000000  0.5822880000000  0.5081060000000 1.0
C      1  0.5897470000000  0.4598610000000  0.5201900000000 1.0
C      1  0.4689610000000  0.4238130000000  0.5166450000000 1.0
C      1  0.4189220000000  0.5049020000000  0.5164440000000 1.0
C      1  0.4816180000000  0.5777000000000  0.5189310000000 1.0
C      1  0.5819580000000  0.5544550000000  0.5021360000000 1.0
C      1  0.5609500000000  0.4476900000000  0.5161800000000 1.0
C      1  0.4029850000000  0.4771810000000  0.4678160000000 1.0
C      1  0.4500110000000  0.5857220000000  0.4684530000000 1.0
C      1  0.5608500000000  0.5836310000000  0.4607540000000 1.0
C      1  0.5875140000000  0.4633940000000  0.4714400000000 1.0
C      1  0.4885980000000  0.3980570000000  0.4677990000000 1.0
C      1  0.5534620000000  0.5092480000000  0.4737880000000 1.0
C      1  0.5210970000000  0.4457110000000  0.4713110000000 1.0
C      1  0.4613760000000  0.4596230000000  0.4717220000000 1.0
C      1  0.4482630000000  0.5276050000000  0.4718510000000 1.0
C      1  0.5112560000000  0.5606600000000  0.4736790000000 1.0
C      1  0.4958730000000  0.4424420000000  0.5983440000000 1.0
C      1  0.4437660000000  0.4844740000000  0.5981670000000 1.0
C      1  0.4681480000000  0.5472070000000  0.5968730000000 1.0
C      1  0.5379770000000  0.5428760000000  0.5941550000000 1.0
C      1  0.5531900000000  0.4774770000000  0.5969730000000 1.0
C      1  0.4653550000000  0.4736250000000  0.5740160000000 1.0
C      1  0.4662020000000  0.5222090000000  0.5737780000000 1.0
C      1  0.5135440000000  0.5408590000000  0.5704510000000 1.0
C      1  0.5431440000000  0.4985130000000  0.5716540000000 1.0
C      1  0.5124300000000  0.4589050000000  0.5734650000000 1.0
C      1  0.5376960000000  0.4116200000000  0.4356000000000 1.0
C      1  0.4319280000000  0.4345000000000  0.4372030000000 1.0
C      1  0.4172240000000  0.5478240000000  0.4357180000000 1.0
C      1  0.5240830000000  0.5952500000000  0.4380160000000 1.0
C      1  0.6002710000000  0.5139580000000  0.4335690000000 1.0
C      1  0.5281420000000  0.4974520000000  0.6352680000000 1.0
C      1  0.5061080000000  0.4729640000000  0.6365880000000 1.0
C      1  0.4760940000000  0.4863380000000  0.6363730000000 1.0
C      1  0.4796610000000  0.5190630000000  0.6344240000000 1.0
C      1  0.5118090000000  0.5258560000000  0.6340110000000 1.0
C      1  0.4960450000000  0.4910520000000  0.5099340000000 1.0
C      1  0.4987570000000  0.4973190000000  0.5420480000000 1.0
C      1  0.5029110000000  0.5007220000000  0.3935420000000 1.0
END
