TITL C-2782238-9940-1447 0.00504207259360712 125000 -1110.65533723457 0 0 189 (C1) n - 1
REM
REM in /home/nfs/bkarasulu/CARBON/AIRSS/Generating-Clusters/REBO/Higher-Symm/SD-CG/HFTN-CG
REM
REM
REM
REM
REM
REM ./C.cell (12c818d87b63d06a65506943cc24bca4)
REM
REM compiler GCC version 9.2.1 20190827 (Red Hat 9.2.1-1)
REM options -cpp -mtune=generic -march=x86-64 -g -O0 -fpre-include=/usr/include/finclude/math-vector-fortran.h
REM seed -1580625331 97178458 -899989337 -758258810 560664834 -292922922 1530060475 1631207106 406988601 -1286862366 -838384506 987156456 -1820280664 -341361620 -235473953 2020818027 367046846 -1790515129 -376274669 482170498 1531957444 -492625573 -1472485235 893975374 1239403831 -927959153 978263857 1553582322 50448289 222341639 894553658 175443807 1629259815
REM
CELL 1.54180   50.00000   50.00000   50.00000   90.00000   90.00000   90.00000
LATT -1
SFAC C  
C      1  0.4269020000000  0.4213860000000  0.4621640000000 1.0
C      1  0.4669700000000  0.6008280000000  0.4621800000000 1.0
C      1  0.6044650000000  0.4848340000000  0.4648320000000 1.0
C      1  0.4333750000000  0.4094450000000  0.5336760000000 1.0
C      1  0.4556730000000  0.6016290000000  0.5337580000000 1.0
C      1  0.6102140000000  0.4846100000000  0.5394830000000 1.0
C      1  0.5650930000000  0.4117430000000  0.4650150000000 1.0
C      1  0.5365260000000  0.6010860000000  0.4597090000000 1.0
C      1  0.3918230000000  0.4856140000000  0.4633300000000 1.0
C      1  0.5703000000000  0.4147240000000  0.5364360000000 1.0
C      1  0.5398710000000  0.6000290000000  0.5343510000000 1.0
C      1  0.3918320000000  0.4804640000000  0.5399650000000 1.0
C      1  0.3906040000000  0.5089530000000  0.5363330000000 1.0
C      1  0.5646130000000  0.5803580000000  0.5459050000000 1.0
C      1  0.5453950000000  0.4009360000000  0.5339670000000 1.0
C      1  0.4029890000000  0.5162150000000  0.4596650000000 1.0
C      1  0.5586090000000  0.5821160000000  0.4628750000000 1.0
C      1  0.5320870000000  0.4087220000000  0.4586850000000 1.0
C      1  0.6063780000000  0.5130930000000  0.5399380000000 1.0
C      1  0.4309070000000  0.5787930000000  0.5389290000000 1.0
C      1  0.4657460000000  0.3995650000000  0.5373750000000 1.0
C      1  0.6002400000000  0.5131440000000  0.4675270000000 1.0
C      1  0.4426550000000  0.5847950000000  0.4625210000000 1.0
C      1  0.4534760000000  0.4094670000000  0.4621970000000 1.0
C      1  0.4693500000000  0.4959910000000  0.4702990000000 1.0
C      1  0.5102520000000  0.5278110000000  0.4686730000000 1.0
C      1  0.5166440000000  0.4764520000000  0.4716700000000 1.0
C      1  0.4722930000000  0.4917770000000  0.5342070000000 1.0
C      1  0.5123980000000  0.5267640000000  0.5330080000000 1.0
C      1  0.5188280000000  0.4741950000000  0.5346580000000 1.0
C      1  0.5293140000000  0.5032200000000  0.4728930000000 1.0
C      1  0.4804930000000  0.5250260000000  0.4695570000000 1.0
C      1  0.4862190000000  0.4715210000000  0.4710880000000 1.0
C      1  0.5310870000000  0.5018730000000  0.5326610000000 1.0
C      1  0.4837600000000  0.5219630000000  0.5323210000000 1.0
C      1  0.4887730000000  0.4682240000000  0.5360990000000 1.0
C      1  0.4722110000000  0.4954170000000  0.5830450000000 1.0
C      1  0.5096380000000  0.5265630000000  0.5817300000000 1.0
C      1  0.5175520000000  0.4807290000000  0.5857750000000 1.0
C      1  0.4714950000000  0.5026120000000  0.3992720000000 1.0
C      1  0.5170470000000  0.5209480000000  0.4007000000000 1.0
C      1  0.5111840000000  0.4726780000000  0.4037700000000 1.0
C      1  0.5229440000000  0.5072130000000  0.5960630000000 1.0
C      1  0.4808460000000  0.5245980000000  0.5815050000000 1.0
C      1  0.4891950000000  0.4722930000000  0.5845300000000 1.0
C      1  0.5270520000000  0.4949300000000  0.4115450000000 1.0
C      1  0.4898830000000  0.5249470000000  0.4073080000000 1.0
C      1  0.4819740000000  0.4780370000000  0.4086910000000 1.0
C      1  0.4862740000000  0.5367940000000  0.4377980000000 1.0
C      1  0.5389310000000  0.4929620000000  0.4417030000000 1.0
C      1  0.4728480000000  0.4713270000000  0.4390320000000 1.0
C      1  0.4695240000000  0.5364980000000  0.5560750000000 1.0
C      1  0.5517420000000  0.5018990000000  0.5580530000000 1.0
C      1  0.4844330000000  0.4532200000000  0.5620540000000 1.0
C      1  0.5201990000000  0.5397510000000  0.4409580000000 1.0
C      1  0.4543510000000  0.4998350000000  0.4427000000000 1.0
C      1  0.5242380000000  0.4618790000000  0.4446890000000 1.0
C      1  0.5249570000000  0.5395130000000  0.5595290000000 1.0
C      1  0.4529080000000  0.4995140000000  0.5590920000000 1.0
C      1  0.5340840000000  0.4749570000000  0.5619720000000 1.0
C      1  0.5969680000000  0.4658010000000  0.5162970000000 1.0
C      1  0.4265040000000  0.4360430000000  0.5172450000000 1.0
C      1  0.4809380000000  0.5921910000000  0.5171330000000 1.0
C      1  0.5904020000000  0.4630130000000  0.4862590000000 1.0
C      1  0.4216510000000  0.4399600000000  0.4872540000000 1.0
C      1  0.4853550000000  0.5949720000000  0.4870250000000 1.0
C      1  0.4073180000000  0.4627130000000  0.5167420000000 1.0
C      1  0.5784420000000  0.4386800000000  0.5156660000000 1.0
C      1  0.5140260000000  0.5955630000000  0.5147910000000 1.0
C      1  0.4052720000000  0.4683890000000  0.4862480000000 1.0
C      1  0.5733450000000  0.4354410000000  0.4850540000000 1.0
C      1  0.5174870000000  0.5974390000000  0.4841470000000 1.0
C      1  0.5371830000000  0.5407590000000  0.4835330000000 1.0
C      1  0.5132000000000  0.4477470000000  0.4885920000000 1.0
C      1  0.4481020000000  0.5125370000000  0.4894150000000 1.0
C      1  0.5386500000000  0.5369340000000  0.5149600000000 1.0
C      1  0.5173850000000  0.4456650000000  0.5198530000000 1.0
C      1  0.4477870000000  0.5090590000000  0.5206170000000 1.0
C      1  0.4597170000000  0.5439620000000  0.4844960000000 1.0
C      1  0.4798660000000  0.4434270000000  0.4843080000000 1.0
C      1  0.5560780000000  0.5128140000000  0.4882660000000 1.0
C      1  0.4611340000000  0.5399260000000  0.5154850000000 1.0
C      1  0.4835390000000  0.4437890000000  0.5150940000000 1.0
C      1  0.5593120000000  0.5101100000000  0.5191350000000 1.0
C      1  0.4829980000000  0.5616340000000  0.5280570000000 1.0
C      1  0.5715830000000  0.4823050000000  0.5296340000000 1.0
C      1  0.4535870000000  0.4505730000000  0.5294000000000 1.0
C      1  0.4808200000000  0.5648970000000  0.4727030000000 1.0
C      1  0.5660270000000  0.4843660000000  0.4754300000000 1.0
C      1  0.4507420000000  0.4510730000000  0.4741090000000 1.0
C      1  0.5228070000000  0.5647410000000  0.5265490000000 1.0
C      1  0.4304560000000  0.4831250000000  0.5306130000000 1.0
C      1  0.5492670000000  0.4482530000000  0.5308560000000 1.0
C      1  0.5207150000000  0.5662490000000  0.4708300000000 1.0
C      1  0.4309250000000  0.4868530000000  0.4751080000000 1.0
C      1  0.5442870000000  0.4483560000000  0.4765370000000 1.0
C      1  0.4474310000000  0.3870150000000  0.5122870000000 1.0
C      1  0.4282780000000  0.6007550000000  0.5136200000000 1.0
C      1  0.6175740000000  0.5292100000000  0.5188440000000 1.0
C      1  0.4582550000000  0.3886480000000  0.4811330000000 1.0
C      1  0.4233350000000  0.5909080000000  0.4825420000000 1.0
C      1  0.6156120000000  0.5271020000000  0.4872610000000 1.0
C      1  0.5373500000000  0.3862690000000  0.5111080000000 1.0
C      1  0.5688900000000  0.5954370000000  0.5168210000000 1.0
C      1  0.3820880000000  0.5227310000000  0.5127230000000 1.0
C      1  0.5475100000000  0.3874240000000  0.4799720000000 1.0
C      1  0.5755680000000  0.5897440000000  0.4846310000000 1.0
C      1  0.3782090000000  0.5147440000000  0.4815920000000 1.0
C      1  0.4384900000000  0.4828070000000  0.4104240000000 1.0
C      1  0.5153680000000  0.5601670000000  0.4070300000000 1.0
C      1  0.5454190000000  0.4537930000000  0.4120220000000 1.0
C      1  0.4371610000000  0.4821450000000  0.5956930000000 1.0
C      1  0.5220810000000  0.5627310000000  0.5918690000000 1.0
C      1  0.5491120000000  0.4590390000000  0.5958210000000 1.0
C      1  0.5631240000000  0.4791660000000  0.4112980000000 1.0
C      1  0.4842500000000  0.5637830000000  0.4083550000000 1.0
C      1  0.4511960000000  0.4537110000000  0.4096160000000 1.0
C      1  0.5639720000000  0.4857030000000  0.5925150000000 1.0
C      1  0.4915640000000  0.5612420000000  0.5925600000000 1.0
C      1  0.4539070000000  0.4571700000000  0.5950130000000 1.0
C      1  0.6188250000000  0.5578710000000  0.4914000000000 1.0
C      1  0.4849050000000  0.3729310000000  0.4789200000000 1.0
C      1  0.3966080000000  0.5755010000000  0.4810260000000 1.0
C      1  0.6179470000000  0.5605810000000  0.5244350000000 1.0
C      1  0.4773070000000  0.3714860000000  0.5113830000000 1.0
C      1  0.4000720000000  0.5823250000000  0.5135210000000 1.0
C      1  0.3871510000000  0.5460990000000  0.4810050000000 1.0
C      1  0.5150750000000  0.3791080000000  0.4791330000000 1.0
C      1  0.6053310000000  0.5838100000000  0.4815730000000 1.0
C      1  0.3906510000000  0.5528900000000  0.5130620000000 1.0
C      1  0.5074410000000  0.3783820000000  0.5111200000000 1.0
C      1  0.6012490000000  0.5852030000000  0.5143640000000 1.0
C      1  0.4255700000000  0.4830050000000  0.5642910000000 1.0
C      1  0.5248460000000  0.5714490000000  0.5596030000000 1.0
C      1  0.5506470000000  0.4476600000000  0.5649160000000 1.0
C      1  0.4252300000000  0.4865130000000  0.4415130000000 1.0
C      1  0.5236350000000  0.5709910000000  0.4371600000000 1.0
C      1  0.5492500000000  0.4414700000000  0.4434910000000 1.0
C      1  0.5782200000000  0.4853800000000  0.5630920000000 1.0
C      1  0.4805930000000  0.5660800000000  0.5618840000000 1.0
C      1  0.4538950000000  0.4456350000000  0.5632990000000 1.0
C      1  0.5714580000000  0.4829180000000  0.4425610000000 1.0
C      1  0.4796150000000  0.5701420000000  0.4401880000000 1.0
C      1  0.4474210000000  0.4489260000000  0.4420090000000 1.0
C      1  0.4809050000000  0.5981880000000  0.5562650000000 1.0
C      1  0.5959870000000  0.4594360000000  0.5556030000000 1.0
C      1  0.4252830000000  0.4331820000000  0.5566450000000 1.0
C      1  0.4869490000000  0.6020420000000  0.4389430000000 1.0
C      1  0.5943720000000  0.4601100000000  0.4466820000000 1.0
C      1  0.4158880000000  0.4396760000000  0.4400340000000 1.0
C      1  0.5118980000000  0.6002880000000  0.5541230000000 1.0
C      1  0.4078690000000  0.4568160000000  0.5561830000000 1.0
C      1  0.5786120000000  0.4368680000000  0.5555250000000 1.0
C      1  0.5159620000000  0.6024840000000  0.4369830000000 1.0
C      1  0.4009160000000  0.4648230000000  0.4406200000000 1.0
C      1  0.5810140000000  0.4347520000000  0.4459760000000 1.0
C      1  0.4429250000000  0.5121950000000  0.3971340000000 1.0
C      1  0.5397660000000  0.5401080000000  0.3953930000000 1.0
C      1  0.5167440000000  0.4432910000000  0.3998760000000 1.0
C      1  0.4529560000000  0.5103900000000  0.6062260000000 1.0
C      1  0.5415020000000  0.5422730000000  0.6006190000000 1.0
C      1  0.5173410000000  0.4559620000000  0.6076520000000 1.0
C      1  0.5547340000000  0.5095660000000  0.3985070000000 1.0
C      1  0.4614080000000  0.5408270000000  0.3979940000000 1.0
C      1  0.4827080000000  0.4454550000000  0.3997990000000 1.0
C      1  0.5516800000000  0.5115320000000  0.6005850000000 1.0
C      1  0.4694820000000  0.5400910000000  0.6075140000000 1.0
C      1  0.4835270000000  0.4533690000000  0.6103350000000 1.0
C      1  0.5615270000000  0.5552250000000  0.4538840000000 1.0
C      1  0.5082360000000  0.4178620000000  0.4514310000000 1.0
C      1  0.4221230000000  0.5326320000000  0.4516830000000 1.0
C      1  0.5734710000000  0.5567680000000  0.5558140000000 1.0
C      1  0.5228810000000  0.4080130000000  0.5500000000000 1.0
C      1  0.4075070000000  0.5260820000000  0.5512430000000 1.0
C      1  0.4398240000000  0.5594310000000  0.4507490000000 1.0
C      1  0.4766190000000  0.4209720000000  0.4510300000000 1.0
C      1  0.5789560000000  0.5275960000000  0.4563420000000 1.0
C      1  0.4221490000000  0.5545970000000  0.5467210000000 1.0
C      1  0.4902860000000  0.4047530000000  0.5461430000000 1.0
C      1  0.5874050000000  0.5277760000000  0.5547140000000 1.0
C      1  0.5486940000000  0.5259260000000  0.4412220000000 1.0
C      1  0.4527470000000  0.5307780000000  0.4374820000000 1.0
C      1  0.4399640000000  0.5287420000000  0.5559020000000 1.0
C      1  0.5543610000000  0.5315610000000  0.5628230000000 1.0
C      1  0.4963660000000  0.4466010000000  0.4396650000000 1.0
C      1  0.5017540000000  0.4290230000000  0.5626340000000 1.0
C      1  0.4437610000000  0.4695290000000  0.5021470000000 1.0
C      1  0.5021110000000  0.5609430000000  0.4993660000000 1.0
C      1  0.5546120000000  0.4678250000000  0.5031410000000 1.0
END
