TITL C-2782240-8521-174 0.000106479343752197 125000 -311.3397366302 0 0 54 (C3i) n - 1
REM
REM in /home/nfs/bkarasulu/CARBON/AIRSS/Generating-Clusters/REBO/Higher-Symm/SD-CG/HFTN-CG
REM
REM
REM
REM
REM
REM ./C.cell (12c818d87b63d06a65506943cc24bca4)
REM
REM compiler GCC version 9.2.1 20190827 (Red Hat 9.2.1-1)
REM options -cpp -mtune=generic -march=x86-64 -g -O0 -fpre-include=/usr/include/finclude/math-vector-fortran.h
REM seed -1336729865 -1479821965 -667815723 -2115822895 1633580803 396546977 -650338968 -319508784 -62626279 -585784376 -96711466 -973842848 464051969 1181295235 1007090080 1154261722 -381801794 -1971005869 -352343273 -1481099814 1445146300 -1972744209 1938507306 -118805104 741791468 -1904576091 -2102784979 -333121196 1002133228 1193625384 -1106236793 1711916330 -1562844465
REM
CELL 1.54180   50.00000   50.00000   50.00000   90.00000   90.00000   90.00000
LATT -1
SFAC C  
C      1  0.5581470000000  0.5208850000000  0.5429280000000 1.0
C      1  0.4426450000000  0.5485560000000  0.5035720000000 1.0
C      1  0.5576540000000  0.5264370000000  0.4595380000000 1.0
C      1  0.4418530000000  0.4791150000000  0.4570720000000 1.0
C      1  0.5573550000000  0.4514440000000  0.4964280000000 1.0
C      1  0.4423460000000  0.4735630000000  0.5404620000000 1.0
C      1  0.4536080000000  0.5493540000000  0.4770370000000 1.0
C      1  0.5462790000000  0.5040370000000  0.4456190000000 1.0
C      1  0.4528920000000  0.4556800000000  0.4694740000000 1.0
C      1  0.5463920000000  0.4506460000000  0.5229630000000 1.0
C      1  0.4537210000000  0.4959630000000  0.5543810000000 1.0
C      1  0.5471080000000  0.5443200000000  0.5305260000000 1.0
C      1  0.4438550000000  0.4502380000000  0.4957270000000 1.0
C      1  0.5558130000000  0.4705120000000  0.5407690000000 1.0
C      1  0.4446840000000  0.5214670000000  0.5461100000000 1.0
C      1  0.5561450000000  0.5497620000000  0.5042730000000 1.0
C      1  0.4441870000000  0.5294880000000  0.4592310000000 1.0
C      1  0.5553160000000  0.4785330000000  0.4538900000000 1.0
C      1  0.4250460000000  0.5361860000000  0.5264130000000 1.0
C      1  0.5755470000000  0.5397450000000  0.4816110000000 1.0
C      1  0.4243790000000  0.5051720000000  0.4566420000000 1.0
C      1  0.5749540000000  0.4638140000000  0.4735870000000 1.0
C      1  0.4244530000000  0.4602550000000  0.5183890000000 1.0
C      1  0.5756210000000  0.4948280000000  0.5433580000000 1.0
C      1  0.4646350000000  0.5375750000000  0.5263070000000 1.0
C      1  0.5359690000000  0.5409900000000  0.4804900000000 1.0
C      1  0.4639400000000  0.5041810000000  0.4548680000000 1.0
C      1  0.5353650000000  0.4624250000000  0.4736930000000 1.0
C      1  0.4640310000000  0.4590100000000  0.5195100000000 1.0
C      1  0.5360600000000  0.4958190000000  0.5451320000000 1.0
C      1  0.4827650000000  0.4835060000000  0.5105940000000 1.0
C      1  0.5173140000000  0.5006480000000  0.5195220000000 1.0
C      1  0.4829990000000  0.5175090000000  0.5092580000000 1.0
C      1  0.5172350000000  0.5164940000000  0.4894060000000 1.0
C      1  0.4826860000000  0.4993520000000  0.4804780000000 1.0
C      1  0.5170010000000  0.4824910000000  0.4907420000000 1.0
C      1  0.4945340000000  0.4933250000000  0.4487060000000 1.0
C      1  0.5046230000000  0.4521580000000  0.4801190000000 1.0
C      1  0.4948170000000  0.4589420000000  0.5315100000000 1.0
C      1  0.5054660000000  0.5066750000000  0.5512940000000 1.0
C      1  0.4953770000000  0.5478420000000  0.5198810000000 1.0
C      1  0.5051830000000  0.5410580000000  0.4684900000000 1.0
C      1  0.5186060000000  0.4418010000000  0.5239050000000 1.0
C      1  0.4814730000000  0.4919060000000  0.5624180000000 1.0
C      1  0.5194660000000  0.5497020000000  0.5381520000000 1.0
C      1  0.4813940000000  0.5581990000000  0.4760950000000 1.0
C      1  0.5185270000000  0.5080940000000  0.4375820000000 1.0
C      1  0.4805340000000  0.4502980000000  0.4618480000000 1.0
C      1  0.5098950000000  0.4294780000000  0.5003560000000 1.0
C      1  0.4897480000000  0.4652130000000  0.5612880000000 1.0
C      1  0.5110360000000  0.5355130000000  0.5607330000000 1.0
C      1  0.4901050000000  0.5705220000000  0.4996440000000 1.0
C      1  0.5102520000000  0.5347870000000  0.4387120000000 1.0
C      1  0.4889640000000  0.4644870000000  0.4392670000000 1.0
END
