TITL C-2782240-8521-361 5.92167286705787e-06 125000 -426.036932264916 0 0 74 (C1) n - 1
REM
REM in /home/nfs/bkarasulu/CARBON/AIRSS/Generating-Clusters/REBO/Higher-Symm/SD-CG/HFTN-CG
REM
REM
REM
REM
REM
REM ./C.cell (12c818d87b63d06a65506943cc24bca4)
REM
REM compiler GCC version 9.2.1 20190827 (Red Hat 9.2.1-1)
REM options -cpp -mtune=generic -march=x86-64 -g -O0 -fpre-include=/usr/include/finclude/math-vector-fortran.h
REM seed -576868868 -1139951576 276564726 695622916 -499899193 -1120421834 1629581028 284123309 1483271929 818383510 1862966068 -499806923 -1404427755 762904617 -1491532746 2023926663 -21546977 1410830770 -2089252883 -1570824689 -843947877 460950412 354674684 705740457 960445888 -1321640861 1651917984 -1341024962 1334713334 1369544964 -1339469797 -1095833229 -674391149
REM
CELL 1.54180   50.00000   50.00000   50.00000   90.00000   90.00000   90.00000
LATT -1
SFAC C  
C      1  0.4677270000000  0.4313390000000  0.5098380000000 1.0
C      1  0.4625090000000  0.4714470000000  0.4372580000000 1.0
C      1  0.4610760000000  0.5522140000000  0.4485620000000 1.0
C      1  0.4637060000000  0.5634610000000  0.5311070000000 1.0
C      1  0.4638040000000  0.4860800000000  0.5697310000000 1.0
C      1  0.5010060000000  0.5867300000000  0.4679440000000 1.0
C      1  0.5030100000000  0.5562880000000  0.5702240000000 1.0
C      1  0.5005880000000  0.4456570000000  0.5778650000000 1.0
C      1  0.5003690000000  0.4154090000000  0.4727130000000 1.0
C      1  0.5018160000000  0.4967880000000  0.4087210000000 1.0
C      1  0.5253070000000  0.4591540000000  0.5587210000000 1.0
C      1  0.5284010000000  0.4314160000000  0.4834110000000 1.0
C      1  0.5285460000000  0.4979240000000  0.4298430000000 1.0
C      1  0.5297790000000  0.5686350000000  0.4711240000000 1.0
C      1  0.5277880000000  0.5408370000000  0.5525870000000 1.0
C      1  0.5382220000000  0.5106810000000  0.5504740000000 1.0
C      1  0.5442670000000  0.4486380000000  0.5345300000000 1.0
C      1  0.5414570000000  0.4581360000000  0.4699240000000 1.0
C      1  0.5445410000000  0.5230010000000  0.4421440000000 1.0
C      1  0.5452250000000  0.5618370000000  0.4995620000000 1.0
C      1  0.5066710000000  0.4539350000000  0.5238730000000 1.0
C      1  0.5030130000000  0.4813780000000  0.4736870000000 1.0
C      1  0.5032300000000  0.5234290000000  0.4668830000000 1.0
C      1  0.5068570000000  0.5350780000000  0.5049580000000 1.0
C      1  0.4912910000000  0.5020060000000  0.5434420000000 1.0
C      1  0.4777500000000  0.4911170000000  0.5224490000000 1.0
C      1  0.4870290000000  0.4671540000000  0.5132850000000 1.0
C      1  0.4751380000000  0.4873180000000  0.4766430000000 1.0
C      1  0.4778300000000  0.5306990000000  0.4775520000000 1.0
C      1  0.4812930000000  0.5305510000000  0.5173350000000 1.0
C      1  0.4822650000000  0.4653140000000  0.5865210000000 1.0
C      1  0.4828030000000  0.4078070000000  0.4937410000000 1.0
C      1  0.4840770000000  0.4750270000000  0.4135830000000 1.0
C      1  0.4821750000000  0.5769060000000  0.4490570000000 1.0
C      1  0.4854480000000  0.5712830000000  0.5537220000000 1.0
C      1  0.4388990000000  0.5169600000000  0.5302990000000 1.0
C      1  0.4401100000000  0.4777250000000  0.5233050000000 1.0
C      1  0.4390280000000  0.4718230000000  0.4841150000000 1.0
C      1  0.4346160000000  0.5072190000000  0.4658180000000 1.0
C      1  0.4349460000000  0.5360200000000  0.4933890000000 1.0
C      1  0.4961810000000  0.5693240000000  0.5228010000000 1.0
C      1  0.4937240000000  0.4963610000000  0.5822780000000 1.0
C      1  0.4956200000000  0.4159200000000  0.5229170000000 1.0
C      1  0.4939870000000  0.4599280000000  0.4411600000000 1.0
C      1  0.4932070000000  0.5482900000000  0.4373820000000 1.0
C      1  0.5537100000000  0.5042910000000  0.5276250000000 1.0
C      1  0.5668680000000  0.4617700000000  0.5271710000000 1.0
C      1  0.5559370000000  0.4751040000000  0.4874540000000 1.0
C      1  0.5690710000000  0.5200800000000  0.4534100000000 1.0
C      1  0.5708590000000  0.5530150000000  0.4990200000000 1.0
C      1  0.5017570000000  0.5241760000000  0.5670150000000 1.0
C      1  0.5071900000000  0.4313930000000  0.5491620000000 1.0
C      1  0.5030190000000  0.4476870000000  0.4689600000000 1.0
C      1  0.5023110000000  0.5180900000000  0.4332690000000 1.0
C      1  0.5058640000000  0.5665930000000  0.4931040000000 1.0
C      1  0.5828540000000  0.5116750000000  0.5228920000000 1.0
C      1  0.5839620000000  0.4812210000000  0.5152750000000 1.0
C      1  0.5846890000000  0.4839970000000  0.4837660000000 1.0
C      1  0.5858680000000  0.5123420000000  0.4751140000000 1.0
C      1  0.5860220000000  0.5291410000000  0.4992490000000 1.0
C      1  0.5265250000000  0.5536270000000  0.5244730000000 1.0
C      1  0.5183960000000  0.4888160000000  0.5597500000000 1.0
C      1  0.5262300000000  0.4293950000000  0.5141030000000 1.0
C      1  0.5243000000000  0.4738510000000  0.4480090000000 1.0
C      1  0.5243770000000  0.5453810000000  0.4518070000000 1.0
C      1  0.4502440000000  0.4528010000000  0.5071640000000 1.0
C      1  0.4428190000000  0.4796240000000  0.4546030000000 1.0
C      1  0.4415550000000  0.5375390000000  0.4625520000000 1.0
C      1  0.4446020000000  0.5458810000000  0.5212120000000 1.0
C      1  0.4476770000000  0.4932910000000  0.5487200000000 1.0
C      1  0.4634180000000  0.5085780000000  0.4991880000000 1.0
C      1  0.4297820000000  0.5016530000000  0.4999810000000 1.0
C      1  0.5180500000000  0.5063070000000  0.4904610000000 1.0
C      1  0.5414510000000  0.4937030000000  0.5039540000000 1.0
END
