TITL C-2782232-2968-784 0.002496173694694 125000 -202.536293298408 0 0 39 (C1) n - 1
REM
REM in /home/nfs/bkarasulu/CARBON/AIRSS/Generating-Clusters/REBO/Higher-Symm/SD-CG/HFTN-CG
REM
REM
REM
REM
REM
REM ./C.cell (12c818d87b63d06a65506943cc24bca4)
REM
REM compiler GCC version 9.2.1 20190827 (Red Hat 9.2.1-1)
REM options -cpp -mtune=generic -march=x86-64 -g -O0 -fpre-include=/usr/include/finclude/math-vector-fortran.h
REM seed -1899548977 -480041581 -995359238 1313416596 -405724396 739546043 -1840687334 -1140731515 710839449 -775723474 1529186346 1809964830 -1073684078 1037898730 -1729418866 776570947 673886851 2008133418 712162887 705077559 -122946038 126008066 1048973675 -1362813331 -1225189936 -1322839691 -2096112341 -216477453 1139659440 798263674 -1226878698 -210509027 -1708033854
REM
CELL 1.54180   50.00000   50.00000   50.00000   90.00000   90.00000   90.00000
LATT -1
SFAC C  
C      1  0.5555800000000  0.4839090000000  0.4724130000000 1.0
C      1  0.5562160000000  0.5211200000000  0.4744190000000 1.0
C      1  0.5562060000000  0.5307040000000  0.5104220000000 1.0
C      1  0.5556790000000  0.4994600000000  0.5307170000000 1.0
C      1  0.5550900000000  0.4705690000000  0.5071940000000 1.0
C      1  0.5105200000000  0.4426250000000  0.4951620000000 1.0
C      1  0.5135190000000  0.4867490000000  0.4399970000000 1.0
C      1  0.5130970000000  0.5527630000000  0.4672830000000 1.0
C      1  0.5132110000000  0.5481090000000  0.5376200000000 1.0
C      1  0.5133600000000  0.4800780000000  0.5559750000000 1.0
C      1  0.4853560000000  0.4806290000000  0.4568460000000 1.0
C      1  0.4856640000000  0.5331670000000  0.4668400000000 1.0
C      1  0.4853920000000  0.5418360000000  0.5200090000000 1.0
C      1  0.4851160000000  0.4945830000000  0.5459550000000 1.0
C      1  0.4832190000000  0.4602470000000  0.5052110000000 1.0
C      1  0.4687030000000  0.5338090000000  0.4937450000000 1.0
C      1  0.4681740000000  0.5168240000000  0.5299060000000 1.0
C      1  0.4665880000000  0.4766950000000  0.5272490000000 1.0
C      1  0.4663440000000  0.4692360000000  0.4796470000000 1.0
C      1  0.4679840000000  0.5063210000000  0.4647530000000 1.0
C      1  0.5385320000000  0.5272350000000  0.5374150000000 1.0
C      1  0.5375750000000  0.4729220000000  0.5353700000000 1.0
C      1  0.5372450000000  0.4580200000000  0.4830890000000 1.0
C      1  0.5388960000000  0.5032220000000  0.4523810000000 1.0
C      1  0.5392720000000  0.5462700000000  0.4863300000000 1.0
C      1  0.4348450000000  0.4742670000000  0.4861770000000 1.0
C      1  0.4361180000000  0.5045440000000  0.4707120000000 1.0
C      1  0.4369550000000  0.5286010000000  0.4947340000000 1.0
C      1  0.4362730000000  0.5132100000000  0.5250520000000 1.0
C      1  0.4349510000000  0.4796260000000  0.5197760000000 1.0
C      1  0.5148070000000  0.4791790000000  0.4732900000000 1.0
C      1  0.5160970000000  0.5188910000000  0.4687650000000 1.0
C      1  0.5156030000000  0.5359380000000  0.5058680000000 1.0
C      1  0.5146880000000  0.5055920000000  0.5332380000000 1.0
C      1  0.5143230000000  0.4710520000000  0.5130960000000 1.0
C      1  0.4148420000000  0.5008740000000  0.4992200000000 1.0
C      1  0.4633140000000  0.4989630000000  0.4993850000000 1.0
C      1  0.5723030000000  0.5008490000000  0.4990910000000 1.0
C      1  0.5138010000000  0.5023170000000  0.4988750000000 1.0
END
