TITL C-2782235-7892-1363 -0.00501397705386298 125000 -664.514827483127 0 0 115 (C1) n - 1
REM
REM in /home/nfs/bkarasulu/CARBON/AIRSS/Generating-Clusters/REBO/Higher-Symm/SD-CG/HFTN-CG
REM
REM
REM
REM
REM
REM ./C.cell (12c818d87b63d06a65506943cc24bca4)
REM
REM compiler GCC version 9.2.1 20190827 (Red Hat 9.2.1-1)
REM options -cpp -mtune=generic -march=x86-64 -g -O0 -fpre-include=/usr/include/finclude/math-vector-fortran.h
REM seed 1423751923 -1902183049 -731487222 -1330948741 956651380 -1459101376 108923068 1370220853 701339571 402708160 621414337 -1492071780 884931201 1749700661 107494098 -38239670 -1501775167 1549980161 1215878706 -1815235610 49552446 -1017423385 -2054399751 -1754519939 1391651174 1796655817 724560685 -36404223 2005668899 406204046 1851891295 126225703 833607873
REM
CELL 1.54180   50.00000   50.00000   50.00000   90.00000   90.00000   90.00000
LATT -1
SFAC C  
C      1  0.4493510000000  0.5220990000000  0.4755370000000 1.0
C      1  0.4440910000000  0.4950320000000  0.4662830000000 1.0
C      1  0.4471910000000  0.4710000000000  0.4839640000000 1.0
C      1  0.4504320000000  0.4736860000000  0.5146460000000 1.0
C      1  0.4523270000000  0.5022410000000  0.5258010000000 1.0
C      1  0.4537600000000  0.5266190000000  0.5061990000000 1.0
C      1  0.4629970000000  0.4179990000000  0.5165080000000 1.0
C      1  0.4651420000000  0.4764970000000  0.5789800000000 1.0
C      1  0.4586970000000  0.5629820000000  0.5615710000000 1.0
C      1  0.4610490000000  0.5868950000000  0.4776870000000 1.0
C      1  0.4478150000000  0.5246360000000  0.4184950000000 1.0
C      1  0.4583150000000  0.4399510000000  0.4352100000000 1.0
C      1  0.5213430000000  0.5578450000000  0.5738780000000 1.0
C      1  0.5232750000000  0.6005450000000  0.5006780000000 1.0
C      1  0.4889160000000  0.5555140000000  0.3991750000000 1.0
C      1  0.5189200000000  0.4547170000000  0.4171270000000 1.0
C      1  0.5185330000000  0.4129070000000  0.5069540000000 1.0
C      1  0.5180870000000  0.4606390000000  0.5846530000000 1.0
C      1  0.4998520000000  0.4602960000000  0.5667880000000 1.0
C      1  0.5040500000000  0.5401170000000  0.5677380000000 1.0
C      1  0.5041880000000  0.5844420000000  0.5061270000000 1.0
C      1  0.4778370000000  0.5507220000000  0.4217420000000 1.0
C      1  0.5004060000000  0.4699740000000  0.4258250000000 1.0
C      1  0.4987840000000  0.4254680000000  0.4967660000000 1.0
C      1  0.5813680000000  0.5291870000000  0.5478730000000 1.0
C      1  0.5771340000000  0.5537620000000  0.4976460000000 1.0
C      1  0.5675310000000  0.5295890000000  0.4558210000000 1.0
C      1  0.5784940000000  0.4674090000000  0.4547020000000 1.0
C      1  0.5857190000000  0.4434140000000  0.5044620000000 1.0
C      1  0.5835360000000  0.4738050000000  0.5494810000000 1.0
C      1  0.4771210000000  0.4883040000000  0.4360960000000 1.0
C      1  0.4770960000000  0.4404660000000  0.4807520000000 1.0
C      1  0.4796820000000  0.4558970000000  0.5439210000000 1.0
C      1  0.4831570000000  0.5186380000000  0.5612140000000 1.0
C      1  0.4822720000000  0.5667090000000  0.5183260000000 1.0
C      1  0.4794490000000  0.5495070000000  0.4547430000000 1.0
C      1  0.4827870000000  0.4271340000000  0.5333860000000 1.0
C      1  0.4854520000000  0.4950470000000  0.5803870000000 1.0
C      1  0.4808470000000  0.5729290000000  0.5482960000000 1.0
C      1  0.4840800000000  0.5772470000000  0.4651870000000 1.0
C      1  0.4726650000000  0.5110670000000  0.4158880000000 1.0
C      1  0.4798440000000  0.4327340000000  0.4510840000000 1.0
C      1  0.4096840000000  0.5227420000000  0.4798060000000 1.0
C      1  0.4045480000000  0.4962030000000  0.4692840000000 1.0
C      1  0.4074900000000  0.4737450000000  0.4874720000000 1.0
C      1  0.4106900000000  0.4773660000000  0.5155530000000 1.0
C      1  0.4125000000000  0.5038090000000  0.5259280000000 1.0
C      1  0.4134280000000  0.5254690000000  0.5077540000000 1.0
C      1  0.5980350000000  0.4874050000000  0.5249010000000 1.0
C      1  0.5974820000000  0.5155300000000  0.5238690000000 1.0
C      1  0.5938570000000  0.5277050000000  0.4986490000000 1.0
C      1  0.5892060000000  0.5129360000000  0.4749760000000 1.0
C      1  0.5940500000000  0.4851340000000  0.4758240000000 1.0
C      1  0.5978650000000  0.4724840000000  0.5010280000000 1.0
C      1  0.4293780000000  0.4548190000000  0.5305010000000 1.0
C      1  0.4329010000000  0.5076100000000  0.5515720000000 1.0
C      1  0.4326350000000  0.5492440000000  0.5175400000000 1.0
C      1  0.4290120000000  0.5449120000000  0.4638640000000 1.0
C      1  0.4226200000000  0.4900630000000  0.4417290000000 1.0
C      1  0.4253850000000  0.4492160000000  0.4746150000000 1.0
C      1  0.5414180000000  0.4975130000000  0.5648410000000 1.0
C      1  0.5404100000000  0.5567490000000  0.5350860000000 1.0
C      1  0.5336860000000  0.5691230000000  0.4772020000000 1.0
C      1  0.5358250000000  0.4933830000000  0.4400790000000 1.0
C      1  0.5409750000000  0.4395850000000  0.4769410000000 1.0
C      1  0.5556150000000  0.4305570000000  0.5451540000000 1.0
C      1  0.4325700000000  0.5516340000000  0.5474010000000 1.0
C      1  0.4325700000000  0.5713520000000  0.4787440000000 1.0
C      1  0.4242790000000  0.5106060000000  0.4188400000000 1.0
C      1  0.4287350000000  0.4479660000000  0.4447320000000 1.0
C      1  0.4325000000000  0.4273640000000  0.5188220000000 1.0
C      1  0.4352130000000  0.4842200000000  0.5704350000000 1.0
C      1  0.5532810000000  0.4445910000000  0.4522640000000 1.0
C      1  0.5711040000000  0.4189490000000  0.5230680000000 1.0
C      1  0.5571770000000  0.4753310000000  0.5699810000000 1.0
C      1  0.5569790000000  0.5507680000000  0.5571980000000 1.0
C      1  0.5641400000000  0.5823620000000  0.4845590000000 1.0
C      1  0.5480480000000  0.5169850000000  0.4341770000000 1.0
C      1  0.4893270000000  0.4964910000000  0.4667660000000 1.0
C      1  0.4796010000000  0.4729170000000  0.4874390000000 1.0
C      1  0.4841060000000  0.4786570000000  0.5206370000000 1.0
C      1  0.4836400000000  0.5110350000000  0.5306880000000 1.0
C      1  0.4850970000000  0.5363450000000  0.5092210000000 1.0
C      1  0.4813770000000  0.5268480000000  0.4767590000000 1.0
C      1  0.4533560000000  0.5712220000000  0.5057300000000 1.0
C      1  0.4496600000000  0.5462800000000  0.4404830000000 1.0
C      1  0.4506370000000  0.4719940000000  0.4346370000000 1.0
C      1  0.4470990000000  0.4314100000000  0.4894810000000 1.0
C      1  0.4491250000000  0.4593670000000  0.5541800000000 1.0
C      1  0.4538960000000  0.5301000000000  0.5623010000000 1.0
C      1  0.5614970000000  0.5585250000000  0.4605890000000 1.0
C      1  0.5509190000000  0.4706520000000  0.4350590000000 1.0
C      1  0.5578020000000  0.4262830000000  0.4947440000000 1.0
C      1  0.5696930000000  0.4465220000000  0.5643190000000 1.0
C      1  0.5550330000000  0.5215860000000  0.5686640000000 1.0
C      1  0.5535480000000  0.5711270000000  0.5148760000000 1.0
C      1  0.5550350000000  0.4770080000000  0.4774440000000 1.0
C      1  0.5590850000000  0.4644690000000  0.5063720000000 1.0
C      1  0.5575290000000  0.4848940000000  0.5305150000000 1.0
C      1  0.5577540000000  0.5164860000000  0.5272660000000 1.0
C      1  0.5539240000000  0.5288630000000  0.4982380000000 1.0
C      1  0.5494750000000  0.5083270000000  0.4745740000000 1.0
C      1  0.5054550000000  0.4955450000000  0.5994610000000 1.0
C      1  0.5003770000000  0.5888030000000  0.5596950000000 1.0
C      1  0.5099910000000  0.5845040000000  0.4665580000000 1.0
C      1  0.4918430000000  0.5157340000000  0.3965810000000 1.0
C      1  0.5022980000000  0.4191000000000  0.4425920000000 1.0
C      1  0.5031160000000  0.4115330000000  0.5438010000000 1.0
C      1  0.5389020000000  0.4481290000000  0.5289160000000 1.0
C      1  0.5249490000000  0.4963860000000  0.5365400000000 1.0
C      1  0.5252530000000  0.5284490000000  0.5258250000000 1.0
C      1  0.5268170000000  0.5471240000000  0.4974350000000 1.0
C      1  0.5197420000000  0.4926230000000  0.4676550000000 1.0
C      1  0.5242880000000  0.4662300000000  0.4870350000000 1.0
C      1  0.5210810000000  0.4701240000000  0.5174950000000 1.0
END
