TITL C-2782227-3064-1441 0.000162687524035816 125000 -193.717669876175 0 0 35 (Cs) n - 1
REM
REM in /home/nfs/bkarasulu/CARBON/AIRSS/Generating-Clusters/REBO/Higher-Symm/SD-CG/HFTN-CG
REM
REM
REM
REM
REM
REM ./C.cell (12c818d87b63d06a65506943cc24bca4)
REM
REM compiler GCC version 9.2.1 20190827 (Red Hat 9.2.1-1)
REM options -cpp -mtune=generic -march=x86-64 -g -O0 -fpre-include=/usr/include/finclude/math-vector-fortran.h
REM seed 1961609287 -1924970053 -764997462 -605428476 -765512604 1356430736 -1111594717 -1109076263 1184994348 1448447105 -1934405525 2038144723 -1661300084 -1795197319 1519519122 416749425 1258715524 -596104232 687438509 1799635392 1635421663 -610995440 1468919911 -2044626157 -129877684 1908325089 -122523939 320315423 811593923 -1644930933 1168376319 -1896213224 -1167284630
REM
CELL 1.54180   50.00000   50.00000   50.00000   90.00000   90.00000   90.00000
LATT -1
SFAC C  
C      1  0.4634250000000  0.5276760000000  0.4798340000000 1.0
C      1  0.4621280000000  0.5318090000000  0.5080150000000 1.0
C      1  0.4614810000000  0.5119660000000  0.5285340000000 1.0
C      1  0.4616370000000  0.4836330000000  0.5263820000000 1.0
C      1  0.4626740000000  0.4676000000000  0.5030330000000 1.0
C      1  0.4639530000000  0.4762550000000  0.4760760000000 1.0
C      1  0.4643650000000  0.5027790000000  0.4658900000000 1.0
C      1  0.5385720000000  0.4348450000000  0.5113310000000 1.0
C      1  0.5408910000000  0.4516490000000  0.4561960000000 1.0
C      1  0.5411170000000  0.5052610000000  0.4343040000000 1.0
C      1  0.5300740000000  0.5537390000000  0.4672030000000 1.0
C      1  0.5277080000000  0.5612750000000  0.5185890000000 1.0
C      1  0.5351070000000  0.5244070000000  0.5648540000000 1.0
C      1  0.5361440000000  0.4667720000000  0.5593140000000 1.0
C      1  0.4974040000000  0.5637500000000  0.5275840000000 1.0
C      1  0.5011590000000  0.5228420000000  0.5617720000000 1.0
C      1  0.5022280000000  0.4676810000000  0.5558290000000 1.0
C      1  0.5045630000000  0.4366330000000  0.5095030000000 1.0
C      1  0.5068140000000  0.4530710000000  0.4562090000000 1.0
C      1  0.5070120000000  0.5041970000000  0.4346390000000 1.0
C      1  0.5007360000000  0.5531320000000  0.4551880000000 1.0
C      1  0.5233370000000  0.5324390000000  0.4423560000000 1.0
C      1  0.5371770000000  0.5601040000000  0.4928970000000 1.0
C      1  0.5184840000000  0.5479010000000  0.5477860000000 1.0
C      1  0.5191660000000  0.4948660000000  0.5660500000000 1.0
C      1  0.5208500000000  0.4468380000000  0.5371230000000 1.0
C      1  0.5234010000000  0.4387100000000  0.4817000000000 1.0
C      1  0.5249600000000  0.4764080000000  0.4401950000000 1.0
C      1  0.4752380000000  0.5491360000000  0.4650370000000 1.0
C      1  0.4728440000000  0.5567630000000  0.5170420000000 1.0
C      1  0.4723250000000  0.5209030000000  0.5534480000000 1.0
C      1  0.4731070000000  0.4707870000000  0.5491890000000 1.0
C      1  0.4751430000000  0.4422650000000  0.5073230000000 1.0
C      1  0.4772570000000  0.4575650000000  0.4590340000000 1.0
C      1  0.4775220000000  0.5043450000000  0.4405410000000 1.0
END
