TITL C-2782239-8622-731 -0.00104096816842867 125000 -184.420207816669 0 0 35 (T23) n - 1
REM
REM in /home/nfs/bkarasulu/CARBON/AIRSS/Generating-Clusters/REBO/Higher-Symm/SD-CG/HFTN-CG
REM
REM
REM
REM
REM
REM ./C.cell (12c818d87b63d06a65506943cc24bca4)
REM
REM compiler GCC version 9.2.1 20190827 (Red Hat 9.2.1-1)
REM options -cpp -mtune=generic -march=x86-64 -g -O0 -fpre-include=/usr/include/finclude/math-vector-fortran.h
REM seed -1889657710 877963395 308121985 1441546094 -1018851193 -394548125 -864434516 -519252585 -86424217 -1316735818 1162106672 587826597 -116850622 1938455076 -755593731 -1998906373 2083291690 -328597315 -519846451 1941029697 -1103821121 -1944534850 1493364689 -301786316 -1745164846 -1118556105 -1887623591 1223071467 -1232990998 -250040897 1706445588 266085121 1282485516
REM
CELL 1.54180   50.00000   50.00000   50.00000   90.00000   90.00000   90.00000
LATT -1
SFAC C  
C      1  0.4530400000000  0.5063020000000  0.5231650000000 1.0
C      1  0.5061580000000  0.5236460000000  0.4527450000000 1.0
C      1  0.5234140000000  0.4531380000000  0.5057740000000 1.0
C      1  0.5463780000000  0.5063500000000  0.4756500000000 1.0
C      1  0.5464110000000  0.4933070000000  0.5230670000000 1.0
C      1  0.4529970000000  0.4934260000000  0.4757020000000 1.0
C      1  0.4932740000000  0.5234860000000  0.5461310000000 1.0
C      1  0.4931800000000  0.4762110000000  0.4526710000000 1.0
C      1  0.5062150000000  0.4760410000000  0.5460370000000 1.0
C      1  0.4759630000000  0.4531790000000  0.4928530000000 1.0
C      1  0.4760100000000  0.5465320000000  0.5059770000000 1.0
C      1  0.5234400000000  0.5465370000000  0.4929800000000 1.0
C      1  0.4504460000000  0.5560490000000  0.5018790000000 1.0
C      1  0.5558560000000  0.5022560000000  0.4500710000000 1.0
C      1  0.5020770000000  0.4504620000000  0.5554960000000 1.0
C      1  0.5490110000000  0.5560200000000  0.4971110000000 1.0
C      1  0.5489710000000  0.4436350000000  0.5016010000000 1.0
C      1  0.4503990000000  0.4436810000000  0.4969920000000 1.0
C      1  0.4435590000000  0.5021250000000  0.5487300000000 1.0
C      1  0.4434780000000  0.4976100000000  0.4501530000000 1.0
C      1  0.5559340000000  0.4973940000000  0.5486310000000 1.0
C      1  0.4972980000000  0.4506620000000  0.4431230000000 1.0
C      1  0.4974270000000  0.5490320000000  0.5556730000000 1.0
C      1  0.5020250000000  0.5492290000000  0.4432930000000 1.0
C      1  0.4396890000000  0.4998690000000  0.4994440000000 1.0
C      1  0.4996580000000  0.4999520000000  0.4393780000000 1.0
C      1  0.4996840000000  0.4398290000000  0.4992900000000 1.0
C      1  0.5597240000000  0.4998230000000  0.4993480000000 1.0
C      1  0.4997550000000  0.4997400000000  0.5594140000000 1.0
C      1  0.4997300000000  0.5598640000000  0.4995020000000 1.0
C      1  0.4805060000000  0.5190440000000  0.5186690000000 1.0
C      1  0.5189230000000  0.5190970000000  0.4801910000000 1.0
C      1  0.5189390000000  0.4805810000000  0.5185700000000 1.0
C      1  0.4804600000000  0.4806640000000  0.4801540000000 1.0
C      1  0.4997070000000  0.4998460000000  0.4993960000000 1.0
END
