TITL C-2782237-5345-261 429.408907937747 125000 -952.732696540708 0 0 162 (C1) n - 1
REM
REM in /home/nfs/bkarasulu/CARBON/AIRSS/Generating-Clusters/REBO/Higher-Symm/SD-CG/HFTN-CG
REM
REM
REM
REM
REM
REM ./C.cell (12c818d87b63d06a65506943cc24bca4)
REM
REM compiler GCC version 9.2.1 20190827 (Red Hat 9.2.1-1)
REM options -cpp -mtune=generic -march=x86-64 -g -O0 -fpre-include=/usr/include/finclude/math-vector-fortran.h
REM seed -1265528362 1521991012 1308476204 630006593 1719168097 -346858097 2082102876 -1627308605 -542468720 -529837449 513134419 2015597567 646275879 2130657579 624545384 1862384141 2057794642 -756766874 860871891 -618128548 -695733672 2067503928 1878169363 653811965 -1726098430 -731416929 1023119919 974314370 -591135538 1068686954 1491453516 -350901738 476255989
REM
CELL 1.54180   50.00000   50.00000   50.00000   90.00000   90.00000   90.00000
LATT -1
SFAC C  
C      1  0.5476200000000  0.4481640000000  0.4975400000000 1.0
C      1  0.4764580000000  0.4424350000000  0.5492590000000 1.0
C      1  0.4803810000000  0.4489310000000  0.4594090000000 1.0
C      1  0.4496930000000  0.4259810000000  0.4490920000000 1.0
C      1  0.5758450000000  0.4259520000000  0.4805070000000 1.0
C      1  0.4767800000000  0.4272720000000  0.5859600000000 1.0
C      1  0.4465860000000  0.4639770000000  0.5062500000000 1.0
C      1  0.5174380000000  0.4631120000000  0.4546800000000 1.0
C      1  0.5349080000000  0.4609000000000  0.5433000000000 1.0
C      1  0.5011140000000  0.4600570000000  0.5646760000000 1.0
C      1  0.4529390000000  0.4644610000000  0.4669750000000 1.0
C      1  0.5537330000000  0.4649500000000  0.4721780000000 1.0
C      1  0.5111330000000  0.4616590000000  0.5236530000000 1.0
C      1  0.4766640000000  0.4627040000000  0.4990860000000 1.0
C      1  0.5058960000000  0.4679760000000  0.4835460000000 1.0
C      1  0.5518960000000  0.5244620000000  0.5278020000000 1.0
C      1  0.4595300000000  0.5189880000000  0.5276260000000 1.0
C      1  0.4977770000000  0.5249440000000  0.4440180000000 1.0
C      1  0.4732620000000  0.5298780000000  0.3943100000000 1.0
C      1  0.5913170000000  0.5337200000000  0.5337670000000 1.0
C      1  0.4241430000000  0.5285410000000  0.5668020000000 1.0
C      1  0.4122030000000  0.4463020000000  0.5339400000000 1.0
C      1  0.5076950000000  0.4408700000000  0.4107400000000 1.0
C      1  0.5741570000000  0.4405140000000  0.5537520000000 1.0
C      1  0.5931670000000  0.4749670000000  0.4625510000000 1.0
C      1  0.4825630000000  0.4756810000000  0.6030020000000 1.0
C      1  0.4204700000000  0.4788530000000  0.4314740000000 1.0
C      1  0.5343150000000  0.4618270000000  0.4155160000000 1.0
C      1  0.5565100000000  0.4585880000000  0.5766640000000 1.0
C      1  0.4070720000000  0.4610120000000  0.5032400000000 1.0
C      1  0.4967850000000  0.4338510000000  0.4809750000000 1.0
C      1  0.5189100000000  0.4363090000000  0.5031950000000 1.0
C      1  0.4823720000000  0.4348930000000  0.5181050000000 1.0
C      1  0.4202230000000  0.5074560000000  0.4718610000000 1.0
C      1  0.5591270000000  0.5045830000000  0.4422110000000 1.0
C      1  0.5184560000000  0.5041120000000  0.5807800000000 1.0
C      1  0.4241460000000  0.4838050000000  0.5223900000000 1.0
C      1  0.5157870000000  0.4864000000000  0.4040240000000 1.0
C      1  0.5679500000000  0.4865050000000  0.5633560000000 1.0
C      1  0.5142210000000  0.5668370000000  0.5802170000000 1.0
C      1  0.4311510000000  0.5704970000000  0.4678160000000 1.0
C      1  0.5596970000000  0.5661280000000  0.4427940000000 1.0
C      1  0.5203890000000  0.5134030000000  0.5210570000000 1.0
C      1  0.4792200000000  0.5030960000000  0.5144520000000 1.0
C      1  0.5055960000000  0.5058330000000  0.4713180000000 1.0
C      1  0.5212910000000  0.5062360000000  0.4297730000000 1.0
C      1  0.5450980000000  0.5070010000000  0.5519320000000 1.0
C      1  0.4295580000000  0.5134270000000  0.5200740000000 1.0
C      1  0.5308090000000  0.5666390000000  0.4045410000000 1.0
C      1  0.5658260000000  0.5585290000000  0.5694550000000 1.0
C      1  0.4157140000000  0.5678410000000  0.5183160000000 1.0
C      1  0.4132470000000  0.5549690000000  0.4891860000000 1.0
C      1  0.5510480000000  0.5527360000000  0.4174230000000 1.0
C      1  0.5412420000000  0.5510780000000  0.5893380000000 1.0
C      1  0.5916250000000  0.5294520000000  0.4770320000000 1.0
C      1  0.4747120000000  0.5278860000000  0.5976050000000 1.0
C      1  0.4296010000000  0.5324110000000  0.4244260000000 1.0
C      1  0.5569370000000  0.5408210000000  0.4922540000000 1.0
C      1  0.4798160000000  0.5335900000000  0.5585280000000 1.0
C      1  0.4595130000000  0.5334140000000  0.4504240000000 1.0
C      1  0.4478480000000  0.5421730000000  0.5828540000000 1.0
C      1  0.4565800000000  0.5484150000000  0.4107390000000 1.0
C      1  0.5937410000000  0.5481950000000  0.5056960000000 1.0
C      1  0.5330250000000  0.5817210000000  0.4414260000000 1.0
C      1  0.5272330000000  0.5817120000000  0.5576970000000 1.0
C      1  0.4449650000000  0.5788370000000  0.4937910000000 1.0
C      1  0.4016500000000  0.5255270000000  0.4902420000000 1.0
C      1  0.5483120000000  0.5227400000000  0.4159960000000 1.0
C      1  0.5447670000000  0.5195160000000  0.5923500000000 1.0
C      1  0.4906150000000  0.5024510000000  0.5975690000000 1.0
C      1  0.4205400000000  0.5063570000000  0.4390270000000 1.0
C      1  0.5851000000000  0.5021980000000  0.4584120000000 1.0
C      1  0.5854960000000  0.4541280000000  0.5272140000000 1.0
C      1  0.4262570000000  0.4467760000000  0.5647690000000 1.0
C      1  0.4783910000000  0.4525070000000  0.4101650000000 1.0
C      1  0.3909150000000  0.5220910000000  0.5161360000000 1.0
C      1  0.5260410000000  0.5149160000000  0.3915220000000 1.0
C      1  0.5720170000000  0.5131040000000  0.5801760000000 1.0
C      1  0.5002230000000  0.5443860000000  0.4199270000000 1.0
C      1  0.5570890000000  0.5541150000000  0.5237960000000 1.0
C      1  0.4580820000000  0.5482990000000  0.5396640000000 1.0
C      1  0.4514000000000  0.5168100000000  0.4760640000000 1.0
C      1  0.5342790000000  0.5188900000000  0.4584990000000 1.0
C      1  0.5066920000000  0.5177440000000  0.5516840000000 1.0
C      1  0.4736330000000  0.5934680000000  0.4411810000000 1.0
C      1  0.5589450000000  0.5878950000000  0.5010200000000 1.0
C      1  0.4654310000000  0.5857070000000  0.5581260000000 1.0
C      1  0.5310220000000  0.5468120000000  0.4625160000000 1.0
C      1  0.5319610000000  0.5377720000000  0.5594080000000 1.0
C      1  0.4392200000000  0.5362150000000  0.4983110000000 1.0
C      1  0.5042880000000  0.5864020000000  0.4844950000000 1.0
C      1  0.5103650000000  0.5809080000000  0.5234820000000 1.0
C      1  0.4810420000000  0.5766820000000  0.5060060000000 1.0
C      1  0.5526250000000  0.5704940000000  0.5467920000000 1.0
C      1  0.4454980000000  0.5689740000000  0.5250760000000 1.0
C      1  0.5047150000000  0.5756890000000  0.4235320000000 1.0
C      1  0.4927590000000  0.4834500000000  0.5291840000000 1.0
C      1  0.4757310000000  0.4940760000000  0.4829880000000 1.0
C      1  0.5211150000000  0.4930980000000  0.4975820000000 1.0
C      1  0.5038880000000  0.5338210000000  0.3918320000000 1.0
C      1  0.5822930000000  0.5357200000000  0.5628810000000 1.0
C      1  0.4092700000000  0.5282990000000  0.5413350000000 1.0
C      1  0.5831450000000  0.5748380000000  0.5018900000000 1.0
C      1  0.4528750000000  0.5692350000000  0.5753740000000 1.0
C      1  0.4707980000000  0.5710530000000  0.4214750000000 1.0
C      1  0.5448040000000  0.4772880000000  0.4440120000000 1.0
C      1  0.5279480000000  0.4764170000000  0.5709310000000 1.0
C      1  0.4273320000000  0.4795410000000  0.4828680000000 1.0
C      1  0.4834100000000  0.5401410000000  0.4708340000000 1.0
C      1  0.5266700000000  0.5410610000000  0.5017980000000 1.0
C      1  0.4918470000000  0.5411720000000  0.5207270000000 1.0
C      1  0.4381360000000  0.5030550000000  0.5680690000000 1.0
C      1  0.4686250000000  0.5039210000000  0.4057460000000 1.0
C      1  0.5874470000000  0.5069400000000  0.5226360000000 1.0
C      1  0.4344760000000  0.4347230000000  0.5138530000000 1.0
C      1  0.5188010000000  0.4344190000000  0.4396280000000 1.0
C      1  0.5430100000000  0.4304410000000  0.5520430000000 1.0
C      1  0.5527050000000  0.4152130000000  0.5025150000000 1.0
C      1  0.4651470000000  0.4128400000000  0.5461320000000 1.0
C      1  0.4831130000000  0.4180030000000  0.4469510000000 1.0
C      1  0.4553140000000  0.4653500000000  0.6035780000000 1.0
C      1  0.4298510000000  0.4578810000000  0.4120240000000 1.0
C      1  0.6083940000000  0.4645120000000  0.4847980000000 1.0
C      1  0.4512930000000  0.4419930000000  0.4190580000000 1.0
C      1  0.5957480000000  0.4447410000000  0.4997370000000 1.0
C      1  0.4504340000000  0.4407470000000  0.5880080000000 1.0
C      1  0.5750380000000  0.4479990000000  0.4545080000000 1.0
C      1  0.5011500000000  0.4490190000000  0.5956310000000 1.0
C      1  0.4270220000000  0.4519520000000  0.4513660000000 1.0
C      1  0.5476660000000  0.4187760000000  0.4621290000000 1.0
C      1  0.5037690000000  0.4205150000000  0.5678120000000 1.0
C      1  0.4495070000000  0.4163420000000  0.4820030000000 1.0
C      1  0.4903350000000  0.5526690000000  0.5829120000000 1.0
C      1  0.4382860000000  0.5562400000000  0.4452950000000 1.0
C      1  0.5706420000000  0.5536020000000  0.4652180000000 1.0
C      1  0.4541050000000  0.4621730000000  0.5546640000000 1.0
C      1  0.4920470000000  0.4676560000000  0.4359830000000 1.0
C      1  0.5559890000000  0.4663130000000  0.5215000000000 1.0
C      1  0.5258480000000  0.4073240000000  0.4859080000000 1.0
C      1  0.5062240000000  0.4191270000000  0.5372510000000 1.0
C      1  0.4804000000000  0.4105840000000  0.4858090000000 1.0
C      1  0.5869670000000  0.4838840000000  0.5392540000000 1.0
C      1  0.4264020000000  0.4786330000000  0.5525320000000 1.0
C      1  0.4856010000000  0.4817700000000  0.3993580000000 1.0
C      1  0.5713810000000  0.5100750000000  0.4963000000000 1.0
C      1  0.4661860000000  0.5059920000000  0.5657060000000 1.0
C      1  0.4619600000000  0.5078320000000  0.4329380000000 1.0
C      1  0.4908100000000  0.6004620000000  0.4609070000000 1.0
C      1  0.5324790000000  0.5919760000000  0.5020350000000 1.0
C      1  0.4804100000000  0.5890480000000  0.5368010000000 1.0
C      1  0.4703750000000  0.4860250000000  0.4499800000000 1.0
C      1  0.5518680000000  0.4875960000000  0.4955660000000 1.0
C      1  0.4789800000000  0.4814240000000  0.5566050000000 1.0
C      1  0.5184650000000  0.5512590000000  0.5333670000000 1.0
C      1  0.4706760000000  0.5464770000000  0.4990030000000 1.0
C      1  0.5087870000000  0.5555320000000  0.4799410000000 1.0
C      1  0.4558160000000  0.4133000000000  0.5160630000000 1.0
C      1  0.5145710000000  0.4083720000000  0.4558870000000 1.0
C      1  0.5351370000000  0.4111640000000  0.5291280000000 1.0
C      1  0.4243750000000  0.4398290000000  0.4821320000000 1.0
C      1  0.5513690000000  0.4390650000000  0.4347380000000 1.0
C      1  0.5296400000000  0.4379700000000  0.5817520000000 1.0
END
