TITL C-2782225-7408-1175 0.00270320850007674 125000 -746.552774176474 0 0 131 (C1) n - 1
REM
REM in /home/nfs/bkarasulu/CARBON/AIRSS/Generating-Clusters/REBO/Higher-Symm/SD-CG/HFTN-CG
REM
REM
REM
REM
REM
REM ./C.cell (12c818d87b63d06a65506943cc24bca4)
REM
REM compiler GCC version 9.2.1 20190827 (Red Hat 9.2.1-1)
REM options -cpp -mtune=generic -march=x86-64 -g -O0 -fpre-include=/usr/include/finclude/math-vector-fortran.h
REM seed -317734314 1434747139 -1132632356 -1943052344 328811893 -1161149115 1394768262 2012993366 -974324416 1599565660 538283154 -792904031 1968258766 794458955 1160638480 -1263536478 -241825580 524461720 1099503110 -1580880251 160517714 1729790880 -597847693 -635410888 1377299801 1429005429 1948907186 523256145 559099220 -121513970 -647726152 -1792904002 894773204
REM
CELL 1.54180   50.00000   50.00000   50.00000   90.00000   90.00000   90.00000
LATT -1
SFAC C  
C      1  0.4987250000000  0.4882700000000  0.4354240000000 1.0
C      1  0.4971190000000  0.5037540000000  0.5608290000000 1.0
C      1  0.4031190000000  0.4549600000000  0.5132340000000 1.0
C      1  0.3958000000000  0.5448660000000  0.4661560000000 1.0
C      1  0.4951940000000  0.5148820000000  0.4058840000000 1.0
C      1  0.4933200000000  0.4794790000000  0.5921500000000 1.0
C      1  0.4393860000000  0.4173900000000  0.5346980000000 1.0
C      1  0.4422250000000  0.5842180000000  0.4522370000000 1.0
C      1  0.4574760000000  0.4606710000000  0.4989940000000 1.0
C      1  0.4506720000000  0.5444600000000  0.5096800000000 1.0
C      1  0.5016360000000  0.4259400000000  0.5807310000000 1.0
C      1  0.4904580000000  0.5729480000000  0.4248690000000 1.0
C      1  0.5435590000000  0.5515960000000  0.5502180000000 1.0
C      1  0.5373230000000  0.4353510000000  0.4592870000000 1.0
C      1  0.4773510000000  0.5293590000000  0.5663430000000 1.0
C      1  0.4722360000000  0.4840630000000  0.4424750000000 1.0
C      1  0.5541340000000  0.4077890000000  0.4966460000000 1.0
C      1  0.5414840000000  0.5831340000000  0.5122270000000 1.0
C      1  0.5668380000000  0.5085360000000  0.4459310000000 1.0
C      1  0.5753230000000  0.4872160000000  0.5527650000000 1.0
C      1  0.4078320000000  0.4827620000000  0.4848400000000 1.0
C      1  0.4049390000000  0.5173600000000  0.5043490000000 1.0
C      1  0.4310090000000  0.5120690000000  0.5621860000000 1.0
C      1  0.4275930000000  0.4930330000000  0.4356300000000 1.0
C      1  0.4710440000000  0.5438630000000  0.5369020000000 1.0
C      1  0.4708840000000  0.4734590000000  0.4723550000000 1.0
C      1  0.4506620000000  0.4405280000000  0.5328510000000 1.0
C      1  0.4512550000000  0.5617590000000  0.4616580000000 1.0
C      1  0.5871010000000  0.5278100000000  0.5232990000000 1.0
C      1  0.5773870000000  0.4764390000000  0.4841060000000 1.0
C      1  0.4915730000000  0.4737310000000  0.5454920000000 1.0
C      1  0.4918550000000  0.5275280000000  0.4742110000000 1.0
C      1  0.5419860000000  0.5182110000000  0.4940860000000 1.0
C      1  0.5510860000000  0.4918870000000  0.5103370000000 1.0
C      1  0.5364280000000  0.4485090000000  0.5490640000000 1.0
C      1  0.5265910000000  0.5466930000000  0.4568810000000 1.0
C      1  0.5267240000000  0.5858840000000  0.4629330000000 1.0
C      1  0.5295330000000  0.4102210000000  0.5419180000000 1.0
C      1  0.5201810000000  0.5066110000000  0.5385780000000 1.0
C      1  0.5214060000000  0.4920010000000  0.4569710000000 1.0
C      1  0.4978090000000  0.4347580000000  0.5087270000000 1.0
C      1  0.4914770000000  0.5680140000000  0.4948850000000 1.0
C      1  0.4847290000000  0.4131400000000  0.4558860000000 1.0
C      1  0.4330650000000  0.6183140000000  0.4916330000000 1.0
C      1  0.4315160000000  0.5694910000000  0.4976270000000 1.0
C      1  0.4430210000000  0.4339490000000  0.4895400000000 1.0
C      1  0.4086280000000  0.4866170000000  0.5187420000000 1.0
C      1  0.4011220000000  0.5135170000000  0.4716790000000 1.0
C      1  0.5390370000000  0.5412690000000  0.4264970000000 1.0
C      1  0.5474440000000  0.4508060000000  0.5804570000000 1.0
C      1  0.5911190000000  0.5173290000000  0.5516190000000 1.0
C      1  0.5857240000000  0.4829130000000  0.4558390000000 1.0
C      1  0.4625390000000  0.5091370000000  0.4048330000000 1.0
C      1  0.4622250000000  0.4917490000000  0.5943780000000 1.0
C      1  0.5449110000000  0.4690100000000  0.4226920000000 1.0
C      1  0.5590310000000  0.5096070000000  0.5791060000000 1.0
C      1  0.5329770000000  0.4660580000000  0.5133200000000 1.0
C      1  0.5356860000000  0.5448900000000  0.5021550000000 1.0
C      1  0.4667920000000  0.4135250000000  0.4849060000000 1.0
C      1  0.4457610000000  0.5951040000000  0.4905270000000 1.0
C      1  0.4505460000000  0.5335360000000  0.4487910000000 1.0
C      1  0.4519410000000  0.4690420000000  0.5467330000000 1.0
C      1  0.4784750000000  0.4541890000000  0.5208970000000 1.0
C      1  0.4684350000000  0.5497890000000  0.4851150000000 1.0
C      1  0.5682110000000  0.4575190000000  0.5542240000000 1.0
C      1  0.5596360000000  0.5394810000000  0.4542610000000 1.0
C      1  0.4628410000000  0.5123930000000  0.4707040000000 1.0
C      1  0.4694820000000  0.4922240000000  0.5288800000000 1.0
C      1  0.5290100000000  0.4240800000000  0.5724020000000 1.0
C      1  0.5221590000000  0.5701500000000  0.4328740000000 1.0
C      1  0.5146680000000  0.5060510000000  0.5899380000000 1.0
C      1  0.5122470000000  0.4852570000000  0.4066780000000 1.0
C      1  0.5189530000000  0.4612230000000  0.4566790000000 1.0
C      1  0.5211560000000  0.5371220000000  0.5384780000000 1.0
C      1  0.5424260000000  0.4962840000000  0.4336430000000 1.0
C      1  0.5417500000000  0.4908400000000  0.5574810000000 1.0
C      1  0.4747440000000  0.5938810000000  0.4821370000000 1.0
C      1  0.4823470000000  0.4050230000000  0.5140890000000 1.0
C      1  0.4669140000000  0.4654310000000  0.5754690000000 1.0
C      1  0.4733570000000  0.5337820000000  0.4240210000000 1.0
C      1  0.4537800000000  0.5152430000000  0.5805620000000 1.0
C      1  0.4526410000000  0.4892110000000  0.4227410000000 1.0
C      1  0.5040930000000  0.4007820000000  0.4886420000000 1.0
C      1  0.4939230000000  0.6062240000000  0.5056410000000 1.0
C      1  0.5234960000000  0.4383640000000  0.5222430000000 1.0
C      1  0.5181790000000  0.5584900000000  0.4838470000000 1.0
C      1  0.4621470000000  0.4412530000000  0.4123710000000 1.0
C      1  0.4894720000000  0.5523580000000  0.5835570000000 1.0
C      1  0.6177440000000  0.5197150000000  0.4657480000000 1.0
C      1  0.6282620000000  0.4860620000000  0.5188010000000 1.0
C      1  0.5559060000000  0.4315730000000  0.4798590000000 1.0
C      1  0.5576990000000  0.5655040000000  0.5284310000000 1.0
C      1  0.4350340000000  0.4928820000000  0.4670160000000 1.0
C      1  0.4520140000000  0.5169500000000  0.5381770000000 1.0
C      1  0.6001850000000  0.5092830000000  0.4841470000000 1.0
C      1  0.6050510000000  0.4956890000000  0.5078110000000 1.0
C      1  0.5114860000000  0.5820730000000  0.5183200000000 1.0
C      1  0.5026160000000  0.4308110000000  0.4784020000000 1.0
C      1  0.5503960000000  0.5817650000000  0.4844160000000 1.0
C      1  0.5559180000000  0.4152750000000  0.5245210000000 1.0
C      1  0.5678280000000  0.4421380000000  0.5252470000000 1.0
C      1  0.5674000000000  0.5573850000000  0.4813270000000 1.0
C      1  0.5146190000000  0.4938160000000  0.5096920000000 1.0
C      1  0.5147760000000  0.5089970000000  0.4799040000000 1.0
C      1  0.5120090000000  0.4263530000000  0.4397910000000 1.0
C      1  0.5373550000000  0.5518660000000  0.5794470000000 1.0
C      1  0.5132170000000  0.5651770000000  0.5867510000000 1.0
C      1  0.4744940000000  0.4373140000000  0.4346180000000 1.0
C      1  0.5686820000000  0.5097830000000  0.4793720000000 1.0
C      1  0.5773480000000  0.4947650000000  0.5221340000000 1.0
C      1  0.5167290000000  0.4541060000000  0.4205900000000 1.0
C      1  0.5389060000000  0.5255010000000  0.5908060000000 1.0
C      1  0.4203290000000  0.5221520000000  0.4449240000000 1.0
C      1  0.4258600000000  0.4875000000000  0.5446950000000 1.0
C      1  0.4081690000000  0.5639090000000  0.4760040000000 1.0
C      1  0.4151120000000  0.4336900000000  0.5074780000000 1.0
C      1  0.4997460000000  0.5544890000000  0.5312640000000 1.0
C      1  0.4891340000000  0.4524030000000  0.4595650000000 1.0
C      1  0.5690860000000  0.4527550000000  0.4971720000000 1.0
C      1  0.5747250000000  0.5492300000000  0.5098810000000 1.0
C      1  0.4356370000000  0.5151200000000  0.5112820000000 1.0
C      1  0.4447630000000  0.4898830000000  0.4977120000000 1.0
C      1  0.4848000000000  0.4429070000000  0.5587480000000 1.0
C      1  0.4873170000000  0.5493260000000  0.4498700000000 1.0
C      1  0.5257540000000  0.4746840000000  0.5828370000000 1.0
C      1  0.5278510000000  0.5157420000000  0.4130250000000 1.0
C      1  0.4958130000000  0.4148230000000  0.5429590000000 1.0
C      1  0.4932800000000  0.5820160000000  0.4576690000000 1.0
C      1  0.4215350000000  0.4564290000000  0.4754170000000 1.0
C      1  0.4107980000000  0.5463900000000  0.5117670000000 1.0
C      1  0.4789400000000  0.4958660000000  0.4967430000000 1.0
END
