TITL C-2782229-3092-1422 7.29527935505682e-08 125000 -51.6947700181914 0 0 9 (D3h) n - 1
REM
REM in /home/nfs/bkarasulu/CARBON/AIRSS/Generating-Clusters/REBO/Higher-Symm/SD-CG/HFTN-CG
REM
REM
REM
REM
REM
REM ./C.cell (12c818d87b63d06a65506943cc24bca4)
REM
REM compiler GCC version 9.2.1 20190827 (Red Hat 9.2.1-1)
REM options -cpp -mtune=generic -march=x86-64 -g -O0 -fpre-include=/usr/include/finclude/math-vector-fortran.h
REM seed 1395137695 -58939484 -1883856542 567120875 -1301890360 444272393 653588932 -1001759367 1775081629 -259489217 -961230261 1855674118 -161066005 -1923739223 566345792 -1237918806 -471784861 -157003561 -1087947549 2060956581 734068982 1563259426 -439677337 -982882237 444777013 1411910417 -981673322 -1649217121 1356840301 -8250719 1604198084 -23091464 -1037510130
REM
CELL 1.54180   50.00000   50.00000   50.00000   90.00000   90.00000   90.00000
LATT -1
SFAC C  
C      1  0.4849770000000  0.5000000000000  0.4632770000000 1.0
C      1  0.5120960000000  0.5000000000000  0.4622120000000 1.0
C      1  0.5335560000000  0.5000000000000  0.4788280000000 1.0
C      1  0.5393140000000  0.5000000000000  0.5053510000000 1.0
C      1  0.5266770000000  0.5000000000000  0.5293700000000 1.0
C      1  0.5015570000000  0.5000000000000  0.5396460000000 1.0
C      1  0.4757090000000  0.5000000000000  0.5313720000000 1.0
C      1  0.4612270000000  0.5000000000000  0.5084180000000 1.0
C      1  0.4648870000000  0.5000000000000  0.4815260000000 1.0
END
