TITL C-2782240-8521-1246 -0.000109506677843111 125000 -167.073356173607 0 0 30 (C1) n - 1
REM
REM in /home/nfs/bkarasulu/CARBON/AIRSS/Generating-Clusters/REBO/Higher-Symm/SD-CG/HFTN-CG
REM
REM
REM
REM
REM
REM ./C.cell (12c818d87b63d06a65506943cc24bca4)
REM
REM compiler GCC version 9.2.1 20190827 (Red Hat 9.2.1-1)
REM options -cpp -mtune=generic -march=x86-64 -g -O0 -fpre-include=/usr/include/finclude/math-vector-fortran.h
REM seed 1637615275 -2120621351 718298847 1703099078 -1506995125 148694419 598692294 -1762888186 -547029697 -127452195 -459001380 -1556776124 -511975121 -1048689416 665280084 -1860377552 11397516 870465687 1033180621 163120550 -101541805 -481180293 365430721 -2097185415 2145525077 371081091 -1870800005 -1392419548 -1680308063 -303913784 1209803000 -546130235 769262889
REM
CELL 1.54180   50.00000   50.00000   50.00000   90.00000   90.00000   90.00000
LATT -1
SFAC C  
C      1  0.5625400000000  0.5039150000000  0.4630840000000 1.0
C      1  0.4380290000000  0.4994910000000  0.5398300000000 1.0
C      1  0.5474860000000  0.4921890000000  0.4433580000000 1.0
C      1  0.4536070000000  0.5125050000000  0.5583990000000 1.0
C      1  0.5098740000000  0.4938400000000  0.5415880000000 1.0
C      1  0.4833730000000  0.4992680000000  0.4559270000000 1.0
C      1  0.4996330000000  0.5228500000000  0.5387740000000 1.0
C      1  0.5013810000000  0.4727400000000  0.4584700000000 1.0
C      1  0.6154300000000  0.5534850000000  0.4901240000000 1.0
C      1  0.3897820000000  0.4446250000000  0.5157210000000 1.0
C      1  0.5299690000000  0.4613630000000  0.5068200000000 1.0
C      1  0.4695760000000  0.5345670000000  0.4911090000000 1.0
C      1  0.4427750000000  0.5331190000000  0.5000730000000 1.0
C      1  0.5569220000000  0.4681680000000  0.5013990000000 1.0
C      1  0.4332750000000  0.4793300000000  0.5129660000000 1.0
C      1  0.5684020000000  0.5236950000000  0.4897740000000 1.0
C      1  0.5190570000000  0.4713240000000  0.5307220000000 1.0
C      1  0.4750860000000  0.5223600000000  0.4663700000000 1.0
C      1  0.5445400000000  0.5355430000000  0.5049020000000 1.0
C      1  0.4563320000000  0.4704280000000  0.4947190000000 1.0
C      1  0.4747030000000  0.4679370000000  0.4789960000000 1.0
C      1  0.5209740000000  0.5368520000000  0.5163080000000 1.0
C      1  0.4904230000000  0.5360270000000  0.5091910000000 1.0
C      1  0.5124800000000  0.4576800000000  0.4849570000000 1.0
C      1  0.4292350000000  0.5124150000000  0.5124730000000 1.0
C      1  0.5693070000000  0.4903460000000  0.4907690000000 1.0
C      1  0.5252940000000  0.4771930000000  0.4395900000000 1.0
C      1  0.4769380000000  0.5263930000000  0.5591670000000 1.0
C      1  0.5938720000000  0.5398290000000  0.4899640000000 1.0
C      1  0.4097050000000  0.4605230000000  0.5144590000000 1.0
END
