TITL C-2782232-2968-446 0.00160967987464805 125000 -174.511525022854 0 0 33 (C1) n - 1
REM
REM in /home/nfs/bkarasulu/CARBON/AIRSS/Generating-Clusters/REBO/Higher-Symm/SD-CG/HFTN-CG
REM
REM
REM
REM
REM
REM ./C.cell (12c818d87b63d06a65506943cc24bca4)
REM
REM compiler GCC version 9.2.1 20190827 (Red Hat 9.2.1-1)
REM options -cpp -mtune=generic -march=x86-64 -g -O0 -fpre-include=/usr/include/finclude/math-vector-fortran.h
REM seed 1389566834 -901420656 -1668080286 1088393340 -309371874 -425584818 1662650991 2034148747 817382216 76288474 -1544019170 29591171 -563038117 111739938 705276432 -807052335 -1021130423 1314283131 -913039871 1099008369 -1423103871 289350313 -206663484 247588674 -1193742518 187255394 1805435110 1894441977 -771176711 1961848037 -967984780 1167595057 903250776
REM
CELL 1.54180   50.00000   50.00000   50.00000   90.00000   90.00000   90.00000
LATT -1
SFAC C  
C      1  0.4664810000000  0.5160230000000  0.5361100000000 1.0
C      1  0.5162310000000  0.5309510000000  0.5322870000000 1.0
C      1  0.5194350000000  0.4633810000000  0.5357200000000 1.0
C      1  0.4217120000000  0.5118870000000  0.4590470000000 1.0
C      1  0.5572800000000  0.5599450000000  0.4604480000000 1.0
C      1  0.5231420000000  0.4270660000000  0.4555770000000 1.0
C      1  0.4827170000000  0.5453380000000  0.4756250000000 1.0
C      1  0.5496580000000  0.4937050000000  0.4830380000000 1.0
C      1  0.4707920000000  0.4610810000000  0.4897670000000 1.0
C      1  0.4554060000000  0.5366810000000  0.5209660000000 1.0
C      1  0.5427210000000  0.5263920000000  0.5261920000000 1.0
C      1  0.5045140000000  0.4406290000000  0.5264750000000 1.0
C      1  0.5183430000000  0.4948130000000  0.4937640000000 1.0
C      1  0.4866490000000  0.4884790000000  0.4959340000000 1.0
C      1  0.4961650000000  0.5182270000000  0.4880170000000 1.0
C      1  0.4981910000000  0.5136780000000  0.5485630000000 1.0
C      1  0.5073760000000  0.4813330000000  0.5537420000000 1.0
C      1  0.4753460000000  0.4869340000000  0.5512990000000 1.0
C      1  0.4965340000000  0.4397200000000  0.4963270000000 1.0
C      1  0.4533960000000  0.5354050000000  0.4900310000000 1.0
C      1  0.5523750000000  0.5250520000000  0.4963420000000 1.0
C      1  0.5394610000000  0.4618400000000  0.4864400000000 1.0
C      1  0.4472410000000  0.4855230000000  0.4918870000000 1.0
C      1  0.5142850000000  0.5534880000000  0.4836460000000 1.0
C      1  0.4667370000000  0.4277310000000  0.4850700000000 1.0
C      1  0.4543360000000  0.5628050000000  0.4698160000000 1.0
C      1  0.5800570000000  0.5084780000000  0.4854510000000 1.0
C      1  0.4399210000000  0.5100820000000  0.4797920000000 1.0
C      1  0.5411760000000  0.5476030000000  0.4791720000000 1.0
C      1  0.5210070000000  0.4424980000000  0.4783780000000 1.0
C      1  0.5023820000000  0.5416480000000  0.5101750000000 1.0
C      1  0.5346370000000  0.4750020000000  0.5148310000000 1.0
C      1  0.4642960000000  0.4865810000000  0.5200680000000 1.0
END
