TITL C-2782231-7322-935 0.00170908696368281 125000 -615.053603971395 0 0 109 (C1) n - 1
REM
REM in /home/nfs/bkarasulu/CARBON/AIRSS/Generating-Clusters/REBO/Higher-Symm/SD-CG/HFTN-CG
REM
REM
REM
REM
REM
REM ./C.cell (12c818d87b63d06a65506943cc24bca4)
REM
REM compiler GCC version 9.2.1 20190827 (Red Hat 9.2.1-1)
REM options -cpp -mtune=generic -march=x86-64 -g -O0 -fpre-include=/usr/include/finclude/math-vector-fortran.h
REM seed -682159926 -1645464675 1064637569 -1066396834 267031967 923296975 383871973 1073804454 1706065294 1191001989 1298233999 881017518 1260084744 -570336728 183443227 -942767992 2032164619 277751142 -1864155688 -964727597 1274760854 -1924876125 -1700735819 1986270107 -482309686 -842674605 1935256765 1573351452 -148485438 -1758780508 -1746465674 1925902574 -29038337
REM
CELL 1.54180   50.00000   50.00000   50.00000   90.00000   90.00000   90.00000
LATT -1
SFAC C  
C      1  0.4414700000000  0.5541500000000  0.5425620000000 1.0
C      1  0.4534140000000  0.5641770000000  0.4559600000000 1.0
C      1  0.4553010000000  0.4754470000000  0.4242180000000 1.0
C      1  0.4511640000000  0.4292580000000  0.5048070000000 1.0
C      1  0.4561290000000  0.4830800000000  0.5699930000000 1.0
C      1  0.5252580000000  0.4742520000000  0.4583280000000 1.0
C      1  0.5248980000000  0.4474010000000  0.5125300000000 1.0
C      1  0.5296890000000  0.4986050000000  0.5515570000000 1.0
C      1  0.5310380000000  0.5568570000000  0.5177930000000 1.0
C      1  0.5309860000000  0.5310700000000  0.4604380000000 1.0
C      1  0.4214610000000  0.4806870000000  0.5187800000000 1.0
C      1  0.4159500000000  0.5087070000000  0.5253970000000 1.0
C      1  0.4102800000000  0.5214120000000  0.4983910000000 1.0
C      1  0.4109220000000  0.4990270000000  0.4773160000000 1.0
C      1  0.4138970000000  0.4723780000000  0.4910450000000 1.0
C      1  0.5516760000000  0.5406750000000  0.5220630000000 1.0
C      1  0.5452630000000  0.5353620000000  0.4829510000000 1.0
C      1  0.5388680000000  0.4936830000000  0.4722110000000 1.0
C      1  0.5408050000000  0.4645870000000  0.4990560000000 1.0
C      1  0.5423840000000  0.4897430000000  0.5295490000000 1.0
C      1  0.4380000000000  0.5177160000000  0.5998590000000 1.0
C      1  0.4242540000000  0.5961070000000  0.5218130000000 1.0
C      1  0.4280450000000  0.5453100000000  0.4182990000000 1.0
C      1  0.4365050000000  0.4295910000000  0.4190410000000 1.0
C      1  0.4307520000000  0.4175940000000  0.5479970000000 1.0
C      1  0.4508980000000  0.4274250000000  0.5318920000000 1.0
C      1  0.4567340000000  0.5072120000000  0.5825160000000 1.0
C      1  0.4421810000000  0.5753700000000  0.5246460000000 1.0
C      1  0.4500990000000  0.5461090000000  0.4341160000000 1.0
C      1  0.4540100000000  0.4483760000000  0.4290080000000 1.0
C      1  0.5837420000000  0.5215570000000  0.5745120000000 1.0
C      1  0.5874310000000  0.5757650000000  0.5009120000000 1.0
C      1  0.5915340000000  0.5192930000000  0.4283950000000 1.0
C      1  0.5812960000000  0.4346400000000  0.4540170000000 1.0
C      1  0.5830770000000  0.4369490000000  0.5436950000000 1.0
C      1  0.5267240000000  0.5729520000000  0.5616230000000 1.0
C      1  0.5352150000000  0.5751870000000  0.4453150000000 1.0
C      1  0.5343520000000  0.4798310000000  0.4120780000000 1.0
C      1  0.5257530000000  0.4063400000000  0.4880480000000 1.0
C      1  0.5304750000000  0.4620030000000  0.5815810000000 1.0
C      1  0.4823600000000  0.4985430000000  0.5298280000000 1.0
C      1  0.4834630000000  0.5323920000000  0.5196750000000 1.0
C      1  0.4825330000000  0.5286650000000  0.4761050000000 1.0
C      1  0.4797050000000  0.4836520000000  0.4693570000000 1.0
C      1  0.4768080000000  0.4598370000000  0.5051660000000 1.0
C      1  0.4341330000000  0.5232240000000  0.5419210000000 1.0
C      1  0.4375870000000  0.5362700000000  0.4940310000000 1.0
C      1  0.4381180000000  0.5027100000000  0.4631360000000 1.0
C      1  0.4320560000000  0.4531560000000  0.4791940000000 1.0
C      1  0.4522840000000  0.4764470000000  0.5162260000000 1.0
C      1  0.5711090000000  0.4804760000000  0.5195090000000 1.0
C      1  0.5730120000000  0.5142680000000  0.5245530000000 1.0
C      1  0.5748130000000  0.5256400000000  0.4934380000000 1.0
C      1  0.5688470000000  0.5023530000000  0.4698880000000 1.0
C      1  0.5695370000000  0.4725100000000  0.4863390000000 1.0
C      1  0.5431140000000  0.5083430000000  0.4237930000000 1.0
C      1  0.5335520000000  0.4296420000000  0.4653760000000 1.0
C      1  0.5359550000000  0.4479700000000  0.5525250000000 1.0
C      1  0.5383620000000  0.5411050000000  0.5655780000000 1.0
C      1  0.5426640000000  0.5745300000000  0.4759880000000 1.0
C      1  0.4948890000000  0.5650290000000  0.5565790000000 1.0
C      1  0.5034240000000  0.5624730000000  0.4460600000000 1.0
C      1  0.5024020000000  0.4801870000000  0.4157240000000 1.0
C      1  0.4942850000000  0.4143750000000  0.4948780000000 1.0
C      1  0.4996200000000  0.4716030000000  0.5788540000000 1.0
C      1  0.5311380000000  0.4594120000000  0.4340740000000 1.0
C      1  0.5279230000000  0.4178260000000  0.5160320000000 1.0
C      1  0.5337470000000  0.4922280000000  0.5804250000000 1.0
C      1  0.5217930000000  0.5804150000000  0.5313180000000 1.0
C      1  0.5384200000000  0.5459690000000  0.4362360000000 1.0
C      1  0.5651810000000  0.5258640000000  0.5557430000000 1.0
C      1  0.5681530000000  0.5591190000000  0.4906280000000 1.0
C      1  0.5692340000000  0.5106210000000  0.4396880000000 1.0
C      1  0.5610510000000  0.4449650000000  0.4682300000000 1.0
C      1  0.5632580000000  0.4542640000000  0.5391810000000 1.0
C      1  0.4781810000000  0.4385070000000  0.5461640000000 1.0
C      1  0.4833340000000  0.5253030000000  0.5754960000000 1.0
C      1  0.4684460000000  0.5739510000000  0.5054760000000 1.0
C      1  0.4719300000000  0.5267760000000  0.4317180000000 1.0
C      1  0.4774280000000  0.4393130000000  0.4499740000000 1.0
C      1  0.4647370000000  0.4438300000000  0.4776910000000 1.0
C      1  0.4682740000000  0.4709930000000  0.5439640000000 1.0
C      1  0.4667540000000  0.5323610000000  0.5472240000000 1.0
C      1  0.4622020000000  0.5527770000000  0.4838850000000 1.0
C      1  0.4631510000000  0.4982210000000  0.4444040000000 1.0
C      1  0.4946020000000  0.4967140000000  0.5889370000000 1.0
C      1  0.4795210000000  0.5776620000000  0.5377240000000 1.0
C      1  0.4970040000000  0.5411560000000  0.4261990000000 1.0
C      1  0.4924260000000  0.4563810000000  0.4245280000000 1.0
C      1  0.4877870000000  0.4168660000000  0.5215680000000 1.0
C      1  0.5130660000000  0.5632030000000  0.4759990000000 1.0
C      1  0.5109060000000  0.5029850000000  0.4345130000000 1.0
C      1  0.5042480000000  0.4385940000000  0.4795360000000 1.0
C      1  0.5071790000000  0.4657280000000  0.5495370000000 1.0
C      1  0.5094920000000  0.5396550000000  0.5490290000000 1.0
C      1  0.5233050000000  0.5335520000000  0.4122780000000 1.0
C      1  0.5101840000000  0.4333780000000  0.4407080000000 1.0
C      1  0.5105670000000  0.4267950000000  0.5440060000000 1.0
C      1  0.5167470000000  0.5216810000000  0.5835710000000 1.0
C      1  0.4966490000000  0.5910010000000  0.5150320000000 1.0
C      1  0.5004770000000  0.4649410000000  0.4702530000000 1.0
C      1  0.5000500000000  0.4604630000000  0.5212360000000 1.0
C      1  0.5059730000000  0.5122230000000  0.5453730000000 1.0
C      1  0.5081750000000  0.5466040000000  0.5009180000000 1.0
C      1  0.5043090000000  0.5188150000000  0.4584110000000 1.0
C      1  0.5291780000000  0.4965840000000  0.5014890000000 1.0
C      1  0.4456560000000  0.5033250000000  0.4964030000000 1.0
C      1  0.4770270000000  0.5011740000000  0.4958460000000 1.0
C      1  0.5077910000000  0.5144350000000  0.5034660000000 1.0
END
