TITL C-2782232-2968-749 -0.00390881130140899 125000 -1040.05295181216 0 0 179 (C1) n - 1
REM
REM in /home/nfs/bkarasulu/CARBON/AIRSS/Generating-Clusters/REBO/Higher-Symm/SD-CG/HFTN-CG
REM
REM
REM
REM
REM
REM ./C.cell (12c818d87b63d06a65506943cc24bca4)
REM
REM compiler GCC version 9.2.1 20190827 (Red Hat 9.2.1-1)
REM options -cpp -mtune=generic -march=x86-64 -g -O0 -fpre-include=/usr/include/finclude/math-vector-fortran.h
REM seed -1917509932 -1477666480 34520021 677246614 -1917669035 1104599548 -58709224 869753724 1934721604 1853943953 590362126 -2006711850 586595171 493836489 -752928425 -1012902202 -1705972358 -2077212506 1841937561 829337099 -1792526988 1212588276 2073955441 -1103258783 -1618972497 2072283778 -1842913421 966330604 780611516 -2134484743 1936540654 1972876926 -1954850121
REM
CELL 1.54180   50.00000   50.00000   50.00000   90.00000   90.00000   90.00000
LATT -1
SFAC C  
C      1  0.4501540000000  0.4452780000000  0.4146140000000 1.0
C      1  0.5424540000000  0.5538920000000  0.5788150000000 1.0
C      1  0.5127670000000  0.4377850000000  0.4207670000000 1.0
C      1  0.4847480000000  0.5654190000000  0.5752950000000 1.0
C      1  0.5083760000000  0.5784380000000  0.4329590000000 1.0
C      1  0.4861690000000  0.4189660000000  0.5726650000000 1.0
C      1  0.5256100000000  0.4957440000000  0.4029280000000 1.0
C      1  0.4772590000000  0.5006100000000  0.5900640000000 1.0
C      1  0.4652420000000  0.5195360000000  0.5667600000000 1.0
C      1  0.5369370000000  0.4845720000000  0.4332930000000 1.0
C      1  0.4824450000000  0.3950100000000  0.5226640000000 1.0
C      1  0.5230680000000  0.6009370000000  0.4692840000000 1.0
C      1  0.4770210000000  0.5684230000000  0.4299600000000 1.0
C      1  0.5307600000000  0.4343100000000  0.5831290000000 1.0
C      1  0.4350680000000  0.4873410000000  0.5147090000000 1.0
C      1  0.5673180000000  0.5213820000000  0.4891960000000 1.0
C      1  0.5804530000000  0.4691250000000  0.4578980000000 1.0
C      1  0.4164930000000  0.5319470000000  0.5399800000000 1.0
C      1  0.4512810000000  0.4805420000000  0.4450720000000 1.0
C      1  0.5485300000000  0.5197020000000  0.5500290000000 1.0
C      1  0.5190050000000  0.4627460000000  0.5178970000000 1.0
C      1  0.4653920000000  0.5427280000000  0.4783990000000 1.0
C      1  0.4788760000000  0.5695410000000  0.4701070000000 1.0
C      1  0.5357500000000  0.4372140000000  0.5245140000000 1.0
C      1  0.4515950000000  0.4010720000000  0.4410920000000 1.0
C      1  0.5958070000000  0.5960290000000  0.5399250000000 1.0
C      1  0.4742110000000  0.4581040000000  0.5150060000000 1.0
C      1  0.5326570000000  0.5408740000000  0.4881210000000 1.0
C      1  0.4158640000000  0.4630600000000  0.4992870000000 1.0
C      1  0.5987280000000  0.5430060000000  0.4998920000000 1.0
C      1  0.5251470000000  0.4874660000000  0.5486960000000 1.0
C      1  0.4752350000000  0.5082650000000  0.4608720000000 1.0
C      1  0.5653960000000  0.5586580000000  0.5621700000000 1.0
C      1  0.4313970000000  0.4389390000000  0.4357520000000 1.0
C      1  0.5077100000000  0.4677730000000  0.3952490000000 1.0
C      1  0.4889740000000  0.5319460000000  0.5964260000000 1.0
C      1  0.5673160000000  0.5086170000000  0.4119890000000 1.0
C      1  0.4367430000000  0.4919940000000  0.5824990000000 1.0
C      1  0.5239690000000  0.5565070000000  0.4523380000000 1.0
C      1  0.4855100000000  0.4406320000000  0.5491370000000 1.0
C      1  0.4519680000000  0.3990980000000  0.4809880000000 1.0
C      1  0.5487520000000  0.5918110000000  0.5209090000000 1.0
C      1  0.3944050000000  0.5142930000000  0.4938080000000 1.0
C      1  0.6046670000000  0.4820850000000  0.5075410000000 1.0
C      1  0.5005590000000  0.3979290000000  0.4508690000000 1.0
C      1  0.4932610000000  0.5995700000000  0.5409400000000 1.0
C      1  0.4604760000000  0.5468390000000  0.5851950000000 1.0
C      1  0.5359580000000  0.4585130000000  0.4121210000000 1.0
C      1  0.4855110000000  0.5222870000000  0.4901860000000 1.0
C      1  0.5301190000000  0.4909810000000  0.5175230000000 1.0
C      1  0.4805110000000  0.5132620000000  0.3891970000000 1.0
C      1  0.5234680000000  0.4900350000000  0.6162140000000 1.0
C      1  0.4599240000000  0.4803380000000  0.5296010000000 1.0
C      1  0.5329830000000  0.5201100000000  0.4688390000000 1.0
C      1  0.4961900000000  0.3806520000000  0.4733300000000 1.0
C      1  0.5010980000000  0.6025080000000  0.5142450000000 1.0
C      1  0.4289150000000  0.4325520000000  0.5215050000000 1.0
C      1  0.5711760000000  0.5540020000000  0.4821580000000 1.0
C      1  0.5392030000000  0.4617570000000  0.4786880000000 1.0
C      1  0.4695130000000  0.5296990000000  0.5260360000000 1.0
C      1  0.5923290000000  0.5107210000000  0.5090670000000 1.0
C      1  0.4160530000000  0.4943050000000  0.4876780000000 1.0
C      1  0.5427150000000  0.4855420000000  0.5778360000000 1.0
C      1  0.4525200000000  0.5226290000000  0.4463500000000 1.0
C      1  0.5324810000000  0.5469430000000  0.5384790000000 1.0
C      1  0.4768680000000  0.4619240000000  0.4388660000000 1.0
C      1  0.4570520000000  0.3873170000000  0.5402980000000 1.0
C      1  0.5480920000000  0.5897890000000  0.4528770000000 1.0
C      1  0.5570880000000  0.4416020000000  0.4759700000000 1.0
C      1  0.4476670000000  0.5509660000000  0.5240000000000 1.0
C      1  0.5130300000000  0.5543160000000  0.5864350000000 1.0
C      1  0.4840130000000  0.4475560000000  0.4098030000000 1.0
C      1  0.5047940000000  0.4148840000000  0.4916560000000 1.0
C      1  0.4664300000000  0.5851920000000  0.5046190000000 1.0
C      1  0.5522830000000  0.5374290000000  0.5146240000000 1.0
C      1  0.4495080000000  0.4453220000000  0.4780830000000 1.0
C      1  0.3988850000000  0.5621130000000  0.4987690000000 1.0
C      1  0.5780570000000  0.4424840000000  0.4950870000000 1.0
C      1  0.5837600000000  0.5103540000000  0.5724090000000 1.0
C      1  0.4052280000000  0.4870930000000  0.4430950000000 1.0
C      1  0.4118210000000  0.4612730000000  0.4454130000000 1.0
C      1  0.5849080000000  0.5343970000000  0.5576710000000 1.0
C      1  0.4682670000000  0.5834370000000  0.5531330000000 1.0
C      1  0.5245420000000  0.4155760000000  0.4417630000000 1.0
C      1  0.5124730000000  0.5409400000000  0.5135990000000 1.0
C      1  0.4971650000000  0.4637520000000  0.4962460000000 1.0
C      1  0.5166120000000  0.5150820000000  0.6001840000000 1.0
C      1  0.4831660000000  0.4870220000000  0.4047390000000 1.0
C      1  0.4299630000000  0.5215000000000  0.5887900000000 1.0
C      1  0.5705910000000  0.4771410000000  0.4068780000000 1.0
C      1  0.4758400000000  0.5064050000000  0.5305130000000 1.0
C      1  0.4999050000000  0.4898300000000  0.4762900000000 1.0
C      1  0.4383000000000  0.5090290000000  0.5518580000000 1.0
C      1  0.5646280000000  0.4939550000000  0.4423930000000 1.0
C      1  0.5945170000000  0.5037050000000  0.4659980000000 1.0
C      1  0.3927630000000  0.4670030000000  0.5567800000000 1.0
C      1  0.5874850000000  0.4817660000000  0.5562190000000 1.0
C      1  0.4198510000000  0.5156090000000  0.4380330000000 1.0
C      1  0.4487010000000  0.4329500000000  0.5626810000000 1.0
C      1  0.5528270000000  0.5537670000000  0.4232290000000 1.0
C      1  0.5100000000000  0.4569830000000  0.5482390000000 1.0
C      1  0.4926420000000  0.5440860000000  0.4575280000000 1.0
C      1  0.4979820000000  0.4397490000000  0.4785560000000 1.0
C      1  0.4906300000000  0.5639880000000  0.5116970000000 1.0
C      1  0.5307190000000  0.6036310000000  0.5026150000000 1.0
C      1  0.4753760000000  0.3883070000000  0.4920850000000 1.0
C      1  0.5502050000000  0.4027410000000  0.4695500000000 1.0
C      1  0.4415850000000  0.5930870000000  0.5250610000000 1.0
C      1  0.5324390000000  0.3990330000000  0.4891660000000 1.0
C      1  0.4475490000000  0.6134440000000  0.5010560000000 1.0
C      1  0.4132330000000  0.4581970000000  0.5314620000000 1.0
C      1  0.5959750000000  0.5370890000000  0.4663300000000 1.0
C      1  0.5206220000000  0.4762570000000  0.4570580000000 1.0
C      1  0.4945090000000  0.5313180000000  0.5569100000000 1.0
C      1  0.4224340000000  0.4799850000000  0.5551850000000 1.0
C      1  0.5848790000000  0.5210970000000  0.4383670000000 1.0
C      1  0.5803100000000  0.5477600000000  0.5269410000000 1.0
C      1  0.4168410000000  0.4442180000000  0.4725000000000 1.0
C      1  0.5587220000000  0.4892600000000  0.5109450000000 1.0
C      1  0.4411140000000  0.5453620000000  0.4932850000000 1.0
C      1  0.4633570000000  0.4627420000000  0.5550830000000 1.0
C      1  0.5321720000000  0.5276360000000  0.4403770000000 1.0
C      1  0.4330170000000  0.5193070000000  0.5135940000000 1.0
C      1  0.5684440000000  0.4900750000000  0.4818640000000 1.0
C      1  0.5336480000000  0.4214590000000  0.5550390000000 1.0
C      1  0.4608210000000  0.5872980000000  0.4501150000000 1.0
C      1  0.5536660000000  0.4542540000000  0.5935020000000 1.0
C      1  0.4581350000000  0.5452380000000  0.4212070000000 1.0
C      1  0.5596990000000  0.5076800000000  0.5864900000000 1.0
C      1  0.4382190000000  0.4938630000000  0.4217620000000 1.0
C      1  0.5350180000000  0.5767230000000  0.5438260000000 1.0
C      1  0.4740990000000  0.4392870000000  0.4592540000000 1.0
C      1  0.5717680000000  0.5034940000000  0.5352190000000 1.0
C      1  0.4398070000000  0.4767040000000  0.4707050000000 1.0
C      1  0.4762260000000  0.4119440000000  0.4450180000000 1.0
C      1  0.5158070000000  0.5924100000000  0.5571390000000 1.0
C      1  0.5406120000000  0.5264070000000  0.4032570000000 1.0
C      1  0.4584670000000  0.4726080000000  0.5949280000000 1.0
C      1  0.4888560000000  0.4921830000000  0.4379540000000 1.0
C      1  0.5188470000000  0.5154300000000  0.5662440000000 1.0
C      1  0.4311460000000  0.5727430000000  0.4551140000000 1.0
C      1  0.5649490000000  0.4350150000000  0.5509380000000 1.0
C      1  0.4546470000000  0.4743300000000  0.4058730000000 1.0
C      1  0.5436440000000  0.5291550000000  0.5944240000000 1.0
C      1  0.3973400000000  0.5365080000000  0.5122310000000 1.0
C      1  0.5974140000000  0.4633750000000  0.4871170000000 1.0
C      1  0.4903720000000  0.5597500000000  0.5421650000000 1.0
C      1  0.5134970000000  0.4455290000000  0.4528790000000 1.0
C      1  0.5611320000000  0.5783870000000  0.4319130000000 1.0
C      1  0.4441210000000  0.4073960000000  0.5534150000000 1.0
C      1  0.5225620000000  0.5543550000000  0.4124310000000 1.0
C      1  0.4653110000000  0.4408140000000  0.5883160000000 1.0
C      1  0.4300190000000  0.4152550000000  0.4605160000000 1.0
C      1  0.5741150000000  0.5788530000000  0.5362460000000 1.0
C      1  0.5014390000000  0.5828490000000  0.4863390000000 1.0
C      1  0.4792300000000  0.4258390000000  0.5227980000000 1.0
C      1  0.5089810000000  0.5116250000000  0.4243660000000 1.0
C      1  0.4874160000000  0.4721470000000  0.5774370000000 1.0
C      1  0.4671040000000  0.5332330000000  0.3950690000000 1.0
C      1  0.5405890000000  0.4720130000000  0.6153850000000 1.0
C      1  0.6086420000000  0.4730750000000  0.5336310000000 1.0
C      1  0.3708770000000  0.5124710000000  0.4790870000000 1.0
C      1  0.5209200000000  0.4100100000000  0.5190940000000 1.0
C      1  0.4729500000000  0.6077350000000  0.4797160000000 1.0
C      1  0.5723600000000  0.4568050000000  0.5686160000000 1.0
C      1  0.4301700000000  0.5474830000000  0.4377550000000 1.0
C      1  0.4974130000000  0.5408910000000  0.4258730000000 1.0
C      1  0.5174820000000  0.4640030000000  0.5798240000000 1.0
C      1  0.5445090000000  0.5678510000000  0.4757000000000 1.0
C      1  0.4528410000000  0.4353620000000  0.5064400000000 1.0
C      1  0.4929450000000  0.6020720000000  0.4525860000000 1.0
C      1  0.5043600000000  0.4055240000000  0.5470410000000 1.0
C      1  0.5690420000000  0.4375410000000  0.5209710000000 1.0
C      1  0.4219920000000  0.5656960000000  0.4818880000000 1.0
C      1  0.4312100000000  0.5449250000000  0.5678520000000 1.0
C      1  0.5645370000000  0.4557470000000  0.4307510000000 1.0
C      1  0.5559520000000  0.4273470000000  0.4473940000000 1.0
C      1  0.4395220000000  0.5700840000000  0.5474500000000 1.0
C      1  0.5126800000000  0.5090170000000  0.5017410000000 1.0
END
