TITL C-2782231-7322-1428 -0.00489372907162099 125000 -450.88637716765 0 0 75 (C1) n - 1
REM
REM in /home/nfs/bkarasulu/CARBON/AIRSS/Generating-Clusters/REBO/Higher-Symm/SD-CG/HFTN-CG
REM
REM
REM
REM
REM
REM ./C.cell (12c818d87b63d06a65506943cc24bca4)
REM
REM compiler GCC version 9.2.1 20190827 (Red Hat 9.2.1-1)
REM options -cpp -mtune=generic -march=x86-64 -g -O0 -fpre-include=/usr/include/finclude/math-vector-fortran.h
REM seed -157188956 177609077 1040710337 2136127176 -153623651 -2027668960 1735362587 1741467394 596301092 -1207857459 -704233741 1846494466 320952839 -817007135 259149485 2026323881 -2065972079 1594048460 -218611001 -1083570862 1204822790 -1354634195 917675658 46295914 1499268572 -557874478 1281676254 1940759447 1661766814 1283140132 1320542438 -992344204 867025952
REM
CELL 1.54180   50.00000   50.00000   50.00000   90.00000   90.00000   90.00000
LATT -1
SFAC C  
C      1  0.5760430000000  0.4895050000000  0.5169460000000 1.0
C      1  0.5498310000000  0.4918790000000  0.4251200000000 1.0
C      1  0.4562420000000  0.4978400000000  0.4286550000000 1.0
C      1  0.4176370000000  0.4956410000000  0.5220610000000 1.0
C      1  0.4945410000000  0.4851030000000  0.5879450000000 1.0
C      1  0.4476550000000  0.5273810000000  0.5443770000000 1.0
C      1  0.5390590000000  0.5144870000000  0.5787160000000 1.0
C      1  0.5828450000000  0.5285480000000  0.4842200000000 1.0
C      1  0.5267110000000  0.5163190000000  0.4195100000000 1.0
C      1  0.4414300000000  0.5313760000000  0.4601350000000 1.0
C      1  0.5856110000000  0.5144820000000  0.5077630000000 1.0
C      1  0.5413290000000  0.5148250000000  0.4495380000000 1.0
C      1  0.4556340000000  0.5261280000000  0.4361210000000 1.0
C      1  0.4279580000000  0.5230050000000  0.5242270000000 1.0
C      1  0.5084830000000  0.5130580000000  0.5773240000000 1.0
C      1  0.5574200000000  0.5376720000000  0.4639620000000 1.0
C      1  0.4821970000000  0.5372980000000  0.4305880000000 1.0
C      1  0.4294720000000  0.5336080000000  0.4978260000000 1.0
C      1  0.4815890000000  0.5278290000000  0.5644960000000 1.0
C      1  0.5512720000000  0.5361550000000  0.5384730000000 1.0
C      1  0.5248710000000  0.4674660000000  0.5166910000000 1.0
C      1  0.5170830000000  0.4699160000000  0.4856850000000 1.0
C      1  0.4866780000000  0.4650700000000  0.4851330000000 1.0
C      1  0.4761510000000  0.4635160000000  0.5135340000000 1.0
C      1  0.4991010000000  0.4662810000000  0.5336600000000 1.0
C      1  0.4237530000000  0.5107640000000  0.4774700000000 1.0
C      1  0.4589720000000  0.5059080000000  0.5648390000000 1.0
C      1  0.5550810000000  0.5136360000000  0.5550280000000 1.0
C      1  0.5806490000000  0.5136620000000  0.4567250000000 1.0
C      1  0.4986920000000  0.5157760000000  0.4185730000000 1.0
C      1  0.5236680000000  0.4426990000000  0.5660860000000 1.0
C      1  0.5673320000000  0.4429790000000  0.5095190000000 1.0
C      1  0.5236290000000  0.4485120000000  0.4401470000000 1.0
C      1  0.4437450000000  0.4548770000000  0.4642470000000 1.0
C      1  0.4442040000000  0.4500190000000  0.5465420000000 1.0
C      1  0.4505270000000  0.5528450000000  0.4846080000000 1.0
C      1  0.4737120000000  0.5483380000000  0.5392050000000 1.0
C      1  0.5336270000000  0.5517690000000  0.5271910000000 1.0
C      1  0.5413690000000  0.5601330000000  0.4723220000000 1.0
C      1  0.4905410000000  0.5572610000000  0.4475440000000 1.0
C      1  0.4491470000000  0.4825950000000  0.4515210000000 1.0
C      1  0.4331890000000  0.4776130000000  0.5395700000000 1.0
C      1  0.5194810000000  0.4755880000000  0.5688090000000 1.0
C      1  0.5745610000000  0.4676470000000  0.4968780000000 1.0
C      1  0.5213500000000  0.4819390000000  0.4390070000000 1.0
C      1  0.4469450000000  0.4499350000000  0.5144160000000 1.0
C      1  0.4941730000000  0.4453210000000  0.5563110000000 1.0
C      1  0.5454880000000  0.4451380000000  0.5255130000000 1.0
C      1  0.5381620000000  0.4575560000000  0.4658110000000 1.0
C      1  0.4748100000000  0.4528870000000  0.4579480000000 1.0
C      1  0.4832580000000  0.4907460000000  0.4198580000000 1.0
C      1  0.4186880000000  0.4861290000000  0.4937680000000 1.0
C      1  0.4682120000000  0.4806590000000  0.5769720000000 1.0
C      1  0.5629210000000  0.4887470000000  0.5429220000000 1.0
C      1  0.5715080000000  0.4886750000000  0.4485510000000 1.0
C      1  0.4724300000000  0.5614920000000  0.5080510000000 1.0
C      1  0.5013350000000  0.5597110000000  0.5231530000000 1.0
C      1  0.5242490000000  0.5669110000000  0.4998780000000 1.0
C      1  0.5101970000000  0.5709720000000  0.4703160000000 1.0
C      1  0.4777830000000  0.5684720000000  0.4760820000000 1.0
C      1  0.4933440000000  0.4629760000000  0.4344450000000 1.0
C      1  0.4315840000000  0.4592010000000  0.4909150000000 1.0
C      1  0.4667710000000  0.4534320000000  0.5650150000000 1.0
C      1  0.5459020000000  0.4644790000000  0.5516470000000 1.0
C      1  0.5645420000000  0.4696330000000  0.4690480000000 1.0
C      1  0.5052210000000  0.5182710000000  0.4840150000000 1.0
C      1  0.4764360000000  0.5137010000000  0.4856980000000 1.0
C      1  0.4695660000000  0.5125560000000  0.5144440000000 1.0
C      1  0.4944400000000  0.5159960000000  0.5287140000000 1.0
C      1  0.5163060000000  0.5186080000000  0.5106000000000 1.0
C      1  0.4568030000000  0.4878660000000  0.5221960000000 1.0
C      1  0.4994940000000  0.4953910000000  0.5496570000000 1.0
C      1  0.5360430000000  0.4980920000000  0.5149070000000 1.0
C      1  0.5205980000000  0.4981560000000  0.4676930000000 1.0
C      1  0.4687140000000  0.4893460000000  0.4729210000000 1.0
END
