TITL C-2782226-7400-162 -0.00887370636819575 125000 -549.565068860559 0 0 93 (C1) n - 1
REM
REM in /home/nfs/bkarasulu/CARBON/AIRSS/Generating-Clusters/REBO/Higher-Symm/SD-CG/HFTN-CG
REM
REM
REM
REM
REM
REM ./C.cell (12c818d87b63d06a65506943cc24bca4)
REM
REM compiler GCC version 9.2.1 20190827 (Red Hat 9.2.1-1)
REM options -cpp -mtune=generic -march=x86-64 -g -O0 -fpre-include=/usr/include/finclude/math-vector-fortran.h
REM seed -232621094 1499960019 1799504676 1687301962 -429515975 -1393548659 -814679887 947623233 -1333383553 -1560016738 -756559485 707802544 680513407 1807043831 -1571651920 -422634131 1518709920 -836604480 1396677035 -824407998 -1981040644 -1445490861 -1681958551 -16620554 -1173877690 -1172872266 980047724 -265929358 -1756493172 1993179589 1640366375 -1978906950 -396098146
REM
CELL 1.54180   50.00000   50.00000   50.00000   90.00000   90.00000   90.00000
LATT -1
SFAC C  
C      1  0.5070090000000  0.4369710000000  0.5460470000000 1.0
C      1  0.4981820000000  0.4797940000000  0.5734730000000 1.0
C      1  0.5008290000000  0.5199070000000  0.5716040000000 1.0
C      1  0.4956650000000  0.5575740000000  0.5417010000000 1.0
C      1  0.4938790000000  0.5713480000000  0.4950840000000 1.0
C      1  0.5024030000000  0.5602390000000  0.4576210000000 1.0
C      1  0.5057130000000  0.5252100000000  0.4232520000000 1.0
C      1  0.5010660000000  0.4742020000000  0.4243740000000 1.0
C      1  0.5008920000000  0.4347010000000  0.4517040000000 1.0
C      1  0.4982210000000  0.4212160000000  0.5011580000000 1.0
C      1  0.4493960000000  0.5326920000000  0.4463710000000 1.0
C      1  0.5498620000000  0.4973380000000  0.4345080000000 1.0
C      1  0.4407700000000  0.4563510000000  0.4502610000000 1.0
C      1  0.5501570000000  0.4350640000000  0.4820540000000 1.0
C      1  0.4485540000000  0.4426530000000  0.5237190000000 1.0
C      1  0.5504060000000  0.4659530000000  0.5561120000000 1.0
C      1  0.4481340000000  0.4954250000000  0.5700750000000 1.0
C      1  0.5528150000000  0.5355770000000  0.5561870000000 1.0
C      1  0.4399030000000  0.5637440000000  0.5135730000000 1.0
C      1  0.5539540000000  0.5572310000000  0.4736310000000 1.0
C      1  0.5698290000000  0.5517770000000  0.4976780000000 1.0
C      1  0.4328570000000  0.5390380000000  0.4704960000000 1.0
C      1  0.5667060000000  0.5113240000000  0.4541170000000 1.0
C      1  0.4292740000000  0.4831710000000  0.4507160000000 1.0
C      1  0.5749390000000  0.4577760000000  0.4756470000000 1.0
C      1  0.4341880000000  0.4522400000000  0.4989010000000 1.0
C      1  0.5714150000000  0.4649830000000  0.5300530000000 1.0
C      1  0.4270050000000  0.4874570000000  0.5484560000000 1.0
C      1  0.5755960000000  0.5195360000000  0.5455770000000 1.0
C      1  0.4265330000000  0.5425540000000  0.5288540000000 1.0
C      1  0.4150750000000  0.4914980000000  0.4750810000000 1.0
C      1  0.5889240000000  0.4797280000000  0.4872930000000 1.0
C      1  0.4168270000000  0.4754440000000  0.5001800000000 1.0
C      1  0.5891290000000  0.4834610000000  0.5166830000000 1.0
C      1  0.4138040000000  0.4943300000000  0.5235240000000 1.0
C      1  0.5905150000000  0.5126710000000  0.5222190000000 1.0
C      1  0.4130610000000  0.5219080000000  0.5128470000000 1.0
C      1  0.5867970000000  0.5274460000000  0.4968910000000 1.0
C      1  0.4147520000000  0.5202490000000  0.4829290000000 1.0
C      1  0.5860850000000  0.5066570000000  0.4749670000000 1.0
C      1  0.4916390000000  0.5804370000000  0.5267270000000 1.0
C      1  0.5038540000000  0.5911320000000  0.4712800000000 1.0
C      1  0.4934050000000  0.5488780000000  0.4297120000000 1.0
C      1  0.5069650000000  0.5012870000000  0.4067300000000 1.0
C      1  0.4871450000000  0.4479980000000  0.4319650000000 1.0
C      1  0.5017090000000  0.4122890000000  0.4697550000000 1.0
C      1  0.4917230000000  0.4196420000000  0.5310100000000 1.0
C      1  0.5034390000000  0.4468150000000  0.5722200000000 1.0
C      1  0.4971110000000  0.5002500000000  0.5991430000000 1.0
C      1  0.5080580000000  0.5499030000000  0.5652600000000 1.0
C      1  0.4718120000000  0.4751170000000  0.5221560000000 1.0
C      1  0.5325430000000  0.4900900000000  0.5299700000000 1.0
C      1  0.4671370000000  0.5201000000000  0.5457420000000 1.0
C      1  0.5277640000000  0.5421920000000  0.5235450000000 1.0
C      1  0.4732880000000  0.5303070000000  0.4966720000000 1.0
C      1  0.5221220000000  0.5207770000000  0.4779050000000 1.0
C      1  0.4733070000000  0.5059250000000  0.4640260000000 1.0
C      1  0.5284100000000  0.4827500000000  0.4657560000000 1.0
C      1  0.4772370000000  0.4699560000000  0.4810390000000 1.0
C      1  0.5288060000000  0.4630340000000  0.5005960000000 1.0
C      1  0.5356590000000  0.5558090000000  0.5685020000000 1.0
C      1  0.4647100000000  0.5806350000000  0.5105840000000 1.0
C      1  0.5308690000000  0.5728640000000  0.4719810000000 1.0
C      1  0.4659610000000  0.5494260000000  0.4267530000000 1.0
C      1  0.5322460000000  0.4835790000000  0.4151300000000 1.0
C      1  0.4587540000000  0.4474160000000  0.4297950000000 1.0
C      1  0.5282010000000  0.4131220000000  0.4876720000000 1.0
C      1  0.4645250000000  0.4188580000000  0.5350630000000 1.0
C      1  0.5286250000000  0.4652210000000  0.5784400000000 1.0
C      1  0.4700300000000  0.5117140000000  0.5845620000000 1.0
C      1  0.4482940000000  0.5023860000000  0.4427370000000 1.0
C      1  0.5549930000000  0.4650230000000  0.4560660000000 1.0
C      1  0.4513200000000  0.4518400000000  0.4764420000000 1.0
C      1  0.5580410000000  0.4492700000000  0.5106010000000 1.0
C      1  0.4467550000000  0.4659580000000  0.5434440000000 1.0
C      1  0.5583820000000  0.4964750000000  0.5511800000000 1.0
C      1  0.4427150000000  0.5315230000000  0.5497750000000 1.0
C      1  0.5536420000000  0.5548010000000  0.5212560000000 1.0
C      1  0.4501800000000  0.5500530000000  0.4895070000000 1.0
C      1  0.5483270000000  0.5318430000000  0.4626490000000 1.0
C      1  0.5117210000000  0.5439440000000  0.4977950000000 1.0
C      1  0.4801900000000  0.5384440000000  0.4657900000000 1.0
C      1  0.5202030000000  0.5091600000000  0.4459260000000 1.0
C      1  0.4920940000000  0.4806970000000  0.4543560000000 1.0
C      1  0.5214370000000  0.4496140000000  0.4703960000000 1.0
C      1  0.4795740000000  0.4470800000000  0.5047320000000 1.0
C      1  0.5263840000000  0.4567140000000  0.5335400000000 1.0
C      1  0.4774550000000  0.4891880000000  0.5526070000000 1.0
C      1  0.5249450000000  0.5182680000000  0.5475900000000 1.0
C      1  0.4852790000000  0.5333860000000  0.5264360000000 1.0
C      1  0.4689490000000  0.4977070000000  0.4968970000000 1.0
C      1  0.5304520000000  0.4952380000000  0.4967690000000 1.0
C      1  0.5013810000000  0.5102630000000  0.5165000000000 1.0
END
