TITL C-2782233-7966-126 0.00115183240578411 125000 -235.048497792562 0 0 42 (C1) n - 1
REM
REM in /home/nfs/bkarasulu/CARBON/AIRSS/Generating-Clusters/REBO/Higher-Symm/SD-CG/HFTN-CG
REM
REM
REM
REM
REM
REM ./C.cell (12c818d87b63d06a65506943cc24bca4)
REM
REM compiler GCC version 9.2.1 20190827 (Red Hat 9.2.1-1)
REM options -cpp -mtune=generic -march=x86-64 -g -O0 -fpre-include=/usr/include/finclude/math-vector-fortran.h
REM seed 1384656729 1004389065 643187245 1367741398 -275649132 -1894954291 -1197440218 2067014332 -542028353 -829010916 228355850 435702165 -1435473089 573358273 -1377987418 85304591 -1158650037 1454800693 -21844402 -1287497155 -1881000375 -1926321216 -705650402 -1085873424 1431890488 2051528314 797944578 2065926586 1465631816 -376548603 2053602542 1691077733 -2014030485
REM
CELL 1.54180   50.00000   50.00000   50.00000   90.00000   90.00000   90.00000
LATT -1
SFAC C  
C      1  0.4228700000000  0.4721270000000  0.4947660000000 1.0
C      1  0.5771770000000  0.4721440000000  0.4972850000000 1.0
C      1  0.4586980000000  0.5589540000000  0.5190440000000 1.0
C      1  0.5406250000000  0.5593350000000  0.5172650000000 1.0
C      1  0.5132050000000  0.5503330000000  0.5338710000000 1.0
C      1  0.4839910000000  0.5504450000000  0.5386070000000 1.0
C      1  0.5136580000000  0.5743640000000  0.4797670000000 1.0
C      1  0.4861440000000  0.5743350000000  0.4809520000000 1.0
C      1  0.4669030000000  0.5563780000000  0.4919670000000 1.0
C      1  0.5343830000000  0.5572730000000  0.4896060000000 1.0
C      1  0.4885150000000  0.5239490000000  0.5167750000000 1.0
C      1  0.5206710000000  0.5253410000000  0.5112840000000 1.0
C      1  0.5295780000000  0.5263010000000  0.4809950000000 1.0
C      1  0.4754440000000  0.5259230000000  0.4875640000000 1.0
C      1  0.5411360000000  0.5097330000000  0.5435310000000 1.0
C      1  0.4563240000000  0.5082440000000  0.5449520000000 1.0
C      1  0.5170740000000  0.4998230000000  0.4663250000000 1.0
C      1  0.4848010000000  0.5004250000000  0.4689660000000 1.0
C      1  0.5252790000000  0.4464810000000  0.4924890000000 1.0
C      1  0.4746730000000  0.4463930000000  0.4948830000000 1.0
C      1  0.5608950000000  0.4736260000000  0.5207710000000 1.0
C      1  0.4370010000000  0.4738540000000  0.5195320000000 1.0
C      1  0.4391160000000  0.4747430000000  0.4722960000000 1.0
C      1  0.5630090000000  0.4753340000000  0.4735200000000 1.0
C      1  0.5632130000000  0.4916970000000  0.5425750000000 1.0
C      1  0.4336590000000  0.4911250000000  0.5418490000000 1.0
C      1  0.5264180000000  0.4204990000000  0.4900880000000 1.0
C      1  0.4734220000000  0.4203580000000  0.4932400000000 1.0
C      1  0.5306440000000  0.4730100000000  0.5119120000000 1.0
C      1  0.4677060000000  0.4731020000000  0.5132130000000 1.0
C      1  0.5312240000000  0.4760380000000  0.4781770000000 1.0
C      1  0.4706330000000  0.4760310000000  0.4795640000000 1.0
C      1  0.4861350000000  0.3963890000000  0.4906580000000 1.0
C      1  0.5136110000000  0.3964690000000  0.4889390000000 1.0
C      1  0.5154640000000  0.4960640000000  0.5264600000000 1.0
C      1  0.4822440000000  0.4946220000000  0.5300370000000 1.0
C      1  0.5119330000000  0.5381400000000  0.4561390000000 1.0
C      1  0.4869390000000  0.5392220000000  0.4596500000000 1.0
C      1  0.4745240000000  0.5062240000000  0.4400830000000 1.0
C      1  0.5235380000000  0.5017580000000  0.4360270000000 1.0
C      1  0.4547440000000  0.5358330000000  0.5422720000000 1.0
C      1  0.5427790000000  0.5375600000000  0.5421030000000 1.0
END
