TITL C-2782231-7322-287 0.00194166684074796 125000 -328.994336227073 0 0 57 (C1) n - 1
REM
REM in /home/nfs/bkarasulu/CARBON/AIRSS/Generating-Clusters/REBO/Higher-Symm/SD-CG/HFTN-CG
REM
REM
REM
REM
REM
REM ./C.cell (12c818d87b63d06a65506943cc24bca4)
REM
REM compiler GCC version 9.2.1 20190827 (Red Hat 9.2.1-1)
REM options -cpp -mtune=generic -march=x86-64 -g -O0 -fpre-include=/usr/include/finclude/math-vector-fortran.h
REM seed 364145795 1536873392 -1149988378 -1796791590 -2008687588 1498957976 440058976 1900568320 1363196180 231656828 -1620767154 1272113666 -528966143 1143035517 -1829750837 1599347965 -1106550504 1719883613 1639414465 -392638553 -602400308 1959121414 -835729135 -1684648433 1505584477 -1018042043 -1418851553 1787638797 3596050 1071094974 -1562907369 -68343490 -1235840529
REM
CELL 1.54180   50.00000   50.00000   50.00000   90.00000   90.00000   90.00000
LATT -1
SFAC C  
C      1  0.4886690000000  0.5607280000000  0.5495140000000 1.0
C      1  0.4567840000000  0.5518530000000  0.5071200000000 1.0
C      1  0.4631180000000  0.5542840000000  0.4784380000000 1.0
C      1  0.5384760000000  0.5474120000000  0.4754030000000 1.0
C      1  0.5416660000000  0.5543760000000  0.5263680000000 1.0
C      1  0.5232000000000  0.4690670000000  0.4905300000000 1.0
C      1  0.5294740000000  0.4525770000000  0.5399150000000 1.0
C      1  0.4824370000000  0.4684890000000  0.5219090000000 1.0
C      1  0.4718570000000  0.4623740000000  0.4838250000000 1.0
C      1  0.4915730000000  0.4567160000000  0.4568650000000 1.0
C      1  0.4594250000000  0.5533560000000  0.5383610000000 1.0
C      1  0.4417670000000  0.5478510000000  0.4607220000000 1.0
C      1  0.5338550000000  0.5459590000000  0.4474500000000 1.0
C      1  0.5573290000000  0.5521170000000  0.5006770000000 1.0
C      1  0.5201250000000  0.5575880000000  0.5526060000000 1.0
C      1  0.4739580000000  0.4305070000000  0.4956940000000 1.0
C      1  0.4977340000000  0.4331690000000  0.4756490000000 1.0
C      1  0.5208400000000  0.4401050000000  0.4932910000000 1.0
C      1  0.5154470000000  0.4352940000000  0.5224250000000 1.0
C      1  0.4857450000000  0.4394860000000  0.5220330000000 1.0
C      1  0.5564710000000  0.4981210000000  0.5320440000000 1.0
C      1  0.4895750000000  0.4991800000000  0.5616430000000 1.0
C      1  0.4386510000000  0.4979320000000  0.5069170000000 1.0
C      1  0.4735590000000  0.5021190000000  0.4431040000000 1.0
C      1  0.5466030000000  0.4964080000000  0.4576560000000 1.0
C      1  0.5397660000000  0.4788880000000  0.5524430000000 1.0
C      1  0.4688870000000  0.4817640000000  0.5446350000000 1.0
C      1  0.4461020000000  0.4772060000000  0.4810100000000 1.0
C      1  0.4961650000000  0.4795170000000  0.4380020000000 1.0
C      1  0.5502590000000  0.4789430000000  0.4832570000000 1.0
C      1  0.4490270000000  0.5032920000000  0.5323440000000 1.0
C      1  0.4501340000000  0.4996650000000  0.4583160000000 1.0
C      1  0.5223980000000  0.4986800000000  0.4437790000000 1.0
C      1  0.5604580000000  0.4996920000000  0.5047330000000 1.0
C      1  0.5170610000000  0.5024910000000  0.5588940000000 1.0
C      1  0.5192420000000  0.5356990000000  0.5192660000000 1.0
C      1  0.4943840000000  0.5349880000000  0.5321230000000 1.0
C      1  0.4748060000000  0.5268560000000  0.5129220000000 1.0
C      1  0.4870920000000  0.5398850000000  0.4740150000000 1.0
C      1  0.5159030000000  0.5326380000000  0.4891900000000 1.0
C      1  0.4320330000000  0.5214110000000  0.4647760000000 1.0
C      1  0.5150640000000  0.5262470000000  0.4380850000000 1.0
C      1  0.5672750000000  0.5243960000000  0.4907130000000 1.0
C      1  0.5303270000000  0.5287280000000  0.5571220000000 1.0
C      1  0.4524770000000  0.5271360000000  0.5497660000000 1.0
C      1  0.4712150000000  0.5199040000000  0.5707960000000 1.0
C      1  0.4216900000000  0.5164170000000  0.4913760000000 1.0
C      1  0.4862770000000  0.5273150000000  0.4360870000000 1.0
C      1  0.5637500000000  0.5193900000000  0.4621990000000 1.0
C      1  0.5566220000000  0.5232700000000  0.5464080000000 1.0
C      1  0.5688630000000  0.4579360000000  0.4793830000000 1.0
C      1  0.5550050000000  0.4732300000000  0.5758890000000 1.0
C      1  0.4551640000000  0.4632800000000  0.5612660000000 1.0
C      1  0.4242710000000  0.4599590000000  0.4754490000000 1.0
C      1  0.4962910000000  0.4706900000000  0.4109500000000 1.0
C      1  0.4907250000000  0.5099980000000  0.4899920000000 1.0
C      1  0.4955340000000  0.4817880000000  0.4955880000000 1.0
END
