TITL C-2782228-2999-939 0.0556811045224464 125000 -1100.66720820201 0 0 184 (C1) n - 1
REM
REM in /home/nfs/bkarasulu/CARBON/AIRSS/Generating-Clusters/REBO/Higher-Symm/SD-CG/HFTN-CG
REM
REM
REM
REM
REM
REM ./C.cell (12c818d87b63d06a65506943cc24bca4)
REM
REM compiler GCC version 9.2.1 20190827 (Red Hat 9.2.1-1)
REM options -cpp -mtune=generic -march=x86-64 -g -O0 -fpre-include=/usr/include/finclude/math-vector-fortran.h
REM seed 391328688 -193362240 483102535 -1130836742 1620720432 -2103054148 -914492253 1103772004 -1000950042 1942496056 -572570834 134480562 -571248661 1837426801 1583021713 659947531 488475535 563995296 -238155059 -1515702860 -1612462449 -942783680 866892566 41764879 -945141409 1973771402 1226211924 390809 2005432713 -1376516337 1877608709 120963899 -1869013835
REM
CELL 1.54180   50.00000   50.00000   50.00000   90.00000   90.00000   90.00000
LATT -1
SFAC C  
C      1  0.5289730000000  0.4548470000000  0.3919510000000 1.0
C      1  0.5674310000000  0.4554590000000  0.5757660000000 1.0
C      1  0.4056650000000  0.4565300000000  0.5296040000000 1.0
C      1  0.4698730000000  0.5398330000000  0.3982550000000 1.0
C      1  0.4332360000000  0.5449610000000  0.5746070000000 1.0
C      1  0.5944230000000  0.5441910000000  0.5334310000000 1.0
C      1  0.4107020000000  0.4813730000000  0.4986950000000 1.0
C      1  0.5504630000000  0.4823480000000  0.4206970000000 1.0
C      1  0.5412260000000  0.4829020000000  0.5876190000000 1.0
C      1  0.5869850000000  0.5196180000000  0.5029150000000 1.0
C      1  0.4490260000000  0.5177330000000  0.4242380000000 1.0
C      1  0.4617160000000  0.5181770000000  0.5819140000000 1.0
C      1  0.5053830000000  0.5353050000000  0.5178010000000 1.0
C      1  0.4882890000000  0.5391210000000  0.4904120000000 1.0
C      1  0.5213940000000  0.5334220000000  0.4879860000000 1.0
C      1  0.4948590000000  0.4626600000000  0.5183660000000 1.0
C      1  0.5098450000000  0.4624490000000  0.4899130000000 1.0
C      1  0.4759660000000  0.4654190000000  0.4901900000000 1.0
C      1  0.4306410000000  0.4718100000000  0.5697700000000 1.0
C      1  0.4761730000000  0.4698420000000  0.3922720000000 1.0
C      1  0.5987900000000  0.4721780000000  0.5355610000000 1.0
C      1  0.5739090000000  0.5286830000000  0.5765200000000 1.0
C      1  0.5229560000000  0.5262390000000  0.3935140000000 1.0
C      1  0.4033640000000  0.5286510000000  0.5300990000000 1.0
C      1  0.5648880000000  0.5102840000000  0.5174490000000 1.0
C      1  0.4606870000000  0.5135500000000  0.5544530000000 1.0
C      1  0.4739250000000  0.5090150000000  0.4345060000000 1.0
C      1  0.4325990000000  0.4912260000000  0.5124740000000 1.0
C      1  0.5385990000000  0.4904000000000  0.5609720000000 1.0
C      1  0.5263420000000  0.4921560000000  0.4307130000000 1.0
C      1  0.5314940000000  0.4394660000000  0.4914100000000 1.0
C      1  0.4904910000000  0.4358310000000  0.5335910000000 1.0
C      1  0.4689990000000  0.4406940000000  0.4705290000000 1.0
C      1  0.4682390000000  0.5639410000000  0.4926310000000 1.0
C      1  0.5124890000000  0.5618160000000  0.5334270000000 1.0
C      1  0.5285970000000  0.5596780000000  0.4711370000000 1.0
C      1  0.5442100000000  0.5688060000000  0.4356490000000 1.0
C      1  0.5306130000000  0.5719180000000  0.5674620000000 1.0
C      1  0.4292170000000  0.5719100000000  0.4940400000000 1.0
C      1  0.4541630000000  0.4285700000000  0.4351290000000 1.0
C      1  0.4697490000000  0.4265450000000  0.5661590000000 1.0
C      1  0.5706980000000  0.4340250000000  0.4951300000000 1.0
C      1  0.5864170000000  0.5505020000000  0.5021790000000 1.0
C      1  0.4628740000000  0.5485590000000  0.5910240000000 1.0
C      1  0.4486820000000  0.5487630000000  0.4229140000000 1.0
C      1  0.4115400000000  0.4502950000000  0.4988820000000 1.0
C      1  0.5402960000000  0.4503200000000  0.5937210000000 1.0
C      1  0.5479170000000  0.4542110000000  0.4138300000000 1.0
C      1  0.4698590000000  0.4842110000000  0.5484390000000 1.0
C      1  0.4756720000000  0.4806330000000  0.4358000000000 1.0
C      1  0.5596310000000  0.4830440000000  0.5147170000000 1.0
C      1  0.5362910000000  0.5179880000000  0.5564440000000 1.0
C      1  0.5226180000000  0.5188850000000  0.4359700000000 1.0
C      1  0.4399050000000  0.5178480000000  0.5109060000000 1.0
C      1  0.4549950000000  0.5615940000000  0.5541330000000 1.0
C      1  0.4717340000000  0.5592750000000  0.4460010000000 1.0
C      1  0.5622380000000  0.5787610000000  0.5162290000000 1.0
C      1  0.5442920000000  0.4399620000000  0.5553730000000 1.0
C      1  0.5139880000000  0.4203240000000  0.4401210000000 1.0
C      1  0.4402620000000  0.4185400000000  0.5133390000000 1.0
C      1  0.6043780000000  0.5020400000000  0.4610170000000 1.0
C      1  0.4860280000000  0.4985810000000  0.6182750000000 1.0
C      1  0.4069490000000  0.4931270000000  0.4317430000000 1.0
C      1  0.3926460000000  0.4958060000000  0.4558530000000 1.0
C      1  0.5130060000000  0.5043230000000  0.6196930000000 1.0
C      1  0.5927090000000  0.5033640000000  0.4358760000000 1.0
C      1  0.5553210000000  0.5808990000000  0.4637960000000 1.0
C      1  0.5017730000000  0.5838060000000  0.5571990000000 1.0
C      1  0.4497080000000  0.5825480000000  0.4699050000000 1.0
C      1  0.4453590000000  0.4161400000000  0.4643050000000 1.0
C      1  0.4993530000000  0.4137840000000  0.5586690000000 1.0
C      1  0.5530750000000  0.4208620000000  0.4709990000000 1.0
C      1  0.4738770000000  0.6021640000000  0.4830260000000 1.0
C      1  0.5307200000000  0.5987510000000  0.4792860000000 1.0
C      1  0.5049710000000  0.6019810000000  0.5301090000000 1.0
C      1  0.5288760000000  0.4004430000000  0.4835190000000 1.0
C      1  0.4728770000000  0.4011750000000  0.4781550000000 1.0
C      1  0.4976170000000  0.3966920000000  0.5302080000000 1.0
C      1  0.4675530000000  0.5169510000000  0.3839760000000 1.0
C      1  0.6104200000000  0.5206590000000  0.5355510000000 1.0
C      1  0.4214260000000  0.5189220000000  0.5851320000000 1.0
C      1  0.5299950000000  0.4790080000000  0.3768100000000 1.0
C      1  0.3898150000000  0.4800230000000  0.5327500000000 1.0
C      1  0.5810630000000  0.4799470000000  0.5884280000000 1.0
C      1  0.5609440000000  0.5754470000000  0.5558760000000 1.0
C      1  0.4301300000000  0.5761780000000  0.5264220000000 1.0
C      1  0.5176830000000  0.5745560000000  0.4191550000000 1.0
C      1  0.4403320000000  0.4238730000000  0.5526460000000 1.0
C      1  0.5701380000000  0.4283100000000  0.5272250000000 1.0
C      1  0.4812850000000  0.4264650000000  0.4181440000000 1.0
C      1  0.4507350000000  0.4724180000000  0.4057430000000 1.0
C      1  0.5996860000000  0.4748350000000  0.5071270000000 1.0
C      1  0.4565600000000  0.4717120000000  0.5838490000000 1.0
C      1  0.5487370000000  0.5249780000000  0.4064080000000 1.0
C      1  0.4025760000000  0.5268430000000  0.5002340000000 1.0
C      1  0.5492870000000  0.5286860000000  0.5926020000000 1.0
C      1  0.4558570000000  0.5291730000000  0.5311050000000 1.0
C      1  0.4953940000000  0.5276010000000  0.4400960000000 1.0
C      1  0.5490850000000  0.5277840000000  0.5335350000000 1.0
C      1  0.5385390000000  0.4729110000000  0.5340250000000 1.0
C      1  0.5047730000000  0.4713640000000  0.4405590000000 1.0
C      1  0.4522810000000  0.4703100000000  0.5251670000000 1.0
C      1  0.5648050000000  0.5051560000000  0.4670790000000 1.0
C      1  0.5000810000000  0.5106170000000  0.5739300000000 1.0
C      1  0.4263530000000  0.5170580000000  0.4571800000000 1.0
C      1  0.4324090000000  0.4904660000000  0.4652920000000 1.0
C      1  0.5015680000000  0.4856780000000  0.5838200000000 1.0
C      1  0.5730640000000  0.4776330000000  0.4652310000000 1.0
C      1  0.4800100000000  0.4575930000000  0.5653550000000 1.0
C      1  0.4499900000000  0.4583660000000  0.4339610000000 1.0
C      1  0.5742200000000  0.4637850000000  0.4924290000000 1.0
C      1  0.5258870000000  0.5431070000000  0.5770260000000 1.0
C      1  0.5488210000000  0.5392410000000  0.4348760000000 1.0
C      1  0.4287860000000  0.5412590000000  0.4888770000000 1.0
C      1  0.4198990000000  0.5423690000000  0.4499130000000 1.0
C      1  0.5703270000000  0.5307730000000  0.4543380000000 1.0
C      1  0.4956510000000  0.5384240000000  0.5880990000000 1.0
C      1  0.5748910000000  0.4608230000000  0.4438510000000 1.0
C      1  0.4274960000000  0.4656420000000  0.4521910000000 1.0
C      1  0.5081290000000  0.4614410000000  0.5933900000000 1.0
C      1  0.4893210000000  0.4428820000000  0.4474180000000 1.0
C      1  0.5400790000000  0.4425410000000  0.5214550000000 1.0
C      1  0.4591720000000  0.4414110000000  0.5298140000000 1.0
C      1  0.5056520000000  0.5586910000000  0.4472850000000 1.0
C      1  0.4594000000000  0.5603630000000  0.5214190000000 1.0
C      1  0.5431920000000  0.5570480000000  0.5326240000000 1.0
C      1  0.4295740000000  0.3952090000000  0.5158340000000 1.0
C      1  0.5199250000000  0.4218620000000  0.4116720000000 1.0
C      1  0.5690730000000  0.4184950000000  0.5641440000000 1.0
C      1  0.5759720000000  0.6003690000000  0.5192080000000 1.0
C      1  0.4796290000000  0.5723200000000  0.4176770000000 1.0
C      1  0.4295760000000  0.5818330000000  0.5642030000000 1.0
C      1  0.5379820000000  0.5048470000000  0.6053770000000 1.0
C      1  0.3967770000000  0.5017940000000  0.4843580000000 1.0
C      1  0.5705730000000  0.5038840000000  0.4172710000000 1.0
C      1  0.4655820000000  0.4954280000000  0.5982400000000 1.0
C      1  0.6024630000000  0.4996030000000  0.4899390000000 1.0
C      1  0.4321450000000  0.4953940000000  0.4168150000000 1.0
C      1  0.5162330000000  0.4301260000000  0.5819980000000 1.0
C      1  0.4214490000000  0.4402670000000  0.4688180000000 1.0
C      1  0.5532540000000  0.4369860000000  0.4410280000000 1.0
C      1  0.4850250000000  0.5689440000000  0.5784250000000 1.0
C      1  0.5772830000000  0.5558800000000  0.4707950000000 1.0
C      1  0.4332670000000  0.5681370000000  0.4462810000000 1.0
C      1  0.5525450000000  0.4071840000000  0.5078780000000 1.0
C      1  0.4654650000000  0.4036820000000  0.5405640000000 1.0
C      1  0.4775750000000  0.4048850000000  0.4443650000000 1.0
C      1  0.4496560000000  0.5963050000000  0.5070330000000 1.0
C      1  0.5365750000000  0.5951100000000  0.5421320000000 1.0
C      1  0.5229860000000  0.5944970000000  0.4458970000000 1.0
C      1  0.5309760000000  0.6021740000000  0.5092330000000 1.0
C      1  0.4797060000000  0.6062880000000  0.5159360000000 1.0
C      1  0.4990680000000  0.6027900000000  0.4675170000000 1.0
C      1  0.4728960000000  0.3964840000000  0.5080090000000 1.0
C      1  0.5232160000000  0.3944890000000  0.5161310000000 1.0
C      1  0.5044740000000  0.4007410000000  0.4650860000000 1.0
C      1  0.5258200000000  0.4449790000000  0.4582890000000 1.0
C      1  0.5120370000000  0.4511600000000  0.5551150000000 1.0
C      1  0.4435970000000  0.4426550000000  0.4933360000000 1.0
C      1  0.4550480000000  0.5432550000000  0.4688160000000 1.0
C      1  0.4861050000000  0.5477950000000  0.5504040000000 1.0
C      1  0.5534520000000  0.5562880000000  0.4943760000000 1.0
C      1  0.5790660000000  0.5498500000000  0.5567080000000 1.0
C      1  0.4166250000000  0.5539770000000  0.5461780000000 1.0
C      1  0.5014540000000  0.5509220000000  0.4012720000000 1.0
C      1  0.4230760000000  0.4504450000000  0.5513990000000 1.0
C      1  0.5843000000000  0.4468880000000  0.5484630000000 1.0
C      1  0.4981460000000  0.4442110000000  0.3967510000000 1.0
C      1  0.4163690000000  0.4972070000000  0.5680920000000 1.0
C      1  0.4854860000000  0.4951270000000  0.3826250000000 1.0
C      1  0.6018870000000  0.4973230000000  0.5493450000000 1.0
C      1  0.5875510000000  0.5029870000000  0.5736310000000 1.0
C      1  0.5134630000000  0.5016950000000  0.3815410000000 1.0
C      1  0.4008690000000  0.5034560000000  0.5443680000000 1.0
C      1  0.5081230000000  0.4859530000000  0.5355390000000 1.0
C      1  0.4572930000000  0.4895540000000  0.4811340000000 1.0
C      1  0.5200140000000  0.4832090000000  0.4690610000000 1.0
C      1  0.4986620000000  0.5166050000000  0.5426610000000 1.0
C      1  0.5384480000000  0.5061660000000  0.4809670000000 1.0
C      1  0.4708990000000  0.5182650000000  0.4746400000000 1.0
C      1  0.5230350000000  0.4992100000000  0.5082320000000 1.0
C      1  0.4731690000000  0.4959820000000  0.5172240000000 1.0
C      1  0.4915260000000  0.4956340000000  0.4691800000000 1.0
C      1  0.4943510000000  0.4993450000000  0.5006330000000 1.0
END
