TITL C-2782239-8622-31 -0.000389272975268991 125000 -283.748547214557 0 0 49 (C1) n - 1
REM
REM in /home/nfs/bkarasulu/CARBON/AIRSS/Generating-Clusters/REBO/Higher-Symm/SD-CG/HFTN-CG
REM
REM
REM
REM
REM
REM ./C.cell (12c818d87b63d06a65506943cc24bca4)
REM
REM compiler GCC version 9.2.1 20190827 (Red Hat 9.2.1-1)
REM options -cpp -mtune=generic -march=x86-64 -g -O0 -fpre-include=/usr/include/finclude/math-vector-fortran.h
REM seed -521839385 1081285482 275146855 -1569356080 1886542003 -1113318051 -482881335 -1505109723 -511303893 1350547425 -1466184889 22093780 -398902268 -113372942 1478947646 2050172368 1734759854 80601788 -1080870647 -1946801112 -1840024558 -362830979 -199785229 1718055945 -1916234156 1581248360 -166476114 -464791737 1781101045 -1921721917 376869500 -2030900145 1337418235
REM
CELL 1.54180   50.00000   50.00000   50.00000   90.00000   90.00000   90.00000
LATT -1
SFAC C  
C      1  0.5055490000000  0.5225030000000  0.5531630000000 1.0
C      1  0.4995680000000  0.4834080000000  0.5572570000000 1.0
C      1  0.5002810000000  0.5156720000000  0.4410370000000 1.0
C      1  0.4948180000000  0.4771460000000  0.4490520000000 1.0
C      1  0.5244470000000  0.5486830000000  0.4669040000000 1.0
C      1  0.4874360000000  0.4771490000000  0.4964320000000 1.0
C      1  0.5078880000000  0.5252760000000  0.5119030000000 1.0
C      1  0.4779240000000  0.4493230000000  0.5313120000000 1.0
C      1  0.4487380000000  0.5216600000000  0.5137350000000 1.0
C      1  0.5497340000000  0.4741550000000  0.5130970000000 1.0
C      1  0.4431110000000  0.5211000000000  0.4851750000000 1.0
C      1  0.5496750000000  0.4750770000000  0.4839740000000 1.0
C      1  0.5449760000000  0.5259460000000  0.4796590000000 1.0
C      1  0.4559020000000  0.4739660000000  0.4862160000000 1.0
C      1  0.5383280000000  0.5211990000000  0.5112270000000 1.0
C      1  0.4557230000000  0.4714500000000  0.5198610000000 1.0
C      1  0.4755980000000  0.5629660000000  0.5253960000000 1.0
C      1  0.5250680000000  0.4303850000000  0.5283430000000 1.0
C      1  0.4925820000000  0.5885310000000  0.4748390000000 1.0
C      1  0.5278000000000  0.4300420000000  0.4739350000000 1.0
C      1  0.5434200000000  0.4973350000000  0.5278680000000 1.0
C      1  0.4584270000000  0.4999990000000  0.5298220000000 1.0
C      1  0.5422910000000  0.4977240000000  0.4677640000000 1.0
C      1  0.4536650000000  0.4995050000000  0.4698520000000 1.0
C      1  0.4792280000000  0.5052540000000  0.5481800000000 1.0
C      1  0.5267560000000  0.4979300000000  0.5511570000000 1.0
C      1  0.4731080000000  0.5007520000000  0.4485760000000 1.0
C      1  0.5217260000000  0.4936900000000  0.4483000000000 1.0
C      1  0.5108890000000  0.5705420000000  0.4854520000000 1.0
C      1  0.5035790000000  0.4245580000000  0.4841000000000 1.0
C      1  0.5028130000000  0.5561250000000  0.5137400000000 1.0
C      1  0.4968020000000  0.4282690000000  0.5157390000000 1.0
C      1  0.5531310000000  0.5486910000000  0.5114020000000 1.0
C      1  0.4448420000000  0.4425140000000  0.5079100000000 1.0
C      1  0.5622150000000  0.5553390000000  0.4810660000000 1.0
C      1  0.4478790000000  0.4453930000000  0.4748760000000 1.0
C      1  0.5444390000000  0.4489870000000  0.5250640000000 1.0
C      1  0.4533020000000  0.5475990000000  0.5244970000000 1.0
C      1  0.5465310000000  0.4495000000000  0.4719640000000 1.0
C      1  0.4316220000000  0.5426910000000  0.4731370000000 1.0
C      1  0.4758810000000  0.4297800000000  0.4679620000000 1.0
C      1  0.5431900000000  0.5791300000000  0.4881720000000 1.0
C      1  0.4678740000000  0.4233600000000  0.5004780000000 1.0
C      1  0.5323580000000  0.5706310000000  0.5187760000000 1.0
C      1  0.4896510000000  0.4573390000000  0.5549390000000 1.0
C      1  0.5094880000000  0.5490210000000  0.5549680000000 1.0
C      1  0.4903720000000  0.4600760000000  0.4714370000000 1.0
C      1  0.5100860000000  0.5416430000000  0.4447930000000 1.0
C      1  0.4944790000000  0.5021510000000  0.5072040000000 1.0
END
