TITL C-2782225-7408-1269 -0.00107910537958038 125000 -1123.66365139799 0 0 191 (C1) n - 1
REM
REM in /home/nfs/bkarasulu/CARBON/AIRSS/Generating-Clusters/REBO/Higher-Symm/SD-CG/HFTN-CG
REM
REM
REM
REM
REM
REM ./C.cell (12c818d87b63d06a65506943cc24bca4)
REM
REM compiler GCC version 9.2.1 20190827 (Red Hat 9.2.1-1)
REM options -cpp -mtune=generic -march=x86-64 -g -O0 -fpre-include=/usr/include/finclude/math-vector-fortran.h
REM seed 843168305 -1794929044 21030009 1316492442 34412137 -2068422629 140613842 -1070292336 2074073656 1860860325 1061062532 198582021 -1802948800 -272266134 830436083 1677678178 902687944 -948106187 690318557 -1820245430 -279966449 1625102512 14461839 2007671710 -93889373 823807336 63309587 -1520025312 -1912168156 -473785312 -1213022092 984827640 334119178
REM
CELL 1.54180   50.00000   50.00000   50.00000   90.00000   90.00000   90.00000
LATT -1
SFAC C  
C      1  0.4519930000000  0.4688870000000  0.5073330000000 1.0
C      1  0.4444140000000  0.5093910000000  0.4946090000000 1.0
C      1  0.4545250000000  0.5366980000000  0.5103320000000 1.0
C      1  0.4900750000000  0.5552360000000  0.4928850000000 1.0
C      1  0.5184040000000  0.5496980000000  0.5058570000000 1.0
C      1  0.5579580000000  0.5243720000000  0.4989070000000 1.0
C      1  0.5559370000000  0.4944600000000  0.5103980000000 1.0
C      1  0.5422980000000  0.4589340000000  0.4925250000000 1.0
C      1  0.5165450000000  0.4467850000000  0.5055520000000 1.0
C      1  0.4738290000000  0.4509890000000  0.4932650000000 1.0
C      1  0.5155180000000  0.4792040000000  0.4033970000000 1.0
C      1  0.4997520000000  0.4735800000000  0.5990660000000 1.0
C      1  0.4849410000000  0.4796270000000  0.4024830000000 1.0
C      1  0.4759980000000  0.4924420000000  0.5973830000000 1.0
C      1  0.4759210000000  0.5089860000000  0.4047480000000 1.0
C      1  0.4863040000000  0.5213180000000  0.5983870000000 1.0
C      1  0.5006200000000  0.5261880000000  0.4050830000000 1.0
C      1  0.5168090000000  0.5199680000000  0.5993400000000 1.0
C      1  0.5253110000000  0.5074880000000  0.4045460000000 1.0
C      1  0.5249960000000  0.4904810000000  0.5997030000000 1.0
C      1  0.4246730000000  0.4226910000000  0.4698750000000 1.0
C      1  0.3889580000000  0.4813180000000  0.5289100000000 1.0
C      1  0.3991690000000  0.5481130000000  0.4704020000000 1.0
C      1  0.4456430000000  0.6009260000000  0.5294380000000 1.0
C      1  0.5133010000000  0.6045020000000  0.4705580000000 1.0
C      1  0.5785230000000  0.5828630000000  0.5297980000000 1.0
C      1  0.6102470000000  0.5200820000000  0.4705510000000 1.0
C      1  0.6042840000000  0.4518090000000  0.5306950000000 1.0
C      1  0.5513130000000  0.4075910000000  0.4697280000000 1.0
C      1  0.4853950000000  0.3890690000000  0.5297530000000 1.0
C      1  0.5732300000000  0.4416370000000  0.5682580000000 1.0
C      1  0.5223040000000  0.4094140000000  0.4278230000000 1.0
C      1  0.4650690000000  0.4139560000000  0.5687220000000 1.0
C      1  0.4202410000000  0.4534820000000  0.4285980000000 1.0
C      1  0.4078400000000  0.5052660000000  0.5686690000000 1.0
C      1  0.4253670000000  0.5597300000000  0.4312800000000 1.0
C      1  0.4746030000000  0.5905200000000  0.5677450000000 1.0
C      1  0.5361870000000  0.5864700000000  0.4288040000000 1.0
C      1  0.5790310000000  0.5516120000000  0.5693100000000 1.0
C      1  0.5939180000000  0.4935650000000  0.4334940000000 1.0
C      1  0.5455580000000  0.5303880000000  0.4490340000000 1.0
C      1  0.5519890000000  0.4936700000000  0.5501450000000 1.0
C      1  0.5287920000000  0.4564960000000  0.4548350000000 1.0
C      1  0.5066690000000  0.4478460000000  0.5473510000000 1.0
C      1  0.4756400000000  0.4538520000000  0.4535490000000 1.0
C      1  0.4563090000000  0.4720140000000  0.5484860000000 1.0
C      1  0.4469630000000  0.5002850000000  0.4512360000000 1.0
C      1  0.4630320000000  0.5363820000000  0.5492230000000 1.0
C      1  0.4981490000000  0.5502650000000  0.4542480000000 1.0
C      1  0.5217590000000  0.5475830000000  0.5499970000000 1.0
C      1  0.5262840000000  0.5478940000000  0.4670390000000 1.0
C      1  0.5523180000000  0.5232810000000  0.5398800000000 1.0
C      1  0.5535740000000  0.4796320000000  0.4581010000000 1.0
C      1  0.5375450000000  0.4565430000000  0.5379130000000 1.0
C      1  0.5037110000000  0.4426330000000  0.4681500000000 1.0
C      1  0.4749710000000  0.4507770000000  0.5344600000000 1.0
C      1  0.4506110000000  0.4728280000000  0.4675250000000 1.0
C      1  0.4462260000000  0.5113770000000  0.5399050000000 1.0
C      1  0.4642320000000  0.5481980000000  0.4564680000000 1.0
C      1  0.4941520000000  0.5579410000000  0.5363460000000 1.0
C      1  0.4443540000000  0.5894750000000  0.5586410000000 1.0
C      1  0.5099980000000  0.5974490000000  0.4385610000000 1.0
C      1  0.5688280000000  0.5788760000000  0.5584980000000 1.0
C      1  0.5989890000000  0.5238280000000  0.4408780000000 1.0
C      1  0.5968080000000  0.4594020000000  0.5589890000000 1.0
C      1  0.5498400000000  0.4160150000000  0.4377340000000 1.0
C      1  0.4911960000000  0.4018940000000  0.5573380000000 1.0
C      1  0.4341790000000  0.4282100000000  0.4385010000000 1.0
C      1  0.4001640000000  0.4776240000000  0.5570920000000 1.0
C      1  0.4053470000000  0.5377660000000  0.4409830000000 1.0
C      1  0.5010320000000  0.3871160000000  0.5060080000000 1.0
C      1  0.4363610000000  0.4071020000000  0.4947610000000 1.0
C      1  0.3930510000000  0.4664280000000  0.5054560000000 1.0
C      1  0.3958690000000  0.5342420000000  0.4941260000000 1.0
C      1  0.4311770000000  0.5916930000000  0.5072910000000 1.0
C      1  0.4952470000000  0.6078670000000  0.4956310000000 1.0
C      1  0.5643440000000  0.5899730000000  0.5061570000000 1.0
C      1  0.6044320000000  0.5337910000000  0.4939290000000 1.0
C      1  0.6088890000000  0.4673750000000  0.5080740000000 1.0
C      1  0.5675890000000  0.4147220000000  0.4953660000000 1.0
C      1  0.5317660000000  0.5187330000000  0.4843610000000 1.0
C      1  0.5270100000000  0.5080400000000  0.5225010000000 1.0
C      1  0.5287410000000  0.4866990000000  0.4809280000000 1.0
C      1  0.5154270000000  0.4768870000000  0.5213220000000 1.0
C      1  0.4975130000000  0.4731340000000  0.4824080000000 1.0
C      1  0.4818200000000  0.4805730000000  0.5188500000000 1.0
C      1  0.4707180000000  0.4940660000000  0.4827660000000 1.0
C      1  0.4745430000000  0.5109710000000  0.5206570000000 1.0
C      1  0.4761860000000  0.5275180000000  0.4786710000000 1.0
C      1  0.5007570000000  0.5274940000000  0.5222060000000 1.0
C      1  0.5654110000000  0.4890060000000  0.4309300000000 1.0
C      1  0.5494730000000  0.4571400000000  0.5677000000000 1.0
C      1  0.5142810000000  0.4307380000000  0.4110660000000 1.0
C      1  0.4696160000000  0.4349710000000  0.5870800000000 1.0
C      1  0.4379460000000  0.4675530000000  0.4115310000000 1.0
C      1  0.4362250000000  0.5061090000000  0.5691880000000 1.0
C      1  0.4512530000000  0.5469360000000  0.4294660000000 1.0
C      1  0.4856030000000  0.5640890000000  0.5671220000000 1.0
C      1  0.5301880000000  0.5646550000000  0.4118380000000 1.0
C      1  0.5571310000000  0.5335550000000  0.5695230000000 1.0
C      1  0.4660210000000  0.5975800000000  0.4894280000000 1.0
C      1  0.5327360000000  0.5968500000000  0.5108720000000 1.0
C      1  0.5836690000000  0.5570600000000  0.4907080000000 1.0
C      1  0.5957230000000  0.4969410000000  0.5066260000000 1.0
C      1  0.5851140000000  0.4408800000000  0.4903680000000 1.0
C      1  0.5306940000000  0.3985470000000  0.5100910000000 1.0
C      1  0.4670650000000  0.3999480000000  0.4894010000000 1.0
C      1  0.4126370000000  0.4420130000000  0.5099630000000 1.0
C      1  0.4000520000000  0.5032580000000  0.4916500000000 1.0
C      1  0.4229040000000  0.5607810000000  0.5067350000000 1.0
C      1  0.5325670000000  0.5736090000000  0.4865390000000 1.0
C      1  0.5679840000000  0.5458920000000  0.5190180000000 1.0
C      1  0.5733750000000  0.4925570000000  0.4812410000000 1.0
C      1  0.5642060000000  0.4489690000000  0.5165440000000 1.0
C      1  0.5168350000000  0.4185720000000  0.4863070000000 1.0
C      1  0.4724400000000  0.4232570000000  0.5136530000000 1.0
C      1  0.4283590000000  0.4588780000000  0.4859140000000 1.0
C      1  0.4214180000000  0.5020850000000  0.5182950000000 1.0
C      1  0.4413400000000  0.5469210000000  0.4816940000000 1.0
C      1  0.4765550000000  0.5760880000000  0.5133450000000 1.0
C      1  0.5581250000000  0.4447050000000  0.4303830000000 1.0
C      1  0.5133650000000  0.4236910000000  0.5698600000000 1.0
C      1  0.4663010000000  0.4306790000000  0.4306040000000 1.0
C      1  0.4297310000000  0.4648980000000  0.5681010000000 1.0
C      1  0.4220990000000  0.5106030000000  0.4308300000000 1.0
C      1  0.4462450000000  0.5572050000000  0.5687410000000 1.0
C      1  0.4866880000000  0.5799260000000  0.4303540000000 1.0
C      1  0.5383950000000  0.5688800000000  0.5692770000000 1.0
C      1  0.5708290000000  0.5357430000000  0.4291820000000 1.0
C      1  0.5778740000000  0.4852670000000  0.5691760000000 1.0
C      1  0.5035460000000  0.4240350000000  0.5233720000000 1.0
C      1  0.4555930000000  0.4333730000000  0.4717500000000 1.0
C      1  0.4291140000000  0.4728130000000  0.5290650000000 1.0
C      1  0.4280590000000  0.5205040000000  0.4689570000000 1.0
C      1  0.4550490000000  0.5612460000000  0.5300770000000 1.0
C      1  0.4939410000000  0.5778330000000  0.4693840000000 1.0
C      1  0.5406600000000  0.5608990000000  0.5256960000000 1.0
C      1  0.5704400000000  0.5234720000000  0.4689010000000 1.0
C      1  0.5714340000000  0.4768580000000  0.5307090000000 1.0
C      1  0.5515880000000  0.4403510000000  0.4692280000000 1.0
C      1  0.4966280000000  0.5221660000000  0.4446040000000 1.0
C      1  0.5124370000000  0.5208580000000  0.5596840000000 1.0
C      1  0.5225460000000  0.5096030000000  0.4443010000000 1.0
C      1  0.5240280000000  0.4951720000000  0.5600970000000 1.0
C      1  0.5166320000000  0.4820980000000  0.4431830000000 1.0
C      1  0.5034450000000  0.4766410000000  0.5594580000000 1.0
C      1  0.4888850000000  0.4791190000000  0.4421420000000 1.0
C      1  0.4787210000000  0.4899670000000  0.5575850000000 1.0
C      1  0.4759680000000  0.5037200000000  0.4443130000000 1.0
C      1  0.4844330000000  0.5175370000000  0.5587130000000 1.0
C      1  0.4737300000000  0.4097590000000  0.4567860000000 1.0
C      1  0.4206220000000  0.4437300000000  0.5429420000000 1.0
C      1  0.4031730000000  0.5016160000000  0.4577090000000 1.0
C      1  0.4247740000000  0.5590600000000  0.5418410000000 1.0
C      1  0.4657950000000  0.5880620000000  0.4561920000000 1.0
C      1  0.5265080000000  0.5866290000000  0.5427520000000 1.0
C      1  0.5768990000000  0.5542560000000  0.4572830000000 1.0
C      1  0.5944640000000  0.4973870000000  0.5416370000000 1.0
C      1  0.5795400000000  0.4492790000000  0.4568350000000 1.0
C      1  0.5285590000000  0.4113200000000  0.5419120000000 1.0
C      1  0.5021430000000  0.5545790000000  0.4137780000000 1.0
C      1  0.5336630000000  0.5401290000000  0.5874130000000 1.0
C      1  0.5519600000000  0.5109020000000  0.4150510000000 1.0
C      1  0.5490700000000  0.4803440000000  0.5874740000000 1.0
C      1  0.5309320000000  0.4554640000000  0.4130090000000 1.0
C      1  0.4967440000000  0.4465480000000  0.5888670000000 1.0
C      1  0.4662150000000  0.4593210000000  0.4119540000000 1.0
C      1  0.4506740000000  0.4856240000000  0.5856310000000 1.0
C      1  0.4517480000000  0.5196950000000  0.4166140000000 1.0
C      1  0.4727630000000  0.5442610000000  0.5867910000000 1.0
C      1  0.5802490000000  0.4289320000000  0.5392770000000 1.0
C      1  0.5206680000000  0.3987390000000  0.4587540000000 1.0
C      1  0.4565440000000  0.4055840000000  0.5382460000000 1.0
C      1  0.4087520000000  0.4508310000000  0.4592190000000 1.0
C      1  0.3964570000000  0.5130660000000  0.5391580000000 1.0
C      1  0.4170810000000  0.5709750000000  0.4594390000000 1.0
C      1  0.4758960000000  0.6053600000000  0.5405210000000 1.0
C      1  0.5431640000000  0.5925270000000  0.4601150000000 1.0
C      1  0.5930900000000  0.5532870000000  0.5398870000000 1.0
C      1  0.6085260000000  0.4908120000000  0.4606950000000 1.0
C      1  0.6024420000000  0.4657440000000  0.4752270000000 1.0
C      1  0.5583960000000  0.4104730000000  0.5255550000000 1.0
C      1  0.4940690000000  0.3884480000000  0.4738300000000 1.0
C      1  0.4308670000000  0.4172310000000  0.5244800000000 1.0
C      1  0.3936660000000  0.4746030000000  0.4743440000000 1.0
C      1  0.4022400000000  0.5406890000000  0.5249700000000 1.0
C      1  0.4371680000000  0.5878670000000  0.4740170000000 1.0
C      1  0.5027050000000  0.6040610000000  0.5258200000000 1.0
C      1  0.5694490000000  0.5825660000000  0.4746040000000 1.0
C      1  0.6018670000000  0.5254380000000  0.5247020000000 1.0
C      1  0.5030430000000  0.5171420000000  0.4837450000000 1.0
END
