TITL C-2782234-8014-849 -0.00102898093146154 125000 -969.17568116381 0 0 162 (C1) n - 1
REM
REM in /home/nfs/bkarasulu/CARBON/AIRSS/Generating-Clusters/REBO/Higher-Symm/SD-CG/HFTN-CG
REM
REM
REM
REM
REM
REM ./C.cell (12c818d87b63d06a65506943cc24bca4)
REM
REM compiler GCC version 9.2.1 20190827 (Red Hat 9.2.1-1)
REM options -cpp -mtune=generic -march=x86-64 -g -O0 -fpre-include=/usr/include/finclude/math-vector-fortran.h
REM seed -603451693 1312542655 18153576 859013237 -1451696267 -508784944 -605659092 887672688 -887217535 -188825314 -35107417 -619786210 -422735896 149194521 -1280196234 -1785628088 -540158307 428964178 -1045482954 -1333680815 -1510127088 1904427798 993680788 764385169 1648478848 1253609019 343067566 1826437050 -1934423073 401833082 484700028 -42928385 -1619495569
REM
CELL 1.54180   50.00000   50.00000   50.00000   90.00000   90.00000   90.00000
LATT -1
SFAC C  
C      1  0.5774050000000  0.5580000000000  0.4858530000000 1.0
C      1  0.5955470000000  0.4898710000000  0.4904440000000 1.0
C      1  0.5619930000000  0.4232600000000  0.4795270000000 1.0
C      1  0.5101410000000  0.3915800000000  0.4766830000000 1.0
C      1  0.4385270000000  0.4108820000000  0.4835560000000 1.0
C      1  0.4070860000000  0.4779220000000  0.4832820000000 1.0
C      1  0.4145900000000  0.5488060000000  0.4761130000000 1.0
C      1  0.4607260000000  0.5902120000000  0.4789980000000 1.0
C      1  0.5245050000000  0.5957740000000  0.4845180000000 1.0
C      1  0.4163540000000  0.5104480000000  0.4412310000000 1.0
C      1  0.4388840000000  0.5549370000000  0.4552470000000 1.0
C      1  0.4897820000000  0.5781210000000  0.4485540000000 1.0
C      1  0.5288920000000  0.5584400000000  0.4715600000000 1.0
C      1  0.5636040000000  0.5238240000000  0.4705590000000 1.0
C      1  0.5700590000000  0.4667880000000  0.4528950000000 1.0
C      1  0.5387350000000  0.4242140000000  0.4547080000000 1.0
C      1  0.4796370000000  0.4258910000000  0.4535800000000 1.0
C      1  0.4509730000000  0.4552820000000  0.4704360000000 1.0
C      1  0.5886720000000  0.5055790000000  0.4681320000000 1.0
C      1  0.5760490000000  0.4376250000000  0.4546310000000 1.0
C      1  0.5192640000000  0.4011800000000  0.4517680000000 1.0
C      1  0.4498520000000  0.4173650000000  0.4584690000000 1.0
C      1  0.4222390000000  0.4682410000000  0.4613670000000 1.0
C      1  0.4044100000000  0.5365780000000  0.4482260000000 1.0
C      1  0.4506260000000  0.5825580000000  0.4543050000000 1.0
C      1  0.5149590000000  0.5932090000000  0.4575900000000 1.0
C      1  0.5598010000000  0.5627370000000  0.4632100000000 1.0
C      1  0.5313230000000  0.5079920000000  0.5010910000000 1.0
C      1  0.5343030000000  0.4843920000000  0.4870380000000 1.0
C      1  0.5184090000000  0.4634810000000  0.4972360000000 1.0
C      1  0.4922620000000  0.4639670000000  0.4876270000000 1.0
C      1  0.4718750000000  0.4789950000000  0.4986430000000 1.0
C      1  0.4543270000000  0.5005810000000  0.4994940000000 1.0
C      1  0.4648120000000  0.5248390000000  0.4896710000000 1.0
C      1  0.4888770000000  0.5317000000000  0.5025100000000 1.0
C      1  0.5134680000000  0.5263640000000  0.4897270000000 1.0
C      1  0.4593860000000  0.5666020000000  0.5026970000000 1.0
C      1  0.5153720000000  0.5683550000000  0.4996400000000 1.0
C      1  0.5581140000000  0.5375940000000  0.5013840000000 1.0
C      1  0.5811700000000  0.4955240000000  0.5154770000000 1.0
C      1  0.5662620000000  0.4465390000000  0.5036390000000 1.0
C      1  0.5178910000000  0.4122320000000  0.4998750000000 1.0
C      1  0.4618810000000  0.4403200000000  0.4975550000000 1.0
C      1  0.4191100000000  0.4633340000000  0.5076070000000 1.0
C      1  0.4201790000000  0.5250920000000  0.4990280000000 1.0
C      1  0.5613150000000  0.5413170000000  0.4409260000000 1.0
C      1  0.5860520000000  0.4903190000000  0.4442120000000 1.0
C      1  0.5567970000000  0.4374630000000  0.4293670000000 1.0
C      1  0.4983540000000  0.4115290000000  0.4356410000000 1.0
C      1  0.4472640000000  0.4427070000000  0.4382410000000 1.0
C      1  0.4227570000000  0.4818640000000  0.4366980000000 1.0
C      1  0.4263720000000  0.5461750000000  0.4264630000000 1.0
C      1  0.4672740000000  0.5851360000000  0.4285290000000 1.0
C      1  0.5279570000000  0.5698020000000  0.4401570000000 1.0
C      1  0.4882220000000  0.4234930000000  0.5400860000000 1.0
C      1  0.4410910000000  0.4454620000000  0.5535450000000 1.0
C      1  0.4149420000000  0.4964200000000  0.5427880000000 1.0
C      1  0.4385410000000  0.5457800000000  0.5484630000000 1.0
C      1  0.4906740000000  0.5738800000000  0.5484830000000 1.0
C      1  0.5428690000000  0.5768520000000  0.5365820000000 1.0
C      1  0.5754380000000  0.5335400000000  0.5494100000000 1.0
C      1  0.5876000000000  0.4768210000000  0.5512590000000 1.0
C      1  0.5478680000000  0.4304290000000  0.5544320000000 1.0
C      1  0.4640820000000  0.4917040000000  0.3966360000000 1.0
C      1  0.4630210000000  0.5209530000000  0.3961810000000 1.0
C      1  0.4790920000000  0.5452330000000  0.3928860000000 1.0
C      1  0.5072860000000  0.5437240000000  0.3999490000000 1.0
C      1  0.5320920000000  0.5335580000000  0.3917270000000 1.0
C      1  0.5467490000000  0.5052170000000  0.3970070000000 1.0
C      1  0.5348250000000  0.4760910000000  0.3993200000000 1.0
C      1  0.5097240000000  0.4653120000000  0.3996070000000 1.0
C      1  0.4798950000000  0.4664350000000  0.3999050000000 1.0
C      1  0.5704720000000  0.4474210000000  0.5589580000000 1.0
C      1  0.5141420000000  0.4226040000000  0.5530000000000 1.0
C      1  0.4601450000000  0.4187940000000  0.5463890000000 1.0
C      1  0.4193630000000  0.4701390000000  0.5605290000000 1.0
C      1  0.4176220000000  0.5270140000000  0.5574930000000 1.0
C      1  0.4606450000000  0.5690160000000  0.5590780000000 1.0
C      1  0.5164750000000  0.5917840000000  0.5436280000000 1.0
C      1  0.5695580000000  0.5610010000000  0.5509080000000 1.0
C      1  0.5930630000000  0.5063840000000  0.5534480000000 1.0
C      1  0.4437060000000  0.5256470000000  0.4167960000000 1.0
C      1  0.4670900000000  0.5697420000000  0.4040210000000 1.0
C      1  0.5103500000000  0.5523210000000  0.4265320000000 1.0
C      1  0.5539100000000  0.5325290000000  0.4164000000000 1.0
C      1  0.5579100000000  0.4940700000000  0.4264640000000 1.0
C      1  0.5536190000000  0.4615390000000  0.4168240000000 1.0
C      1  0.5021750000000  0.4425630000000  0.4228280000000 1.0
C      1  0.4684510000000  0.4458390000000  0.4198320000000 1.0
C      1  0.4468690000000  0.4791330000000  0.4185410000000 1.0
C      1  0.4649470000000  0.4525650000000  0.5732980000000 1.0
C      1  0.4384400000000  0.4937590000000  0.5747000000000 1.0
C      1  0.4728800000000  0.5341240000000  0.5740130000000 1.0
C      1  0.4948200000000  0.5562990000000  0.5754290000000 1.0
C      1  0.5239940000000  0.5428510000000  0.5687950000000 1.0
C      1  0.5427100000000  0.5148930000000  0.5636480000000 1.0
C      1  0.5460170000000  0.4838190000000  0.5773360000000 1.0
C      1  0.5299710000000  0.4542950000000  0.5845300000000 1.0
C      1  0.4970470000000  0.4470020000000  0.5796760000000 1.0
C      1  0.5722220000000  0.5208060000000  0.5225110000000 1.0
C      1  0.5664150000000  0.4699210000000  0.5262900000000 1.0
C      1  0.5339090000000  0.4402760000000  0.5020660000000 1.0
C      1  0.4873520000000  0.4228000000000  0.5085810000000 1.0
C      1  0.4414120000000  0.4448320000000  0.5225220000000 1.0
C      1  0.4275280000000  0.4948140000000  0.5135500000000 1.0
C      1  0.4423140000000  0.5423560000000  0.5182600000000 1.0
C      1  0.4889030000000  0.5733280000000  0.5153750000000 1.0
C      1  0.5350870000000  0.5525730000000  0.5174960000000 1.0
C      1  0.5194030000000  0.5395470000000  0.6019120000000 1.0
C      1  0.5397970000000  0.5185680000000  0.5961150000000 1.0
C      1  0.5467390000000  0.4937860000000  0.6104930000000 1.0
C      1  0.5287880000000  0.4707320000000  0.6134590000000 1.0
C      1  0.4998880000000  0.4649830000000  0.6082950000000 1.0
C      1  0.4717230000000  0.4709040000000  0.5992020000000 1.0
C      1  0.4560130000000  0.4950040000000  0.5978650000000 1.0
C      1  0.4686030000000  0.5208110000000  0.6009360000000 1.0
C      1  0.4905740000000  0.5435700000000  0.6079870000000 1.0
C      1  0.4510230000000  0.5088580000000  0.4445160000000 1.0
C      1  0.4620830000000  0.5332650000000  0.4605830000000 1.0
C      1  0.4882780000000  0.5441220000000  0.4494170000000 1.0
C      1  0.5166730000000  0.5297980000000  0.4590010000000 1.0
C      1  0.5397870000000  0.5092400000000  0.4510540000000 1.0
C      1  0.5405730000000  0.4758420000000  0.4573900000000 1.0
C      1  0.5215250000000  0.4530010000000  0.4487770000000 1.0
C      1  0.4887910000000  0.4561580000000  0.4578980000000 1.0
C      1  0.4641210000000  0.4775530000000  0.4479320000000 1.0
C      1  0.4031800000000  0.4323300000000  0.5271260000000 1.0
C      1  0.3902970000000  0.5072210000000  0.5208800000000 1.0
C      1  0.4210460000000  0.5734670000000  0.5314530000000 1.0
C      1  0.4933980000000  0.6226650000000  0.5124220000000 1.0
C      1  0.5606670000000  0.5990520000000  0.5190510000000 1.0
C      1  0.6140500000000  0.5412610000000  0.5163680000000 1.0
C      1  0.6071620000000  0.4596370000000  0.5284200000000 1.0
C      1  0.5544890000000  0.4035380000000  0.5360040000000 1.0
C      1  0.4549680000000  0.3952340000000  0.5009780000000 1.0
C      1  0.6115470000000  0.5227510000000  0.5360760000000 1.0
C      1  0.5974030000000  0.4384750000000  0.5477500000000 1.0
C      1  0.5292320000000  0.3955370000000  0.5512470000000 1.0
C      1  0.4493560000000  0.3986100000000  0.5291100000000 1.0
C      1  0.4016340000000  0.4462420000000  0.5475800000000 1.0
C      1  0.3912690000000  0.5283160000000  0.5429620000000 1.0
C      1  0.4379690000000  0.5856000000000  0.5508230000000 1.0
C      1  0.5113810000000  0.6165300000000  0.5326780000000 1.0
C      1  0.5815650000000  0.5858120000000  0.5370100000000 1.0
C      1  0.5192760000000  0.5348940000000  0.5384820000000 1.0
C      1  0.5351770000000  0.5084280000000  0.5310760000000 1.0
C      1  0.5439200000000  0.4809910000000  0.5430440000000 1.0
C      1  0.5232970000000  0.4615220000000  0.5535740000000 1.0
C      1  0.4946140000000  0.4618470000000  0.5486800000000 1.0
C      1  0.4682000000000  0.4732000000000  0.5448730000000 1.0
C      1  0.4551300000000  0.4980170000000  0.5496500000000 1.0
C      1  0.4707350000000  0.5220540000000  0.5489590000000 1.0
C      1  0.4902680000000  0.5309990000000  0.5303470000000 1.0
C      1  0.4252320000000  0.5647150000000  0.5004370000000 1.0
C      1  0.4788140000000  0.6012510000000  0.5010210000000 1.0
C      1  0.5467680000000  0.6084780000000  0.4966090000000 1.0
C      1  0.6033440000000  0.5568050000000  0.4965980000000 1.0
C      1  0.5965090000000  0.4612710000000  0.5017090000000 1.0
C      1  0.5505420000000  0.4084110000000  0.5072290000000 1.0
C      1  0.4838880000000  0.3930390000000  0.4925180000000 1.0
C      1  0.4217360000000  0.4300110000000  0.4993660000000 1.0
C      1  0.3955360000000  0.5027470000000  0.4914260000000 1.0
END
