TITL C-2782234-8014-1000 0.00206660870508894 125000 -278.237160742659 0 0 49 (C1) n - 1
REM
REM in /home/nfs/bkarasulu/CARBON/AIRSS/Generating-Clusters/REBO/Higher-Symm/SD-CG/HFTN-CG
REM
REM
REM
REM
REM
REM ./C.cell (12c818d87b63d06a65506943cc24bca4)
REM
REM compiler GCC version 9.2.1 20190827 (Red Hat 9.2.1-1)
REM options -cpp -mtune=generic -march=x86-64 -g -O0 -fpre-include=/usr/include/finclude/math-vector-fortran.h
REM seed -706502452 -843627027 -102694167 -1982488541 1036838222 789122618 192362000 1863714531 -1543472697 -1609972633 1297331250 277473025 -1446991802 806095355 -1531706979 661785349 -833347274 -1361939487 -1233313930 672122093 554073760 1690215358 90632613 -206878334 -667486372 225967725 1744433354 -1083302394 -2112995686 417507960 -2099914096 -340879566 130621296
REM
CELL 1.54180   50.00000   50.00000   50.00000   90.00000   90.00000   90.00000
LATT -1
SFAC C  
C      1  0.5478050000000  0.5291290000000  0.5661680000000 1.0
C      1  0.4569550000000  0.4740020000000  0.5482920000000 1.0
C      1  0.4470900000000  0.5352860000000  0.5560890000000 1.0
C      1  0.5480820000000  0.4681830000000  0.5645920000000 1.0
C      1  0.5210090000000  0.5192680000000  0.4617990000000 1.0
C      1  0.4687290000000  0.4759340000000  0.4626730000000 1.0
C      1  0.4682050000000  0.5225020000000  0.4623440000000 1.0
C      1  0.5226300000000  0.4793940000000  0.4604920000000 1.0
C      1  0.4836770000000  0.5218670000000  0.5474040000000 1.0
C      1  0.5161820000000  0.4822280000000  0.5450430000000 1.0
C      1  0.5153100000000  0.5159900000000  0.5464660000000 1.0
C      1  0.4869560000000  0.4889430000000  0.5541920000000 1.0
C      1  0.5498520000000  0.5535100000000  0.5176630000000 1.0
C      1  0.4616930000000  0.4304340000000  0.5093460000000 1.0
C      1  0.4612190000000  0.5658200000000  0.5106610000000 1.0
C      1  0.5503520000000  0.4454440000000  0.5151720000000 1.0
C      1  0.4705020000000  0.4461890000000  0.4609300000000 1.0
C      1  0.5168380000000  0.5486680000000  0.4535120000000 1.0
C      1  0.5184740000000  0.4500600000000  0.4521950000000 1.0
C      1  0.4693950000000  0.5520770000000  0.4611910000000 1.0
C      1  0.4744170000000  0.4737240000000  0.5194820000000 1.0
C      1  0.5221470000000  0.5206390000000  0.5136290000000 1.0
C      1  0.5218720000000  0.4791370000000  0.5121700000000 1.0
C      1  0.4751800000000  0.5277300000000  0.5164340000000 1.0
C      1  0.5174010000000  0.5511930000000  0.5275960000000 1.0
C      1  0.4893330000000  0.4441700000000  0.5232880000000 1.0
C      1  0.4891550000000  0.5560640000000  0.5274300000000 1.0
C      1  0.5176270000000  0.4482820000000  0.5239500000000 1.0
C      1  0.5384940000000  0.5155000000000  0.4872770000000 1.0
C      1  0.4662370000000  0.4860020000000  0.4921630000000 1.0
C      1  0.4666980000000  0.5129930000000  0.4911100000000 1.0
C      1  0.5391190000000  0.4841250000000  0.4860850000000 1.0
C      1  0.5434190000000  0.4494060000000  0.5460250000000 1.0
C      1  0.4574880000000  0.5543170000000  0.5403590000000 1.0
C      1  0.4590790000000  0.4430090000000  0.5393350000000 1.0
C      1  0.5437230000000  0.5489290000000  0.5486160000000 1.0
C      1  0.4584640000000  0.4315930000000  0.4818710000000 1.0
C      1  0.5574750000000  0.5391880000000  0.4959870000000 1.0
C      1  0.5586950000000  0.4608860000000  0.4944670000000 1.0
C      1  0.4580700000000  0.5655310000000  0.4832870000000 1.0
C      1  0.5168080000000  0.4999180000000  0.4341420000000 1.0
C      1  0.4681800000000  0.4995200000000  0.4380470000000 1.0
C      1  0.4933840000000  0.5620630000000  0.4501940000000 1.0
C      1  0.4947810000000  0.4368630000000  0.4499340000000 1.0
C      1  0.4574150000000  0.5050720000000  0.5612870000000 1.0
C      1  0.5386650000000  0.4987520000000  0.5645650000000 1.0
C      1  0.4915670000000  0.4997120000000  0.4225830000000 1.0
C      1  0.4947680000000  0.4979760000000  0.4669850000000 1.0
C      1  0.4951080000000  0.4998980000000  0.5160260000000 1.0
END
