TITL C-2782230-7391-879 0.00123738953016061 125000 -424.079620548815 0 0 70 (C1) n - 1
REM
REM in /home/nfs/bkarasulu/CARBON/AIRSS/Generating-Clusters/REBO/Higher-Symm/SD-CG/HFTN-CG
REM
REM
REM
REM
REM
REM ./C.cell (12c818d87b63d06a65506943cc24bca4)
REM
REM compiler GCC version 9.2.1 20190827 (Red Hat 9.2.1-1)
REM options -cpp -mtune=generic -march=x86-64 -g -O0 -fpre-include=/usr/include/finclude/math-vector-fortran.h
REM seed 2082693778 -1011511551 -643269346 -883448286 -1431996151 -409223090 -1485604258 -406928192 498640467 -1447088933 552519000 870794657 190090367 701014032 -2082837739 -427876270 294744625 1554067234 1920719560 -62908429 154767545 -2141647808 476650341 1238894571 -49840880 1645300427 977385308 -1332349682 1485885492 -901861377 -59808936 -1146554814 221158817
REM
CELL 1.54180   50.00000   50.00000   50.00000   90.00000   90.00000   90.00000
LATT -1
SFAC C  
C      1  0.4494480000000  0.5589500000000  0.4860030000000 1.0
C      1  0.4507460000000  0.4872410000000  0.4377980000000 1.0
C      1  0.4515540000000  0.4431990000000  0.5116530000000 1.0
C      1  0.4522860000000  0.5190720000000  0.5596080000000 1.0
C      1  0.5496800000000  0.5600500000000  0.4903790000000 1.0
C      1  0.5508800000000  0.4885230000000  0.4410020000000 1.0
C      1  0.5485030000000  0.4386570000000  0.5125280000000 1.0
C      1  0.5571410000000  0.5065390000000  0.5613990000000 1.0
C      1  0.5193190000000  0.4947400000000  0.5667770000000 1.0
C      1  0.5128540000000  0.5648300000000  0.5172110000000 1.0
C      1  0.5151500000000  0.5176440000000  0.4327330000000 1.0
C      1  0.5139420000000  0.4295750000000  0.4818800000000 1.0
C      1  0.4908300000000  0.4935260000000  0.5681150000000 1.0
C      1  0.4844460000000  0.5641490000000  0.5160370000000 1.0
C      1  0.4863600000000  0.5170280000000  0.4323400000000 1.0
C      1  0.4850660000000  0.4300330000000  0.4816320000000 1.0
C      1  0.5244160000000  0.5749460000000  0.4921390000000 1.0
C      1  0.5263160000000  0.4912270000000  0.4252650000000 1.0
C      1  0.5237770000000  0.4239730000000  0.5092340000000 1.0
C      1  0.5306470000000  0.5251720000000  0.5722030000000 1.0
C      1  0.4744110000000  0.5737640000000  0.4900060000000 1.0
C      1  0.4762910000000  0.4904850000000  0.4237820000000 1.0
C      1  0.4747240000000  0.4259310000000  0.5090620000000 1.0
C      1  0.4785480000000  0.5196020000000  0.5723060000000 1.0
C      1  0.5766160000000  0.4770650000000  0.4912070000000 1.0
C      1  0.5783900000000  0.4921840000000  0.5181700000000 1.0
C      1  0.5767710000000  0.5212430000000  0.5081800000000 1.0
C      1  0.5757600000000  0.5062080000000  0.4812010000000 1.0
C      1  0.4251350000000  0.4792770000000  0.4937810000000 1.0
C      1  0.4268640000000  0.4920290000000  0.5220730000000 1.0
C      1  0.4247930000000  0.5173740000000  0.5047320000000 1.0
C      1  0.4231680000000  0.5051080000000  0.4768430000000 1.0
C      1  0.4854780000000  0.5167030000000  0.5196640000000 1.0
C      1  0.4857660000000  0.5168460000000  0.4797150000000 1.0
C      1  0.4864340000000  0.4770890000000  0.4754460000000 1.0
C      1  0.4882070000000  0.4770620000000  0.5239170000000 1.0
C      1  0.5134060000000  0.5173630000000  0.5197220000000 1.0
C      1  0.5136700000000  0.5180280000000  0.4797950000000 1.0
C      1  0.5146770000000  0.4770080000000  0.4754960000000 1.0
C      1  0.5163360000000  0.4776790000000  0.5230200000000 1.0
C      1  0.4412120000000  0.4556250000000  0.4821970000000 1.0
C      1  0.4452900000000  0.4896310000000  0.5474090000000 1.0
C      1  0.4398130000000  0.5420540000000  0.5132260000000 1.0
C      1  0.4408490000000  0.5146280000000  0.4539940000000 1.0
C      1  0.5584420000000  0.4527440000000  0.4845890000000 1.0
C      1  0.5638730000000  0.4821280000000  0.5424560000000 1.0
C      1  0.5586560000000  0.5430850000000  0.5185070000000 1.0
C      1  0.5592370000000  0.5160970000000  0.4572920000000 1.0
C      1  0.4452920000000  0.4585400000000  0.5334050000000 1.0
C      1  0.4396700000000  0.5401530000000  0.5468190000000 1.0
C      1  0.4412980000000  0.5474480000000  0.4622690000000 1.0
C      1  0.4410020000000  0.4640700000000  0.4492680000000 1.0
C      1  0.5567670000000  0.4509430000000  0.5355990000000 1.0
C      1  0.5546930000000  0.5370710000000  0.5511390000000 1.0
C      1  0.5586150000000  0.5483540000000  0.4670580000000 1.0
C      1  0.5603330000000  0.4657820000000  0.4531810000000 1.0
C      1  0.5315020000000  0.4800000000000  0.5462740000000 1.0
C      1  0.5265750000000  0.5412000000000  0.5238500000000 1.0
C      1  0.5280540000000  0.5249170000000  0.4570430000000 1.0
C      1  0.5282000000000  0.4524990000000  0.4725250000000 1.0
C      1  0.4757370000000  0.4792680000000  0.5487150000000 1.0
C      1  0.4709670000000  0.5401050000000  0.5222660000000 1.0
C      1  0.4721240000000  0.5230300000000  0.4563130000000 1.0
C      1  0.4721020000000  0.4532440000000  0.4714590000000 1.0
C      1  0.4989560000000  0.4189370000000  0.5246280000000 1.0
C      1  0.5010020000000  0.5376120000000  0.5775540000000 1.0
C      1  0.4998420000000  0.5827350000000  0.4768680000000 1.0
C      1  0.5017470000000  0.4761910000000  0.4171180000000 1.0
C      1  0.5268490000000  0.4953940000000  0.4988070000000 1.0
C      1  0.4742820000000  0.4936320000000  0.4998700000000 1.0
END
