TITL C-2782230-7391-462 -0.00328456989577248 125000 -823.713374727901 0 0 141 (C1) n - 1
REM
REM in /home/nfs/bkarasulu/CARBON/AIRSS/Generating-Clusters/REBO/Higher-Symm/SD-CG/HFTN-CG
REM
REM
REM
REM
REM
REM ./C.cell (12c818d87b63d06a65506943cc24bca4)
REM
REM compiler GCC version 9.2.1 20190827 (Red Hat 9.2.1-1)
REM options -cpp -mtune=generic -march=x86-64 -g -O0 -fpre-include=/usr/include/finclude/math-vector-fortran.h
REM seed -621270249 -99141136 1784516431 370254616 356699503 -439746775 2046718778 -394112356 100291387 -328096383 1607583043 -1636220998 493585199 272171819 3415948 1891453218 226157347 724742520 -261613887 -1350776846 -1177376484 -483368881 1549154408 2004377515 -2075026972 -1073060558 1547394129 -242995249 -1062772393 486467303 176039611 -782369010 -1207933444
REM
CELL 1.54180   50.00000   50.00000   50.00000   90.00000   90.00000   90.00000
LATT -1
SFAC C  
C      1  0.5597410000000  0.5007460000000  0.5551210000000 1.0
C      1  0.5144600000000  0.5658290000000  0.5572350000000 1.0
C      1  0.4444150000000  0.5343300000000  0.5503830000000 1.0
C      1  0.4539730000000  0.4579950000000  0.5568860000000 1.0
C      1  0.5289370000000  0.4482450000000  0.5553710000000 1.0
C      1  0.4613140000000  0.5418120000000  0.5945550000000 1.0
C      1  0.4517570000000  0.4749280000000  0.6026380000000 1.0
C      1  0.5149400000000  0.4429030000000  0.6025390000000 1.0
C      1  0.5444180000000  0.4854270000000  0.5992760000000 1.0
C      1  0.5156010000000  0.5521700000000  0.6045230000000 1.0
C      1  0.5804880000000  0.5283590000000  0.5256090000000 1.0
C      1  0.5079100000000  0.6019260000000  0.5295440000000 1.0
C      1  0.4162690000000  0.5277300000000  0.5229130000000 1.0
C      1  0.4527240000000  0.4297990000000  0.5287820000000 1.0
C      1  0.5549860000000  0.4314510000000  0.5201090000000 1.0
C      1  0.5402260000000  0.6006390000000  0.5320860000000 1.0
C      1  0.4234820000000  0.5559950000000  0.5161570000000 1.0
C      1  0.4232070000000  0.4358470000000  0.5308260000000 1.0
C      1  0.5388100000000  0.4053310000000  0.5190870000000 1.0
C      1  0.6001110000000  0.5060500000000  0.5250040000000 1.0
C      1  0.6147330000000  0.5011260000000  0.5010470000000 1.0
C      1  0.5364410000000  0.6060620000000  0.5019290000000 1.0
C      1  0.4186700000000  0.5663800000000  0.4900610000000 1.0
C      1  0.4070280000000  0.4338100000000  0.5070430000000 1.0
C      1  0.5349080000000  0.3889460000000  0.4959730000000 1.0
C      1  0.5249320000000  0.4796010000000  0.5584440000000 1.0
C      1  0.5215340000000  0.5101650000000  0.5601260000000 1.0
C      1  0.4918140000000  0.5216580000000  0.5677280000000 1.0
C      1  0.4706030000000  0.4951760000000  0.5679920000000 1.0
C      1  0.4948560000000  0.4714130000000  0.5721000000000 1.0
C      1  0.4585520000000  0.5322320000000  0.4884020000000 1.0
C      1  0.4313920000000  0.4786000000000  0.4995440000000 1.0
C      1  0.5008240000000  0.4382700000000  0.5066470000000 1.0
C      1  0.5667820000000  0.4840310000000  0.4947110000000 1.0
C      1  0.5324710000000  0.5385160000000  0.5032520000000 1.0
C      1  0.5349110000000  0.4866920000000  0.4082670000000 1.0
C      1  0.5242400000000  0.5352940000000  0.4254770000000 1.0
C      1  0.4722230000000  0.5474260000000  0.4081020000000 1.0
C      1  0.4613160000000  0.4897010000000  0.4213710000000 1.0
C      1  0.5012820000000  0.4533900000000  0.4245120000000 1.0
C      1  0.5437250000000  0.4252020000000  0.4442130000000 1.0
C      1  0.5901530000000  0.5222260000000  0.4469410000000 1.0
C      1  0.5190710000000  0.5928020000000  0.4417330000000 1.0
C      1  0.4167970000000  0.5340900000000  0.4375490000000 1.0
C      1  0.4368280000000  0.4352110000000  0.4514700000000 1.0
C      1  0.4847420000000  0.5172730000000  0.4968920000000 1.0
C      1  0.4733190000000  0.4912370000000  0.5028480000000 1.0
C      1  0.4870070000000  0.4709490000000  0.4891360000000 1.0
C      1  0.5183090000000  0.4777260000000  0.4928770000000 1.0
C      1  0.5159660000000  0.5107080000000  0.5011030000000 1.0
C      1  0.5134860000000  0.4038310000000  0.5390500000000 1.0
C      1  0.5883840000000  0.4816400000000  0.5352260000000 1.0
C      1  0.5490560000000  0.5746480000000  0.5394490000000 1.0
C      1  0.4492570000000  0.5680040000000  0.5296310000000 1.0
C      1  0.4159490000000  0.4625620000000  0.5464610000000 1.0
C      1  0.4296120000000  0.4866280000000  0.4288900000000 1.0
C      1  0.5118880000000  0.4280380000000  0.4205320000000 1.0
C      1  0.5524830000000  0.4717030000000  0.4241790000000 1.0
C      1  0.5437620000000  0.5524190000000  0.4365060000000 1.0
C      1  0.4575540000000  0.5681100000000  0.3981940000000 1.0
C      1  0.5089490000000  0.4417490000000  0.4737570000000 1.0
C      1  0.5495550000000  0.5018750000000  0.4712430000000 1.0
C      1  0.5283590000000  0.5561850000000  0.4753150000000 1.0
C      1  0.4610710000000  0.5354540000000  0.4573260000000 1.0
C      1  0.4508670000000  0.4812880000000  0.4713860000000 1.0
C      1  0.4292960000000  0.5725830000000  0.4645470000000 1.0
C      1  0.4078690000000  0.4582380000000  0.4881040000000 1.0
C      1  0.5188230000000  0.3932460000000  0.4729820000000 1.0
C      1  0.5976840000000  0.4845250000000  0.4818720000000 1.0
C      1  0.5530180000000  0.5996690000000  0.4792040000000 1.0
C      1  0.5062870000000  0.5975030000000  0.4984530000000 1.0
C      1  0.4190090000000  0.5088410000000  0.5027190000000 1.0
C      1  0.4699360000000  0.4344360000000  0.5074570000000 1.0
C      1  0.5571650000000  0.4516030000000  0.5002020000000 1.0
C      1  0.5651210000000  0.5337160000000  0.5030080000000 1.0
C      1  0.4812980000000  0.5164440000000  0.4485930000000 1.0
C      1  0.4743400000000  0.4853590000000  0.4528330000000 1.0
C      1  0.5035080000000  0.4677320000000  0.4532810000000 1.0
C      1  0.5233670000000  0.4943590000000  0.4569310000000 1.0
C      1  0.5095390000000  0.5177910000000  0.4461670000000 1.0
C      1  0.4935280000000  0.4673300000000  0.5383670000000 1.0
C      1  0.5240720000000  0.4733750000000  0.5246460000000 1.0
C      1  0.5111230000000  0.5223940000000  0.5327250000000 1.0
C      1  0.4789430000000  0.5203140000000  0.5362790000000 1.0
C      1  0.4685070000000  0.4877930000000  0.5345210000000 1.0
C      1  0.5651510000000  0.5286900000000  0.5508940000000 1.0
C      1  0.4942270000000  0.5850710000000  0.5494510000000 1.0
C      1  0.4207420000000  0.5155480000000  0.5513760000000 1.0
C      1  0.4687500000000  0.4305940000000  0.5552770000000 1.0
C      1  0.5576340000000  0.4430890000000  0.5468470000000 1.0
C      1  0.5143520000000  0.4733560000000  0.6069250000000 1.0
C      1  0.5180540000000  0.5040540000000  0.5922300000000 1.0
C      1  0.4981730000000  0.5275300000000  0.6006470000000 1.0
C      1  0.4690230000000  0.5107300000000  0.5983900000000 1.0
C      1  0.4832290000000  0.4805930000000  0.6027390000000 1.0
C      1  0.5257300000000  0.5512240000000  0.5312780000000 1.0
C      1  0.4585970000000  0.5373920000000  0.5194760000000 1.0
C      1  0.4422130000000  0.4706650000000  0.5272760000000 1.0
C      1  0.5141380000000  0.4343150000000  0.5308480000000 1.0
C      1  0.5550030000000  0.4826630000000  0.5267050000000 1.0
C      1  0.4408900000000  0.5972770000000  0.4574720000000 1.0
C      1  0.3847820000000  0.4749170000000  0.4761430000000 1.0
C      1  0.4932270000000  0.3829580000000  0.4661470000000 1.0
C      1  0.6044400000000  0.4581040000000  0.4685380000000 1.0
C      1  0.5808600000000  0.5951150000000  0.4755240000000 1.0
C      1  0.5374540000000  0.5147510000000  0.4059650000000 1.0
C      1  0.5001670000000  0.5495580000000  0.4115840000000 1.0
C      1  0.4602090000000  0.5229800000000  0.4153250000000 1.0
C      1  0.4698810000000  0.4568840000000  0.4170190000000 1.0
C      1  0.5090330000000  0.4763130000000  0.4050300000000 1.0
C      1  0.4669400000000  0.5761660000000  0.5525690000000 1.0
C      1  0.4174830000000  0.4895210000000  0.5636490000000 1.0
C      1  0.4942830000000  0.4175690000000  0.5611990000000 1.0
C      1  0.5748810000000  0.4639080000000  0.5562200000000 1.0
C      1  0.5526080000000  0.5528320000000  0.5607580000000 1.0
C      1  0.5784730000000  0.5475340000000  0.4541210000000 1.0
C      1  0.4917980000000  0.5902040000000  0.4520490000000 1.0
C      1  0.4161850000000  0.5057240000000  0.4499310000000 1.0
C      1  0.4612910000000  0.4231960000000  0.4579820000000 1.0
C      1  0.5569690000000  0.4529540000000  0.4480860000000 1.0
C      1  0.5808560000000  0.5011080000000  0.4615270000000 1.0
C      1  0.5380890000000  0.5834580000000  0.4605670000000 1.0
C      1  0.4378040000000  0.5501070000000  0.4479660000000 1.0
C      1  0.4302760000000  0.4572730000000  0.4659260000000 1.0
C      1  0.5236500000000  0.4186290000000  0.4610530000000 1.0
C      1  0.5024370000000  0.5781690000000  0.4776760000000 1.0
C      1  0.4359580000000  0.5101820000000  0.4756140000000 1.0
C      1  0.4757840000000  0.4416640000000  0.4761350000000 1.0
C      1  0.5412860000000  0.4621610000000  0.4743370000000 1.0
C      1  0.5551040000000  0.5355550000000  0.4709520000000 1.0
C      1  0.5870990000000  0.4478120000000  0.4538080000000 1.0
C      1  0.5885660000000  0.5726880000000  0.4613920000000 1.0
C      1  0.4666110000000  0.6014710000000  0.4499270000000 1.0
C      1  0.3893240000000  0.4939650000000  0.4603730000000 1.0
C      1  0.4713940000000  0.3970360000000  0.4572460000000 1.0
C      1  0.5305730000000  0.5589990000000  0.5816930000000 1.0
C      1  0.4566770000000  0.5526030000000  0.5688000000000 1.0
C      1  0.4393120000000  0.4721860000000  0.5774130000000 1.0
C      1  0.5133030000000  0.4329930000000  0.5775040000000 1.0
C      1  0.5629610000000  0.4820110000000  0.5789000000000 1.0
C      1  0.4869210000000  0.4912140000000  0.3986720000000 1.0
END
