TITL C-2782238-9940-995 -0.00620812089675668 125000 -1146.29550264155 0 0 197 (C1) n - 1
REM
REM in /home/nfs/bkarasulu/CARBON/AIRSS/Generating-Clusters/REBO/Higher-Symm/SD-CG/HFTN-CG
REM
REM
REM
REM
REM
REM ./C.cell (12c818d87b63d06a65506943cc24bca4)
REM
REM compiler GCC version 9.2.1 20190827 (Red Hat 9.2.1-1)
REM options -cpp -mtune=generic -march=x86-64 -g -O0 -fpre-include=/usr/include/finclude/math-vector-fortran.h
REM seed 1761244774 1545450112 321287579 1028951920 987598953 1778098679 -1146466712 -1930597540 -566040851 60747317 -724414327 -394247830 1099184906 -1448937408 -2112245469 1409149056 -1357028586 -1099711799 -189688936 -504540883 85353911 2073374659 -1832056089 1291639031 395660622 -1441182496 100483273 1923497838 -1513773763 -743295047 534592251 -797348040 1492095298
REM
CELL 1.54180   50.00000   50.00000   50.00000   90.00000   90.00000   90.00000
LATT -1
SFAC C  
C      1  0.4954150000000  0.5072470000000  0.5614610000000 1.0
C      1  0.4451490000000  0.5248820000000  0.4693900000000 1.0
C      1  0.5589250000000  0.5250010000000  0.4695700000000 1.0
C      1  0.4889910000000  0.4787840000000  0.5717870000000 1.0
C      1  0.4437700000000  0.4727980000000  0.4680200000000 1.0
C      1  0.5580390000000  0.4704900000000  0.4697170000000 1.0
C      1  0.5285430000000  0.5174100000000  0.5020180000000 1.0
C      1  0.4754830000000  0.5070460000000  0.5344930000000 1.0
C      1  0.4801260000000  0.5080730000000  0.4601890000000 1.0
C      1  0.5378910000000  0.4838490000000  0.5034290000000 1.0
C      1  0.4568110000000  0.4818980000000  0.5320120000000 1.0
C      1  0.4825000000000  0.4860890000000  0.4405520000000 1.0
C      1  0.5085810000000  0.5169930000000  0.6077860000000 1.0
C      1  0.4070600000000  0.5276650000000  0.4486050000000 1.0
C      1  0.5843440000000  0.5138480000000  0.4494780000000 1.0
C      1  0.5022030000000  0.4841510000000  0.6005880000000 1.0
C      1  0.4049720000000  0.4931280000000  0.4432900000000 1.0
C      1  0.5832210000000  0.4798550000000  0.4507670000000 1.0
C      1  0.5809500000000  0.5836430000000  0.5242220000000 1.0
C      1  0.4423160000000  0.5828730000000  0.5582910000000 1.0
C      1  0.4831880000000  0.5872620000000  0.4161630000000 1.0
C      1  0.5804390000000  0.4114560000000  0.5312500000000 1.0
C      1  0.4301090000000  0.4182670000000  0.5504010000000 1.0
C      1  0.4853490000000  0.4096750000000  0.4258050000000 1.0
C      1  0.5023580000000  0.5086430000000  0.4142610000000 1.0
C      1  0.5670450000000  0.5129530000000  0.5594320000000 1.0
C      1  0.4266400000000  0.5060360000000  0.5221650000000 1.0
C      1  0.5118170000000  0.4800520000000  0.4284990000000 1.0
C      1  0.5639080000000  0.4840440000000  0.5540150000000 1.0
C      1  0.4268220000000  0.4735160000000  0.5203200000000 1.0
C      1  0.4559720000000  0.4863880000000  0.5929060000000 1.0
C      1  0.4328230000000  0.4918500000000  0.4252540000000 1.0
C      1  0.5988580000000  0.4815030000000  0.4873350000000 1.0
C      1  0.4520390000000  0.5182780000000  0.5898190000000 1.0
C      1  0.4336410000000  0.5225440000000  0.4286900000000 1.0
C      1  0.5935010000000  0.5116140000000  0.4883100000000 1.0
C      1  0.5157830000000  0.5762040000000  0.4867300000000 1.0
C      1  0.5108370000000  0.5782140000000  0.5348960000000 1.0
C      1  0.4660710000000  0.5710790000000  0.4878220000000 1.0
C      1  0.5309400000000  0.4274520000000  0.4836070000000 1.0
C      1  0.5019950000000  0.4264120000000  0.5343370000000 1.0
C      1  0.4809530000000  0.4247880000000  0.5003950000000 1.0
C      1  0.5158850000000  0.5216500000000  0.4389100000000 1.0
C      1  0.5432610000000  0.5274280000000  0.5597190000000 1.0
C      1  0.4445870000000  0.5210090000000  0.5035320000000 1.0
C      1  0.5317180000000  0.4715350000000  0.4505590000000 1.0
C      1  0.5431180000000  0.4722660000000  0.5410720000000 1.0
C      1  0.4477940000000  0.4632730000000  0.4980430000000 1.0
C      1  0.4241970000000  0.5887940000000  0.4685690000000 1.0
C      1  0.5637870000000  0.5751930000000  0.4513500000000 1.0
C      1  0.5096670000000  0.5770980000000  0.5867100000000 1.0
C      1  0.4235510000000  0.4287720000000  0.4558810000000 1.0
C      1  0.5704650000000  0.4198740000000  0.4583430000000 1.0
C      1  0.5044920000000  0.4255340000000  0.5815810000000 1.0
C      1  0.4513090000000  0.5486470000000  0.5168320000000 1.0
C      1  0.5021220000000  0.5476010000000  0.4484340000000 1.0
C      1  0.5385130000000  0.5502130000000  0.5407430000000 1.0
C      1  0.4500920000000  0.4409920000000  0.5198170000000 1.0
C      1  0.5147800000000  0.4444300000000  0.4514430000000 1.0
C      1  0.5371490000000  0.4431910000000  0.5266990000000 1.0
C      1  0.5773420000000  0.4415980000000  0.5522940000000 1.0
C      1  0.4092380000000  0.4323600000000  0.5364340000000 1.0
C      1  0.5047940000000  0.4349870000000  0.4138860000000 1.0
C      1  0.5772080000000  0.5563950000000  0.5485910000000 1.0
C      1  0.4241110000000  0.5594700000000  0.5441440000000 1.0
C      1  0.4999960000000  0.5595610000000  0.4067530000000 1.0
C      1  0.4620550000000  0.4526950000000  0.5957190000000 1.0
C      1  0.4366450000000  0.4461930000000  0.4232790000000 1.0
C      1  0.6042720000000  0.4479640000000  0.4855900000000 1.0
C      1  0.4681160000000  0.5481810000000  0.5920970000000 1.0
C      1  0.4327240000000  0.5551790000000  0.4314230000000 1.0
C      1  0.5970590000000  0.5439380000000  0.4784400000000 1.0
C      1  0.5360040000000  0.5801030000000  0.4376700000000 1.0
C      1  0.5388480000000  0.5880170000000  0.5773210000000 1.0
C      1  0.4205220000000  0.5910280000000  0.4978740000000 1.0
C      1  0.5489220000000  0.4086140000000  0.4365500000000 1.0
C      1  0.5329850000000  0.4179900000000  0.5692410000000 1.0
C      1  0.4263750000000  0.4172440000000  0.4872270000000 1.0
C      1  0.3967080000000  0.4852690000000  0.4756250000000 1.0
C      1  0.5613770000000  0.4881200000000  0.4295100000000 1.0
C      1  0.5331190000000  0.4894150000000  0.5932750000000 1.0
C      1  0.3998490000000  0.5174130000000  0.4796060000000 1.0
C      1  0.5702810000000  0.5175260000000  0.4183000000000 1.0
C      1  0.5403760000000  0.5170910000000  0.6076580000000 1.0
C      1  0.4462820000000  0.5804020000000  0.5115450000000 1.0
C      1  0.5126360000000  0.5765490000000  0.4558070000000 1.0
C      1  0.5386840000000  0.5832710000000  0.5464640000000 1.0
C      1  0.4513400000000  0.4127760000000  0.5050910000000 1.0
C      1  0.5240950000000  0.4147680000000  0.4543710000000 1.0
C      1  0.5313110000000  0.4147840000000  0.5392220000000 1.0
C      1  0.5085590000000  0.4591370000000  0.5263930000000 1.0
C      1  0.4859330000000  0.4530770000000  0.4920550000000 1.0
C      1  0.5141360000000  0.4562060000000  0.4828390000000 1.0
C      1  0.5077350000000  0.5455200000000  0.5316830000000 1.0
C      1  0.4784060000000  0.5409310000000  0.4973710000000 1.0
C      1  0.5042270000000  0.5474920000000  0.4819190000000 1.0
C      1  0.5689470000000  0.4827370000000  0.4999500000000 1.0
C      1  0.4584930000000  0.4740840000000  0.5622610000000 1.0
C      1  0.4547210000000  0.4783840000000  0.4382670000000 1.0
C      1  0.5624900000000  0.5149880000000  0.5018960000000 1.0
C      1  0.4657870000000  0.5231130000000  0.5612030000000 1.0
C      1  0.4620840000000  0.5280410000000  0.4426530000000 1.0
C      1  0.3949680000000  0.4826020000000  0.5281730000000 1.0
C      1  0.5247460000000  0.4808370000000  0.3968170000000 1.0
C      1  0.5837730000000  0.4845670000000  0.5818840000000 1.0
C      1  0.3962600000000  0.5164170000000  0.5319550000000 1.0
C      1  0.5253250000000  0.5144510000000  0.3911780000000 1.0
C      1  0.5880150000000  0.5182590000000  0.5839120000000 1.0
C      1  0.4752060000000  0.4810320000000  0.5042540000000 1.0
C      1  0.5225410000000  0.4876690000000  0.4763820000000 1.0
C      1  0.5178790000000  0.4896190000000  0.5283720000000 1.0
C      1  0.4741450000000  0.5084980000000  0.4911420000000 1.0
C      1  0.5170750000000  0.5184350000000  0.4711190000000 1.0
C      1  0.5035950000000  0.5173460000000  0.5236470000000 1.0
C      1  0.6333190000000  0.4606040000000  0.4877350000000 1.0
C      1  0.4294800000000  0.4570350000000  0.5880610000000 1.0
C      1  0.4464000000000  0.4616810000000  0.4029040000000 1.0
C      1  0.6267040000000  0.5326400000000  0.4808920000000 1.0
C      1  0.4253900000000  0.5196290000000  0.5733150000000 1.0
C      1  0.4618420000000  0.5325040000000  0.3984670000000 1.0
C      1  0.5880480000000  0.4295840000000  0.5033870000000 1.0
C      1  0.4524440000000  0.4278290000000  0.5742410000000 1.0
C      1  0.4580730000000  0.4271320000000  0.4361490000000 1.0
C      1  0.5841040000000  0.5643400000000  0.4973920000000 1.0
C      1  0.4614960000000  0.5729010000000  0.5774540000000 1.0
C      1  0.4564970000000  0.5768810000000  0.4332530000000 1.0
C      1  0.6422750000000  0.5112120000000  0.4839640000000 1.0
C      1  0.4225730000000  0.4967490000000  0.5547570000000 1.0
C      1  0.4743870000000  0.5082980000000  0.4034370000000 1.0
C      1  0.6450930000000  0.4846180000000  0.4866560000000 1.0
C      1  0.4191510000000  0.4729530000000  0.5688960000000 1.0
C      1  0.4614700000000  0.4838460000000  0.3985520000000 1.0
C      1  0.4936060000000  0.4513580000000  0.6002100000000 1.0
C      1  0.4139660000000  0.4599610000000  0.4447440000000 1.0
C      1  0.5891080000000  0.4483320000000  0.4578820000000 1.0
C      1  0.4989010000000  0.5465340000000  0.5981090000000 1.0
C      1  0.4103220000000  0.5615960000000  0.4531560000000 1.0
C      1  0.5839640000000  0.5479170000000  0.4486200000000 1.0
C      1  0.4022780000000  0.4459550000000  0.4735940000000 1.0
C      1  0.5639280000000  0.4444950000000  0.4352510000000 1.0
C      1  0.5267240000000  0.4499840000000  0.5913100000000 1.0
C      1  0.4089770000000  0.5557300000000  0.4848410000000 1.0
C      1  0.5636120000000  0.5563340000000  0.4226600000000 1.0
C      1  0.5317060000000  0.5514050000000  0.5899430000000 1.0
C      1  0.5313590000000  0.5619400000000  0.4119340000000 1.0
C      1  0.5594960000000  0.5615560000000  0.5727990000000 1.0
C      1  0.4099890000000  0.5645930000000  0.5169400000000 1.0
C      1  0.5356170000000  0.4344470000000  0.4188820000000 1.0
C      1  0.5550010000000  0.4402560000000  0.5739110000000 1.0
C      1  0.4062230000000  0.4344070000000  0.5054970000000 1.0
C      1  0.5475770000000  0.5337430000000  0.4024440000000 1.0
C      1  0.5618030000000  0.5357750000000  0.5946840000000 1.0
C      1  0.3961780000000  0.5348160000000  0.5064900000000 1.0
C      1  0.5476060000000  0.4659440000000  0.4143590000000 1.0
C      1  0.5552350000000  0.4690320000000  0.5900090000000 1.0
C      1  0.3936740000000  0.4656190000000  0.4995230000000 1.0
C      1  0.3933070000000  0.4538060000000  0.5454830000000 1.0
C      1  0.5050810000000  0.4578710000000  0.3912520000000 1.0
C      1  0.5967310000000  0.4608510000000  0.5626850000000 1.0
C      1  0.4087870000000  0.5351860000000  0.5552180000000 1.0
C      1  0.5032490000000  0.5358950000000  0.3851110000000 1.0
C      1  0.5980130000000  0.5379940000000  0.5582820000000 1.0
C      1  0.4818450000000  0.4020400000000  0.5336940000000 1.0
C      1  0.4815150000000  0.4003640000000  0.4770130000000 1.0
C      1  0.5349040000000  0.4015920000000  0.5016410000000 1.0
C      1  0.4874430000000  0.6010070000000  0.5347400000000 1.0
C      1  0.4798900000000  0.5973400000000  0.4777530000000 1.0
C      1  0.5361070000000  0.5984890000000  0.4999190000000 1.0
C      1  0.4985270000000  0.3991420000000  0.4511270000000 1.0
C      1  0.5550540000000  0.3979680000000  0.5280070000000 1.0
C      1  0.4483410000000  0.4014680000000  0.5342230000000 1.0
C      1  0.4896260000000  0.5951800000000  0.4462110000000 1.0
C      1  0.5550090000000  0.5968280000000  0.5255050000000 1.0
C      1  0.4560020000000  0.5957580000000  0.5354600000000 1.0
C      1  0.5618120000000  0.5492790000000  0.5189140000000 1.0
C      1  0.4563680000000  0.5474380000000  0.5470920000000 1.0
C      1  0.4769930000000  0.5510220000000  0.4307860000000 1.0
C      1  0.5682580000000  0.4479490000000  0.5217970000000 1.0
C      1  0.4594330000000  0.4451170000000  0.5473580000000 1.0
C      1  0.4858000000000  0.4464680000000  0.4399430000000 1.0
C      1  0.5581410000000  0.5800640000000  0.4815670000000 1.0
C      1  0.4886890000000  0.5873370000000  0.5667370000000 1.0
C      1  0.4516980000000  0.5936880000000  0.4585190000000 1.0
C      1  0.5656330000000  0.4090800000000  0.4880890000000 1.0
C      1  0.4810240000000  0.4137050000000  0.5657200000000 1.0
C      1  0.4520580000000  0.4123430000000  0.4651230000000 1.0
C      1  0.4397880000000  0.5534990000000  0.4789120000000 1.0
C      1  0.5487090000000  0.5493020000000  0.4877660000000 1.0
C      1  0.4820620000000  0.5627810000000  0.5446960000000 1.0
C      1  0.4695290000000  0.4539360000000  0.4658590000000 1.0
C      1  0.5542870000000  0.4471040000000  0.4908040000000 1.0
C      1  0.4904880000000  0.4528730000000  0.5520570000000 1.0
C      1  0.5228250000000  0.5122690000000  0.5708670000000 1.0
C      1  0.5453680000000  0.5152350000000  0.4421600000000 1.0
C      1  0.4281360000000  0.4984290000000  0.4750380000000 1.0
C      1  0.5011530000000  0.3988480000000  0.5054070000000 1.0
C      1  0.5018290000000  0.6014760000000  0.5037230000000 1.0
END
