TITL C-2782232-2968-1128 0.00110903358663183 125000 -812.249730512924 0 0 135 (C1) n - 1
REM
REM in /home/nfs/bkarasulu/CARBON/AIRSS/Generating-Clusters/REBO/Higher-Symm/SD-CG/HFTN-CG
REM
REM
REM
REM
REM
REM ./C.cell (12c818d87b63d06a65506943cc24bca4)
REM
REM compiler GCC version 9.2.1 20190827 (Red Hat 9.2.1-1)
REM options -cpp -mtune=generic -march=x86-64 -g -O0 -fpre-include=/usr/include/finclude/math-vector-fortran.h
REM seed -453884222 412016424 -1066244338 739381341 1381299845 1581259866 173368906 -1598564471 -592062543 -134481018 823823864 1752701126 1451363954 -1999190892 -1570924867 1472452266 -1058835742 -1953618257 -1628238917 719211312 1435807957 -554885397 779248675 -2146326625 -88667534 844163897 123259839 -877970041 -373874557 -844590620 613037531 1376582865 1063962144
REM
CELL 1.54180   50.00000   50.00000   50.00000   90.00000   90.00000   90.00000
LATT -1
SFAC C  
C      1  0.4818200000000  0.4275880000000  0.5522870000000 1.0
C      1  0.5694720000000  0.4617820000000  0.5492730000000 1.0
C      1  0.5556120000000  0.5570190000000  0.5511110000000 1.0
C      1  0.4647270000000  0.5700730000000  0.5484980000000 1.0
C      1  0.4212930000000  0.4839490000000  0.5505800000000 1.0
C      1  0.4557420000000  0.4618580000000  0.4422410000000 1.0
C      1  0.5176610000000  0.4456840000000  0.4394020000000 1.0
C      1  0.5599010000000  0.4986880000000  0.4450510000000 1.0
C      1  0.5192040000000  0.5618360000000  0.4383000000000 1.0
C      1  0.4565190000000  0.5360370000000  0.4423980000000 1.0
C      1  0.4151770000000  0.4567800000000  0.5074510000000 1.0
C      1  0.5159620000000  0.4054170000000  0.5080830000000 1.0
C      1  0.5771880000000  0.4809060000000  0.4915610000000 1.0
C      1  0.5495640000000  0.5874260000000  0.5071750000000 1.0
C      1  0.4445200000000  0.5593350000000  0.4884850000000 1.0
C      1  0.5768230000000  0.5338060000000  0.5502050000000 1.0
C      1  0.4875960000000  0.5920470000000  0.5558870000000 1.0
C      1  0.4150660000000  0.5122870000000  0.5424030000000 1.0
C      1  0.4552400000000  0.4172060000000  0.5562450000000 1.0
C      1  0.5571430000000  0.4373160000000  0.5564680000000 1.0
C      1  0.5473180000000  0.5567410000000  0.4354830000000 1.0
C      1  0.4691780000000  0.5614990000000  0.4333510000000 1.0
C      1  0.4382590000000  0.4856120000000  0.4395920000000 1.0
C      1  0.4932070000000  0.4302760000000  0.4354120000000 1.0
C      1  0.5608210000000  0.4714220000000  0.4347460000000 1.0
C      1  0.4617740000000  0.4740670000000  0.5175610000000 1.0
C      1  0.5122760000000  0.4485930000000  0.5310640000000 1.0
C      1  0.5528540000000  0.4998860000000  0.5169690000000 1.0
C      1  0.5137420000000  0.5520090000000  0.5243680000000 1.0
C      1  0.4581160000000  0.5300990000000  0.5197740000000 1.0
C      1  0.5399320000000  0.4045350000000  0.5241370000000 1.0
C      1  0.5912280000000  0.5095760000000  0.4911810000000 1.0
C      1  0.5232180000000  0.5950900000000  0.5224330000000 1.0
C      1  0.4146600000000  0.5526470000000  0.4912320000000 1.0
C      1  0.4255000000000  0.4331690000000  0.5207560000000 1.0
C      1  0.5298890000000  0.4664570000000  0.5500150000000 1.0
C      1  0.5360940000000  0.5343310000000  0.5635260000000 1.0
C      1  0.4934380000000  0.5528000000000  0.5518920000000 1.0
C      1  0.4483940000000  0.4979110000000  0.5589900000000 1.0
C      1  0.4762060000000  0.4586950000000  0.5444840000000 1.0
C      1  0.5379710000000  0.4574300000000  0.4225210000000 1.0
C      1  0.5570900000000  0.5265360000000  0.4278370000000 1.0
C      1  0.4961370000000  0.5631600000000  0.4218830000000 1.0
C      1  0.4451530000000  0.5129490000000  0.4281990000000 1.0
C      1  0.4706570000000  0.4452110000000  0.4239540000000 1.0
C      1  0.4984770000000  0.5524350000000  0.3957980000000 1.0
C      1  0.4497240000000  0.5124100000000  0.3999170000000 1.0
C      1  0.4721850000000  0.4532690000000  0.3968230000000 1.0
C      1  0.5344290000000  0.4608720000000  0.3946290000000 1.0
C      1  0.5473260000000  0.5189550000000  0.3997160000000 1.0
C      1  0.5671630000000  0.4690320000000  0.5201570000000 1.0
C      1  0.5434780000000  0.5606750000000  0.5238230000000 1.0
C      1  0.4575190000000  0.5633000000000  0.5194160000000 1.0
C      1  0.4331190000000  0.4801970000000  0.5128840000000 1.0
C      1  0.5002540000000  0.4289450000000  0.5168920000000 1.0
C      1  0.4354210000000  0.5320670000000  0.5427310000000 1.0
C      1  0.4329210000000  0.4343990000000  0.5490460000000 1.0
C      1  0.5365000000000  0.4183360000000  0.5498030000000 1.0
C      1  0.5715980000000  0.5079310000000  0.5439100000000 1.0
C      1  0.5156600000000  0.5895910000000  0.5502220000000 1.0
C      1  0.4743120000000  0.4617550000000  0.4921570000000 1.0
C      1  0.5445700000000  0.4398920000000  0.4779140000000 1.0
C      1  0.5447670000000  0.5229650000000  0.4933040000000 1.0
C      1  0.4991560000000  0.5570320000000  0.4981360000000 1.0
C      1  0.4532210000000  0.5123090000000  0.4945780000000 1.0
C      1  0.5769370000000  0.5338200000000  0.4534980000000 1.0
C      1  0.5142220000000  0.5933960000000  0.4769450000000 1.0
C      1  0.3772570000000  0.5246070000000  0.5044650000000 1.0
C      1  0.4428440000000  0.4266230000000  0.4749520000000 1.0
C      1  0.5588230000000  0.4125500000000  0.4787390000000 1.0
C      1  0.5272790000000  0.4886640000000  0.4661260000000 1.0
C      1  0.5201390000000  0.5313420000000  0.4759870000000 1.0
C      1  0.4884360000000  0.5287040000000  0.4850770000000 1.0
C      1  0.4781910000000  0.4983270000000  0.4758460000000 1.0
C      1  0.5015480000000  0.4740480000000  0.4808930000000 1.0
C      1  0.5636780000000  0.4104920000000  0.5091350000000 1.0
C      1  0.5812760000000  0.5324780000000  0.4803040000000 1.0
C      1  0.5029780000000  0.5966520000000  0.5020580000000 1.0
C      1  0.4036870000000  0.5285710000000  0.4974500000000 1.0
C      1  0.4437640000000  0.4190420000000  0.5038140000000 1.0
C      1  0.4750450000000  0.5141350000000  0.6035420000000 1.0
C      1  0.4771660000000  0.4807710000000  0.6030010000000 1.0
C      1  0.5072030000000  0.4720680000000  0.6028150000000 1.0
C      1  0.5254970000000  0.4978650000000  0.6052450000000 1.0
C      1  0.5069320000000  0.5249080000000  0.6029750000000 1.0
C      1  0.5556650000000  0.4984560000000  0.4766860000000 1.0
C      1  0.5143910000000  0.5631910000000  0.4681620000000 1.0
C      1  0.4583920000000  0.5354040000000  0.4725850000000 1.0
C      1  0.4557710000000  0.4510290000000  0.4687710000000 1.0
C      1  0.5215310000000  0.4497860000000  0.4678260000000 1.0
C      1  0.5799450000000  0.4548930000000  0.4479320000000 1.0
C      1  0.5629120000000  0.5731330000000  0.4529850000000 1.0
C      1  0.4609760000000  0.5846270000000  0.4479660000000 1.0
C      1  0.4135590000000  0.4809580000000  0.4537250000000 1.0
C      1  0.4908150000000  0.4097790000000  0.4554450000000 1.0
C      1  0.4899850000000  0.5435000000000  0.5813730000000 1.0
C      1  0.4477880000000  0.5023470000000  0.5887320000000 1.0
C      1  0.4799610000000  0.4591530000000  0.5766930000000 1.0
C      1  0.5330250000000  0.4673110000000  0.5808910000000 1.0
C      1  0.5450620000000  0.5215040000000  0.5920040000000 1.0
C      1  0.5245600000000  0.5086030000000  0.3893920000000 1.0
C      1  0.4985850000000  0.5218610000000  0.3979490000000 1.0
C      1  0.4731960000000  0.5062830000000  0.3877670000000 1.0
C      1  0.4883620000000  0.4792170000000  0.3931020000000 1.0
C      1  0.5180870000000  0.4813840000000  0.3847490000000 1.0
C      1  0.4965330000000  0.4812140000000  0.4245530000000 1.0
C      1  0.5217640000000  0.4912090000000  0.4365200000000 1.0
C      1  0.5215810000000  0.5224110000000  0.4457080000000 1.0
C      1  0.4955630000000  0.5206290000000  0.4301150000000 1.0
C      1  0.4786850000000  0.4983330000000  0.4439580000000 1.0
C      1  0.5103370000000  0.4225550000000  0.5613020000000 1.0
C      1  0.5714960000000  0.4864820000000  0.5628470000000 1.0
C      1  0.5320980000000  0.5735590000000  0.5676450000000 1.0
C      1  0.4459530000000  0.5495460000000  0.5634390000000 1.0
C      1  0.4299070000000  0.4588220000000  0.5640610000000 1.0
C      1  0.5180840000000  0.5231230000000  0.5421050000000 1.0
C      1  0.4858780000000  0.5254690000000  0.5348550000000 1.0
C      1  0.4715520000000  0.4977420000000  0.5389160000000 1.0
C      1  0.4989390000000  0.4796960000000  0.5301130000000 1.0
C      1  0.5268050000000  0.4958260000000  0.5339190000000 1.0
C      1  0.4095980000000  0.4782430000000  0.4816210000000 1.0
C      1  0.4939570000000  0.4084790000000  0.4834960000000 1.0
C      1  0.5841920000000  0.4544950000000  0.4743980000000 1.0
C      1  0.5616900000000  0.5780370000000  0.4806630000000 1.0
C      1  0.4575380000000  0.5856340000000  0.4745860000000 1.0
C      1  0.4739660000000  0.4300920000000  0.4997710000000 1.0
C      1  0.5686450000000  0.4433800000000  0.5018470000000 1.0
C      1  0.5612280000000  0.5502900000000  0.4984170000000 1.0
C      1  0.4759350000000  0.5806040000000  0.5007250000000 1.0
C      1  0.4221290000000  0.5052160000000  0.4964050000000 1.0
C      1  0.4497730000000  0.4684210000000  0.5861220000000 1.0
C      1  0.5083490000000  0.4449160000000  0.5823440000000 1.0
C      1  0.5542570000000  0.4902330000000  0.5877960000000 1.0
C      1  0.5268540000000  0.5504390000000  0.5920660000000 1.0
C      1  0.4600970000000  0.5393180000000  0.5857580000000 1.0
END
