TITL C-2782233-7966-300 -0.00127773886906715 125000 -862.846874404283 0 0 149 (C1) n - 1
REM
REM in /home/nfs/bkarasulu/CARBON/AIRSS/Generating-Clusters/REBO/Higher-Symm/SD-CG/HFTN-CG
REM
REM
REM
REM
REM
REM ./C.cell (12c818d87b63d06a65506943cc24bca4)
REM
REM compiler GCC version 9.2.1 20190827 (Red Hat 9.2.1-1)
REM options -cpp -mtune=generic -march=x86-64 -g -O0 -fpre-include=/usr/include/finclude/math-vector-fortran.h
REM seed 1754330236 -695035842 -1617234991 -437399313 755477053 1305957596 1453464365 -335543482 -1997718266 1334577720 37573673 -407317556 2035892732 -841052277 2018985162 396139909 292439006 757396094 954372041 -826754048 2899318 1653983797 1031740681 -1624997560 -1598185863 1927732046 67535642 -2135691947 -312380027 -12149129 -294597836 -894591266 2112158396
REM
CELL 1.54180   50.00000   50.00000   50.00000   90.00000   90.00000   90.00000
LATT -1
SFAC C  
C      1  0.5341120000000  0.4252070000000  0.5583290000000 1.0
C      1  0.4679680000000  0.5718560000000  0.5585450000000 1.0
C      1  0.5303970000000  0.4293100000000  0.4492810000000 1.0
C      1  0.4695430000000  0.5704420000000  0.4507200000000 1.0
C      1  0.4505480000000  0.4476020000000  0.5482750000000 1.0
C      1  0.5463490000000  0.5504770000000  0.5456810000000 1.0
C      1  0.4540520000000  0.4554430000000  0.4539340000000 1.0
C      1  0.5471500000000  0.5507920000000  0.4493180000000 1.0
C      1  0.4908650000000  0.5464820000000  0.5959570000000 1.0
C      1  0.5113610000000  0.4563010000000  0.5909650000000 1.0
C      1  0.4847690000000  0.5547170000000  0.4062490000000 1.0
C      1  0.5209820000000  0.4464450000000  0.4027410000000 1.0
C      1  0.4898870000000  0.4539100000000  0.5483530000000 1.0
C      1  0.5068090000000  0.5465370000000  0.5485110000000 1.0
C      1  0.4936410000000  0.4543870000000  0.4520080000000 1.0
C      1  0.5075630000000  0.5463770000000  0.4507030000000 1.0
C      1  0.5615880000000  0.4171100000000  0.5163400000000 1.0
C      1  0.4404280000000  0.5813000000000  0.5166330000000 1.0
C      1  0.5609540000000  0.4193800000000  0.4885480000000 1.0
C      1  0.4395690000000  0.5783250000000  0.4889110000000 1.0
C      1  0.5262550000000  0.5737980000000  0.4594890000000 1.0
C      1  0.4725810000000  0.4274190000000  0.4548490000000 1.0
C      1  0.5254290000000  0.5744730000000  0.5414100000000 1.0
C      1  0.4723290000000  0.4260340000000  0.5386350000000 1.0
C      1  0.5573280000000  0.5603720000000  0.4805190000000 1.0
C      1  0.4446070000000  0.4374330000000  0.4814600000000 1.0
C      1  0.5517650000000  0.5621640000000  0.5140320000000 1.0
C      1  0.4440730000000  0.4416360000000  0.5152470000000 1.0
C      1  0.4738900000000  0.4977180000000  0.4129620000000 1.0
C      1  0.5281940000000  0.5027850000000  0.4132000000000 1.0
C      1  0.4780950000000  0.4901790000000  0.5899310000000 1.0
C      1  0.5164720000000  0.5078470000000  0.5848480000000 1.0
C      1  0.5698570000000  0.5331080000000  0.5185210000000 1.0
C      1  0.4225510000000  0.4663040000000  0.5244450000000 1.0
C      1  0.5755310000000  0.5340810000000  0.4719280000000 1.0
C      1  0.4246530000000  0.4652100000000  0.4787810000000 1.0
C      1  0.4806960000000  0.5321640000000  0.4514890000000 1.0
C      1  0.5209550000000  0.4678580000000  0.4530820000000 1.0
C      1  0.4787310000000  0.5335540000000  0.5546360000000 1.0
C      1  0.5192090000000  0.4621810000000  0.5586490000000 1.0
C      1  0.4529360000000  0.4800090000000  0.5211790000000 1.0
C      1  0.5379770000000  0.5246530000000  0.5125680000000 1.0
C      1  0.4557980000000  0.4749060000000  0.4886550000000 1.0
C      1  0.5441530000000  0.5228830000000  0.4794810000000 1.0
C      1  0.5524150000000  0.4539750000000  0.5587980000000 1.0
C      1  0.4477350000000  0.5469850000000  0.5594350000000 1.0
C      1  0.5514480000000  0.4541340000000  0.4462410000000 1.0
C      1  0.4494060000000  0.5444210000000  0.4458290000000 1.0
C      1  0.5624620000000  0.4815020000000  0.4558100000000 1.0
C      1  0.4414960000000  0.5149550000000  0.4562760000000 1.0
C      1  0.5624520000000  0.4834110000000  0.5490250000000 1.0
C      1  0.4362680000000  0.5203400000000  0.5487730000000 1.0
C      1  0.4730970000000  0.4670520000000  0.4278560000000 1.0
C      1  0.5268610000000  0.5328540000000  0.4280400000000 1.0
C      1  0.4686590000000  0.4659680000000  0.5714540000000 1.0
C      1  0.5282290000000  0.5298850000000  0.5665890000000 1.0
C      1  0.4933230000000  0.5627960000000  0.4855800000000 1.0
C      1  0.5065110000000  0.4327220000000  0.4829740000000 1.0
C      1  0.4909200000000  0.5707900000000  0.5165790000000 1.0
C      1  0.5115420000000  0.4392610000000  0.5145840000000 1.0
C      1  0.4414410000000  0.4764230000000  0.4223670000000 1.0
C      1  0.5599520000000  0.5263700000000  0.4301210000000 1.0
C      1  0.4364510000000  0.4713530000000  0.5651710000000 1.0
C      1  0.5592040000000  0.5224710000000  0.5565490000000 1.0
C      1  0.5397880000000  0.5877020000000  0.4853000000000 1.0
C      1  0.4588230000000  0.4077320000000  0.4772020000000 1.0
C      1  0.5350950000000  0.5918640000000  0.5162530000000 1.0
C      1  0.4643890000000  0.4152180000000  0.5081280000000 1.0
C      1  0.4881500000000  0.5736500000000  0.4249260000000 1.0
C      1  0.5153560000000  0.4274500000000  0.4205620000000 1.0
C      1  0.4914910000000  0.5681060000000  0.5803610000000 1.0
C      1  0.5083920000000  0.4289690000000  0.5776680000000 1.0
C      1  0.4071630000000  0.4899580000000  0.4816310000000 1.0
C      1  0.5930270000000  0.5099640000000  0.4815840000000 1.0
C      1  0.4096330000000  0.4940590000000  0.5127690000000 1.0
C      1  0.5870190000000  0.5085530000000  0.5123310000000 1.0
C      1  0.5187240000000  0.5417420000000  0.4821280000000 1.0
C      1  0.4827790000000  0.4552420000000  0.4844520000000 1.0
C      1  0.5137960000000  0.5462710000000  0.5155780000000 1.0
C      1  0.4776930000000  0.4596430000000  0.5178440000000 1.0
C      1  0.4974410000000  0.5869870000000  0.5525260000000 1.0
C      1  0.5033050000000  0.4163550000000  0.5463240000000 1.0
C      1  0.4974710000000  0.5876790000000  0.4547210000000 1.0
C      1  0.5016420000000  0.4135040000000  0.4484050000000 1.0
C      1  0.3997780000000  0.5317720000000  0.4522820000000 1.0
C      1  0.6023570000000  0.4653400000000  0.4550010000000 1.0
C      1  0.3977660000000  0.5352000000000  0.5445080000000 1.0
C      1  0.6015580000000  0.4671270000000  0.5411990000000 1.0
C      1  0.4837020000000  0.5211480000000  0.6034940000000 1.0
C      1  0.5139210000000  0.4798560000000  0.6042350000000 1.0
C      1  0.4773170000000  0.5289880000000  0.3994940000000 1.0
C      1  0.5273660000000  0.4726440000000  0.3972460000000 1.0
C      1  0.4549430000000  0.5325030000000  0.4895020000000 1.0
C      1  0.5451910000000  0.4665360000000  0.4886100000000 1.0
C      1  0.4588890000000  0.5365650000000  0.5202660000000 1.0
C      1  0.5426650000000  0.4628710000000  0.5212080000000 1.0
C      1  0.4190060000000  0.5525040000000  0.4545640000000 1.0
C      1  0.5821000000000  0.4454770000000  0.4551730000000 1.0
C      1  0.4172330000000  0.5554770000000  0.5485710000000 1.0
C      1  0.5831410000000  0.4462850000000  0.5463920000000 1.0
C      1  0.4034090000000  0.5036370000000  0.4532090000000 1.0
C      1  0.6004310000000  0.4935650000000  0.4550210000000 1.0
C      1  0.3995720000000  0.5071790000000  0.5407590000000 1.0
C      1  0.5993090000000  0.4951590000000  0.5391700000000 1.0
C      1  0.5840180000000  0.5057340000000  0.5631970000000 1.0
C      1  0.4180970000000  0.4955200000000  0.5622430000000 1.0
C      1  0.5790650000000  0.5026180000000  0.4349500000000 1.0
C      1  0.4260000000000  0.4941610000000  0.4351220000000 1.0
C      1  0.5127640000000  0.4731350000000  0.5110080000000 1.0
C      1  0.4850960000000  0.5180100000000  0.5247150000000 1.0
C      1  0.5201460000000  0.4859480000000  0.4807840000000 1.0
C      1  0.4794790000000  0.5162600000000  0.4798180000000 1.0
C      1  0.5691530000000  0.4808850000000  0.5172090000000 1.0
C      1  0.4288860000000  0.5216450000000  0.5177190000000 1.0
C      1  0.5749090000000  0.4822500000000  0.4847870000000 1.0
C      1  0.4260460000000  0.5169760000000  0.4844770000000 1.0
C      1  0.4876480000000  0.5038240000000  0.3834970000000 1.0
C      1  0.5147680000000  0.4979670000000  0.3833320000000 1.0
C      1  0.4775620000000  0.4970780000000  0.6230400000000 1.0
C      1  0.5177430000000  0.5072890000000  0.6189120000000 1.0
C      1  0.5901340000000  0.5459830000000  0.4471640000000 1.0
C      1  0.4129440000000  0.4438510000000  0.4581780000000 1.0
C      1  0.5846330000000  0.5554230000000  0.5356810000000 1.0
C      1  0.4046580000000  0.4556520000000  0.5467150000000 1.0
C      1  0.4847580000000  0.5021340000000  0.4428420000000 1.0
C      1  0.5149900000000  0.4972350000000  0.4425620000000 1.0
C      1  0.4837060000000  0.5013480000000  0.5605470000000 1.0
C      1  0.5146050000000  0.4933880000000  0.5544600000000 1.0
C      1  0.5377730000000  0.5040230000000  0.5376570000000 1.0
C      1  0.4553610000000  0.4952740000000  0.5478920000000 1.0
C      1  0.5437670000000  0.5067600000000  0.4530260000000 1.0
C      1  0.4602670000000  0.4885920000000  0.4588070000000 1.0
C      1  0.4973850000000  0.4088280000000  0.5134110000000 1.0
C      1  0.5027850000000  0.6000830000000  0.5211980000000 1.0
C      1  0.4923840000000  0.4037000000000  0.4799130000000 1.0
C      1  0.5062220000000  0.5935850000000  0.4876010000000 1.0
C      1  0.5384030000000  0.4369110000000  0.4795950000000 1.0
C      1  0.4619660000000  0.5610800000000  0.4797080000000 1.0
C      1  0.5391580000000  0.4319880000000  0.5283800000000 1.0
C      1  0.4637130000000  0.5656550000000  0.5279930000000 1.0
C      1  0.3920140000000  0.5806800000000  0.4879400000000 1.0
C      1  0.6087740000000  0.4170070000000  0.4873450000000 1.0
C      1  0.3925000000000  0.5835500000000  0.5155620000000 1.0
C      1  0.6094660000000  0.4166710000000  0.5150950000000 1.0
C      1  0.4160500000000  0.5775710000000  0.5306700000000 1.0
C      1  0.5858630000000  0.4230580000000  0.5298460000000 1.0
C      1  0.4158150000000  0.5731600000000  0.4741220000000 1.0
C      1  0.5846930000000  0.4240580000000  0.4737430000000 1.0
C      1  0.4973920000000  0.5017280000000  0.5006490000000 1.0
END
