TITL C-2782228-2999-290 0.00170636660261499 125000 -1127.66586724662 0 0 193 (C1) n - 1
REM
REM in /home/nfs/bkarasulu/CARBON/AIRSS/Generating-Clusters/REBO/Higher-Symm/SD-CG/HFTN-CG
REM
REM
REM
REM
REM
REM ./C.cell (12c818d87b63d06a65506943cc24bca4)
REM
REM compiler GCC version 9.2.1 20190827 (Red Hat 9.2.1-1)
REM options -cpp -mtune=generic -march=x86-64 -g -O0 -fpre-include=/usr/include/finclude/math-vector-fortran.h
REM seed -343100710 2119298982 -296682669 -1265183121 -1456332455 460673454 -183373096 486547494 -1082807645 1973409752 -2042614611 -567914245 -1681344487 1159537444 -933890937 -1785015234 -1784626208 157385364 1488375021 2119709090 -1030908295 -1738087312 2052501486 -810796284 365981753 9827112 1947040102 -1319932373 -1265116719 558480179 814852718 -407979952 -1595078891
REM
CELL 1.54180   50.00000   50.00000   50.00000   90.00000   90.00000   90.00000
LATT -1
SFAC C  
C      1  0.4600980000000  0.5833050000000  0.5735130000000 1.0
C      1  0.5354750000000  0.5803730000000  0.4317140000000 1.0
C      1  0.4604280000000  0.4191930000000  0.5685820000000 1.0
C      1  0.5431220000000  0.4230560000000  0.4317280000000 1.0
C      1  0.4561970000000  0.5754950000000  0.4242020000000 1.0
C      1  0.5438820000000  0.5750490000000  0.5673750000000 1.0
C      1  0.4610050000000  0.4209300000000  0.4258890000000 1.0
C      1  0.5365600000000  0.4155770000000  0.5731550000000 1.0
C      1  0.6112110000000  0.4827600000000  0.4559310000000 1.0
C      1  0.3878790000000  0.4833250000000  0.5378190000000 1.0
C      1  0.6067190000000  0.5114500000000  0.4600660000000 1.0
C      1  0.3911290000000  0.5124830000000  0.5365010000000 1.0
C      1  0.6070190000000  0.4782810000000  0.5432470000000 1.0
C      1  0.3924850000000  0.4808820000000  0.4621060000000 1.0
C      1  0.6053610000000  0.5083510000000  0.5409630000000 1.0
C      1  0.3890000000000  0.5108910000000  0.4648890000000 1.0
C      1  0.5127180000000  0.5396790000000  0.5127970000000 1.0
C      1  0.4728290000000  0.5480570000000  0.4731550000000 1.0
C      1  0.5151790000000  0.4615040000000  0.5156660000000 1.0
C      1  0.4753050000000  0.4535210000000  0.4724270000000 1.0
C      1  0.5070600000000  0.5475490000000  0.4803040000000 1.0
C      1  0.4903630000000  0.5491200000000  0.5301920000000 1.0
C      1  0.5146670000000  0.4549410000000  0.4828500000000 1.0
C      1  0.4878730000000  0.4614390000000  0.5287170000000 1.0
C      1  0.4350220000000  0.4241580000000  0.5206210000000 1.0
C      1  0.5732980000000  0.4174800000000  0.4810830000000 1.0
C      1  0.4350120000000  0.5821760000000  0.5228960000000 1.0
C      1  0.5671500000000  0.5803650000000  0.4787090000000 1.0
C      1  0.4405350000000  0.4301420000000  0.4758730000000 1.0
C      1  0.5687260000000  0.4295840000000  0.5296960000000 1.0
C      1  0.4412210000000  0.5811600000000  0.4834210000000 1.0
C      1  0.5606720000000  0.5764110000000  0.5259020000000 1.0
C      1  0.5592250000000  0.5602120000000  0.4312440000000 1.0
C      1  0.4360070000000  0.5625760000000  0.5710800000000 1.0
C      1  0.5659870000000  0.4389700000000  0.4224970000000 1.0
C      1  0.4354350000000  0.4369540000000  0.5676510000000 1.0
C      1  0.5657990000000  0.5580850000000  0.5737500000000 1.0
C      1  0.4316640000000  0.5565430000000  0.4249700000000 1.0
C      1  0.5578350000000  0.4355320000000  0.5787400000000 1.0
C      1  0.4368300000000  0.4392160000000  0.4226290000000 1.0
C      1  0.5227830000000  0.3973080000000  0.4800940000000 1.0
C      1  0.4835120000000  0.3969280000000  0.5273580000000 1.0
C      1  0.5220880000000  0.6075560000000  0.4767970000000 1.0
C      1  0.4854390000000  0.6080600000000  0.5288650000000 1.0
C      1  0.5169440000000  0.3913980000000  0.5313290000000 1.0
C      1  0.4901630000000  0.3993350000000  0.4759670000000 1.0
C      1  0.5188950000000  0.6127590000000  0.5311010000000 1.0
C      1  0.4894550000000  0.6082760000000  0.4757970000000 1.0
C      1  0.4864300000000  0.5827710000000  0.4142440000000 1.0
C      1  0.5207640000000  0.5880170000000  0.5810190000000 1.0
C      1  0.4931080000000  0.4143230000000  0.4168370000000 1.0
C      1  0.5135270000000  0.4017150000000  0.5819700000000 1.0
C      1  0.4925290000000  0.5838670000000  0.5826230000000 1.0
C      1  0.5129900000000  0.5926020000000  0.4188420000000 1.0
C      1  0.4872770000000  0.4123690000000  0.5831620000000 1.0
C      1  0.5213420000000  0.4077350000000  0.4191820000000 1.0
C      1  0.5859810000000  0.4856340000000  0.4147200000000 1.0
C      1  0.4208690000000  0.4834950000000  0.5733240000000 1.0
C      1  0.5793790000000  0.5166390000000  0.4191040000000 1.0
C      1  0.4282490000000  0.5125200000000  0.5703890000000 1.0
C      1  0.5758700000000  0.4820460000000  0.5799280000000 1.0
C      1  0.4119170000000  0.4788410000000  0.4185880000000 1.0
C      1  0.5826350000000  0.5125340000000  0.5832230000000 1.0
C      1  0.4145550000000  0.5089870000000  0.4226490000000 1.0
C      1  0.5843170000000  0.5492170000000  0.5531560000000 1.0
C      1  0.4135030000000  0.5508110000000  0.4472490000000 1.0
C      1  0.5769090000000  0.4395720000000  0.5577700000000 1.0
C      1  0.4209020000000  0.4410910000000  0.4503210000000 1.0
C      1  0.5787320000000  0.5515010000000  0.4516400000000 1.0
C      1  0.4168290000000  0.5544380000000  0.5487760000000 1.0
C      1  0.5880960000000  0.4454640000000  0.4405860000000 1.0
C      1  0.4147350000000  0.4445920000000  0.5477850000000 1.0
C      1  0.5139090000000  0.4710000000000  0.4009480000000 1.0
C      1  0.4846080000000  0.4666560000000  0.6040120000000 1.0
C      1  0.5130500000000  0.5285360000000  0.3977790000000 1.0
C      1  0.4809530000000  0.5270470000000  0.6022090000000 1.0
C      1  0.5139900000000  0.4678480000000  0.6003540000000 1.0
C      1  0.4834550000000  0.4686970000000  0.3984800000000 1.0
C      1  0.5108570000000  0.5299010000000  0.5991280000000 1.0
C      1  0.4831230000000  0.5255210000000  0.3958680000000 1.0
C      1  0.4688030000000  0.4497930000000  0.4437360000000 1.0
C      1  0.5331500000000  0.4366130000000  0.5463800000000 1.0
C      1  0.4663610000000  0.5520560000000  0.4439260000000 1.0
C      1  0.5277950000000  0.5615840000000  0.5426230000000 1.0
C      1  0.4709340000000  0.4477380000000  0.5530590000000 1.0
C      1  0.5305970000000  0.4389590000000  0.4576960000000 1.0
C      1  0.4712230000000  0.5593820000000  0.5527910000000 1.0
C      1  0.5267660000000  0.5578460000000  0.4543920000000 1.0
C      1  0.4584290000000  0.5085370000000  0.6045150000000 1.0
C      1  0.5372630000000  0.5135090000000  0.3917290000000 1.0
C      1  0.4604430000000  0.4802830000000  0.6041100000000 1.0
C      1  0.5372790000000  0.4848400000000  0.3930750000000 1.0
C      1  0.4592380000000  0.5113490000000  0.3945330000000 1.0
C      1  0.5341310000000  0.5166720000000  0.6075200000000 1.0
C      1  0.4581620000000  0.4816940000000  0.3970390000000 1.0
C      1  0.5345150000000  0.4882460000000  0.6080250000000 1.0
C      1  0.5169920000000  0.5454430000000  0.4271450000000 1.0
C      1  0.4822940000000  0.5515640000000  0.5820920000000 1.0
C      1  0.5189610000000  0.4544600000000  0.4312330000000 1.0
C      1  0.4887990000000  0.4445260000000  0.5800660000000 1.0
C      1  0.5137060000000  0.5498410000000  0.5714690000000 1.0
C      1  0.4861220000000  0.5500870000000  0.4176850000000 1.0
C      1  0.5192110000000  0.4513720000000  0.5722260000000 1.0
C      1  0.4909060000000  0.4457350000000  0.4208940000000 1.0
C      1  0.4841400000000  0.4297810000000  0.4873010000000 1.0
C      1  0.5132960000000  0.4228630000000  0.5278190000000 1.0
C      1  0.4811010000000  0.5774990000000  0.4848750000000 1.0
C      1  0.5148410000000  0.5816950000000  0.5232180000000 1.0
C      1  0.4823960000000  0.4301110000000  0.5191140000000 1.0
C      1  0.5142970000000  0.4241700000000  0.4959730000000 1.0
C      1  0.4827630000000  0.5772520000000  0.5165950000000 1.0
C      1  0.5131300000000  0.5799010000000  0.4910670000000 1.0
C      1  0.5603680000000  0.5331820000000  0.5960520000000 1.0
C      1  0.4358150000000  0.5291980000000  0.4084330000000 1.0
C      1  0.5530690000000  0.4627360000000  0.5945990000000 1.0
C      1  0.4354440000000  0.4653740000000  0.4082670000000 1.0
C      1  0.5571530000000  0.5374070000000  0.4059570000000 1.0
C      1  0.4447340000000  0.5354300000000  0.5875950000000 1.0
C      1  0.5619540000000  0.4658750000000  0.4036040000000 1.0
C      1  0.4412120000000  0.4627870000000  0.5853240000000 1.0
C      1  0.5498290000000  0.4376790000000  0.4843630000000 1.0
C      1  0.4498270000000  0.4505070000000  0.5295670000000 1.0
C      1  0.5451820000000  0.5586900000000  0.4803150000000 1.0
C      1  0.4513660000000  0.5566360000000  0.5295500000000 1.0
C      1  0.5434910000000  0.4445930000000  0.5141460000000 1.0
C      1  0.4533050000000  0.4520010000000  0.4987240000000 1.0
C      1  0.5412450000000  0.5542000000000  0.5113900000000 1.0
C      1  0.4519160000000  0.5546430000000  0.4994450000000 1.0
C      1  0.4111630000000  0.4853930000000  0.5151850000000 1.0
C      1  0.5845010000000  0.4825020000000  0.4762210000000 1.0
C      1  0.4157240000000  0.5206970000000  0.5168050000000 1.0
C      1  0.5795310000000  0.5172150000000  0.4771770000000 1.0
C      1  0.4203010000000  0.4899050000000  0.4773460000000 1.0
C      1  0.5928090000000  0.4807990000000  0.5151940000000 1.0
C      1  0.4177990000000  0.5242650000000  0.4772140000000 1.0
C      1  0.5867660000000  0.5153320000000  0.5160560000000 1.0
C      1  0.5485410000000  0.6027040000000  0.5188850000000 1.0
C      1  0.4568070000000  0.6084870000000  0.4854540000000 1.0
C      1  0.5476480000000  0.4034810000000  0.5223980000000 1.0
C      1  0.4568590000000  0.4017700000000  0.4825270000000 1.0
C      1  0.5503660000000  0.6041340000000  0.4889030000000 1.0
C      1  0.4539700000000  0.6047480000000  0.5163210000000 1.0
C      1  0.5506140000000  0.3987840000000  0.4931600000000 1.0
C      1  0.4539390000000  0.4028520000000  0.5126580000000 1.0
C      1  0.5815280000000  0.4504010000000  0.5058430000000 1.0
C      1  0.4181920000000  0.4561030000000  0.4810710000000 1.0
C      1  0.5800840000000  0.5489900000000  0.5193910000000 1.0
C      1  0.4170490000000  0.5574260000000  0.4804000000000 1.0
C      1  0.5855540000000  0.4481950000000  0.4721720000000 1.0
C      1  0.4137980000000  0.4507480000000  0.5141150000000 1.0
C      1  0.5829560000000  0.5503810000000  0.4855280000000 1.0
C      1  0.4149430000000  0.5551360000000  0.5144470000000 1.0
C      1  0.4468600000000  0.5082140000000  0.4322910000000 1.0
C      1  0.5497990000000  0.5125820000000  0.5711510000000 1.0
C      1  0.4595400000000  0.4794460000000  0.4369010000000 1.0
C      1  0.5434140000000  0.4827800000000  0.5695010000000 1.0
C      1  0.4623090000000  0.5169780000000  0.5657400000000 1.0
C      1  0.5457450000000  0.5179280000000  0.4304530000000 1.0
C      1  0.4560620000000  0.4843970000000  0.5646240000000 1.0
C      1  0.5547790000000  0.4870030000000  0.4288930000000 1.0
C      1  0.5120030000000  0.5149080000000  0.4748730000000 1.0
C      1  0.4795430000000  0.5211840000000  0.5253000000000 1.0
C      1  0.5213970000000  0.4845850000000  0.4763980000000 1.0
C      1  0.4735300000000  0.4873690000000  0.5213770000000 1.0
C      1  0.5303290000000  0.5191990000000  0.5272510000000 1.0
C      1  0.4786640000000  0.5157260000000  0.4748170000000 1.0
C      1  0.5328720000000  0.4865800000000  0.5254480000000 1.0
C      1  0.4873280000000  0.4832130000000  0.4762870000000 1.0
C      1  0.5263540000000  0.5240920000000  0.5564260000000 1.0
C      1  0.4788780000000  0.5121070000000  0.4367760000000 1.0
C      1  0.5170720000000  0.4763950000000  0.5526130000000 1.0
C      1  0.4912380000000  0.4821400000000  0.4367390000000 1.0
C      1  0.5121620000000  0.5153370000000  0.4353480000000 1.0
C      1  0.4942740000000  0.5169280000000  0.5621750000000 1.0
C      1  0.5246290000000  0.4849330000000  0.4367070000000 1.0
C      1  0.4891710000000  0.4886060000000  0.5581390000000 1.0
C      1  0.5525230000000  0.4879190000000  0.4794160000000 1.0
C      1  0.4420110000000  0.4879480000000  0.5116910000000 1.0
C      1  0.5454700000000  0.5206450000000  0.4772290000000 1.0
C      1  0.4496840000000  0.5192250000000  0.5179150000000 1.0
C      1  0.5614770000000  0.4826170000000  0.5104610000000 1.0
C      1  0.4534780000000  0.4855300000000  0.4801720000000 1.0
C      1  0.5547350000000  0.5152630000000  0.5084150000000 1.0
C      1  0.4474130000000  0.5177540000000  0.4857010000000 1.0
C      1  0.3991020000000  0.5265340000000  0.4420100000000 1.0
C      1  0.5986230000000  0.5257560000000  0.5617100000000 1.0
C      1  0.4006420000000  0.4644960000000  0.4406980000000 1.0
C      1  0.5919650000000  0.4637790000000  0.5617160000000 1.0
C      1  0.4075140000000  0.5280940000000  0.5552140000000 1.0
C      1  0.5944760000000  0.5300030000000  0.4410410000000 1.0
C      1  0.4006980000000  0.4682120000000  0.5579490000000 1.0
C      1  0.6035720000000  0.4686730000000  0.4326160000000 1.0
C      1  0.4993220000000  0.5023610000000  0.5087470000000 1.0
END
