TITL C-2782232-2968-1483 -0.000248878165025166 125000 -170.396432818842 0 0 30 (C2v) n - 1
REM
REM in /home/nfs/bkarasulu/CARBON/AIRSS/Generating-Clusters/REBO/Higher-Symm/SD-CG/HFTN-CG
REM
REM
REM
REM
REM
REM ./C.cell (12c818d87b63d06a65506943cc24bca4)
REM
REM compiler GCC version 9.2.1 20190827 (Red Hat 9.2.1-1)
REM options -cpp -mtune=generic -march=x86-64 -g -O0 -fpre-include=/usr/include/finclude/math-vector-fortran.h
REM seed 1623674354 -1471454857 37436870 1190522127 1562912299 -1151684576 1630890805 514549272 -1346451266 -286742935 954546199 -393348012 27296322 1398451182 -1784470159 -24808599 -2086948608 80520140 1272762777 -631449282 1378629933 1700965773 461225686 453125877 1427129230 -1443512256 -37191316 1646789679 706306684 -1365325290 -844916305 1924431757 1595353541
REM
CELL 1.54180   50.00000   50.00000   50.00000   90.00000   90.00000   90.00000
LATT -1
SFAC C  
C      1  0.5214730000000  0.4505770000000  0.5141300000000 1.0
C      1  0.4821150000000  0.4513170000000  0.5205810000000 1.0
C      1  0.4764840000000  0.4507090000000  0.4862940000000 1.0
C      1  0.5158420000000  0.4499690000000  0.4798430000000 1.0
C      1  0.5208240000000  0.5452410000000  0.5151590000000 1.0
C      1  0.4865230000000  0.5458860000000  0.5207810000000 1.0
C      1  0.4800600000000  0.5451880000000  0.4814250000000 1.0
C      1  0.5143600000000  0.5445430000000  0.4758040000000 1.0
C      1  0.5051740000000  0.4676450000000  0.5360620000000 1.0
C      1  0.4615020000000  0.4732980000000  0.5059650000000 1.0
C      1  0.4932890000000  0.4663600000000  0.4636980000000 1.0
C      1  0.5371340000000  0.4718760000000  0.4935680000000 1.0
C      1  0.5067040000000  0.5261910000000  0.5386830000000 1.0
C      1  0.4658410000000  0.5274190000000  0.5042910000000 1.0
C      1  0.4935690000000  0.5247710000000  0.4587020000000 1.0
C      1  0.5344720000000  0.5261290000000  0.4930420000000 1.0
C      1  0.5624970000000  0.5128970000000  0.4886750000000 1.0
C      1  0.5105520000000  0.5083320000000  0.5642100000000 1.0
C      1  0.4374230000000  0.5152490000000  0.5091740000000 1.0
C      1  0.4891540000000  0.5060180000000  0.4339190000000 1.0
C      1  0.5636960000000  0.4874420000000  0.4889300000000 1.0
C      1  0.5098920000000  0.4831810000000  0.5630690000000 1.0
C      1  0.4354370000000  0.4898540000000  0.5099510000000 1.0
C      1  0.4890360000000  0.4809260000000  0.4360800000000 1.0
C      1  0.5038140000000  0.4975460000000  0.5243340000000 1.0
C      1  0.5193950000000  0.4982680000000  0.4960130000000 1.0
C      1  0.4800480000000  0.4990070000000  0.5024620000000 1.0
C      1  0.4955810000000  0.4966560000000  0.4742040000000 1.0
C      1  0.4986450000000  0.4291210000000  0.5006490000000 1.0
C      1  0.5007750000000  0.5667400000000  0.4978550000000 1.0
END
