TITL C-2782239-8622-381 -8.56496954002231e-08 125000 -73.8518409090007 0 0 14 (Cs) n - 1
REM
REM in /home/nfs/bkarasulu/CARBON/AIRSS/Generating-Clusters/REBO/Higher-Symm/SD-CG/HFTN-CG
REM
REM
REM
REM
REM
REM ./C.cell (12c818d87b63d06a65506943cc24bca4)
REM
REM compiler GCC version 9.2.1 20190827 (Red Hat 9.2.1-1)
REM options -cpp -mtune=generic -march=x86-64 -g -O0 -fpre-include=/usr/include/finclude/math-vector-fortran.h
REM seed 764046040 -340417598 -119209007 -616720053 -1370210368 -719989702 1057632073 -1997987748 -1159725270 -1053086973 -1552087599 220147171 -1231106297 657690610 -1981463291 1462711111 1758361817 1736176122 1529258173 1653931525 188229702 -1618789805 -1215565868 -1555856601 857705798 -663569770 752668548 -512743755 -936167930 -557030644 -369223265 -549498225 512765507
REM
CELL 1.54180   50.00000   50.00000   50.00000   90.00000   90.00000   90.00000
LATT -1
SFAC C  
C      1  0.4609190000000  0.5125320000000  0.4780640000000 1.0
C      1  0.4666540000000  0.5138130000000  0.5252030000000 1.0
C      1  0.4666850000000  0.4725330000000  0.5030330000000 1.0
C      1  0.5327400000000  0.4879720000000  0.4738140000000 1.0
C      1  0.5219720000000  0.4772920000000  0.5437640000000 1.0
C      1  0.5327090000000  0.5297210000000  0.4962370000000 1.0
C      1  0.5144320000000  0.4899360000000  0.5202110000000 1.0
C      1  0.5033960000000  0.4873640000000  0.4727000000000 1.0
C      1  0.5033630000000  0.5309520000000  0.4961100000000 1.0
C      1  0.4949090000000  0.5172700000000  0.5217860000000 1.0
C      1  0.4898130000000  0.5148250000000  0.4738350000000 1.0
C      1  0.4949420000000  0.4735050000000  0.4982810000000 1.0
C      1  0.4546840000000  0.4989950000000  0.5032600000000 1.0
C      1  0.5386820000000  0.5010960000000  0.4994650000000 1.0
END
