TITL C-2782238-9940-1495 0.000760758856161931 125000 -174.63916839692 0 0 32 (Ci) n - 1
REM
REM in /home/nfs/bkarasulu/CARBON/AIRSS/Generating-Clusters/REBO/Higher-Symm/SD-CG/HFTN-CG
REM
REM
REM
REM
REM
REM ./C.cell (12c818d87b63d06a65506943cc24bca4)
REM
REM compiler GCC version 9.2.1 20190827 (Red Hat 9.2.1-1)
REM options -cpp -mtune=generic -march=x86-64 -g -O0 -fpre-include=/usr/include/finclude/math-vector-fortran.h
REM seed 638644535 -2107238681 2079107377 -60017788 687134209 3260072 491856690 -1654234844 1655377194 -1984347860 81975239 -739709310 -1711906480 745270101 -1965882297 1342663791 -1181492456 -399424389 1652810156 -1387545518 2017092450 -1584678397 -2052159574 -262418697 -1942614459 2091948731 1345608475 254309621 -299783895 722259479 754305825 731876105 1026945431
REM
CELL 1.54180   50.00000   50.00000   50.00000   90.00000   90.00000   90.00000
LATT -1
SFAC C  
C      1  0.5580290000000  0.5013480000000  0.4636110000000 1.0
C      1  0.4419710000000  0.4986520000000  0.5363890000000 1.0
C      1  0.5594580000000  0.4747850000000  0.4712230000000 1.0
C      1  0.4405420000000  0.5252150000000  0.5287770000000 1.0
C      1  0.5264240000000  0.4547160000000  0.5198030000000 1.0
C      1  0.4735760000000  0.5452840000000  0.4801970000000 1.0
C      1  0.4603640000000  0.5079260000000  0.4855880000000 1.0
C      1  0.5396360000000  0.4920740000000  0.5144120000000 1.0
C      1  0.4594250000000  0.5140310000000  0.4585980000000 1.0
C      1  0.5405750000000  0.4859690000000  0.5414020000000 1.0
C      1  0.5414630000000  0.4801900000000  0.5669480000000 1.0
C      1  0.4585370000000  0.5198100000000  0.4330520000000 1.0
C      1  0.5232300000000  0.5443890000000  0.4619370000000 1.0
C      1  0.4767700000000  0.4556110000000  0.5380630000000 1.0
C      1  0.4593260000000  0.5315870000000  0.5067570000000 1.0
C      1  0.5406740000000  0.4684130000000  0.4932430000000 1.0
C      1  0.4485620000000  0.4447980000000  0.5413020000000 1.0
C      1  0.5514380000000  0.5552020000000  0.4586980000000 1.0
C      1  0.5427230000000  0.5232100000000  0.4760360000000 1.0
C      1  0.4572770000000  0.4767900000000  0.5239640000000 1.0
C      1  0.4964180000000  0.5477330000000  0.4665420000000 1.0
C      1  0.5035820000000  0.4522670000000  0.5334580000000 1.0
C      1  0.4887070000000  0.5401600000000  0.5168150000000 1.0
C      1  0.5112930000000  0.4598400000000  0.4831850000000 1.0
C      1  0.5760330000000  0.4555770000000  0.4603190000000 1.0
C      1  0.4239670000000  0.5444230000000  0.5396810000000 1.0
C      1  0.5146180000000  0.5338360000000  0.5149750000000 1.0
C      1  0.4853820000000  0.4661640000000  0.4850250000000 1.0
C      1  0.4655810000000  0.4823840000000  0.4963620000000 1.0
C      1  0.5344190000000  0.5176160000000  0.5036380000000 1.0
C      1  0.4082370000000  0.5626530000000  0.5500290000000 1.0
C      1  0.5917630000000  0.4373470000000  0.4499710000000 1.0
END
