TITL C-2782228-2999-1100 -0.00282934777365912 125000 -987.171802311091 0 0 168 (C1) n - 1
REM
REM in /home/nfs/bkarasulu/CARBON/AIRSS/Generating-Clusters/REBO/Higher-Symm/SD-CG/HFTN-CG
REM
REM
REM
REM
REM
REM ./C.cell (12c818d87b63d06a65506943cc24bca4)
REM
REM compiler GCC version 9.2.1 20190827 (Red Hat 9.2.1-1)
REM options -cpp -mtune=generic -march=x86-64 -g -O0 -fpre-include=/usr/include/finclude/math-vector-fortran.h
REM seed 183442611 1816679810 270263355 -1083030151 467777814 2012051533 -974830262 1646156504 -1807696959 935187105 -1667051230 756295973 -324476808 -1680617928 252830935 154869331 824553098 1774622951 1086298182 1397013148 -1289238841 1408420723 1328399679 180967397 -395649431 -1579587731 -1152679340 -659441679 1353466462 -1486557867 -1733498157 -215831179 1768036562
REM
CELL 1.54180   50.00000   50.00000   50.00000   90.00000   90.00000   90.00000
LATT -1
SFAC C  
C      1  0.4189960000000  0.4367060000000  0.4670490000000 1.0
C      1  0.4095510000000  0.5112510000000  0.4402790000000 1.0
C      1  0.4101310000000  0.5669020000000  0.4870680000000 1.0
C      1  0.4132640000000  0.5211160000000  0.5780680000000 1.0
C      1  0.4041690000000  0.4495230000000  0.5363670000000 1.0
C      1  0.5753400000000  0.5662740000000  0.4753240000000 1.0
C      1  0.5856420000000  0.4858330000000  0.4469000000000 1.0
C      1  0.5857430000000  0.4298090000000  0.4910260000000 1.0
C      1  0.5913540000000  0.4606790000000  0.5653630000000 1.0
C      1  0.5888140000000  0.5397910000000  0.5449260000000 1.0
C      1  0.4703820000000  0.5661510000000  0.5690310000000 1.0
C      1  0.4727590000000  0.4552210000000  0.5815820000000 1.0
C      1  0.4687510000000  0.4064940000000  0.4846900000000 1.0
C      1  0.4754750000000  0.4834100000000  0.3988550000000 1.0
C      1  0.4623200000000  0.5811550000000  0.4519020000000 1.0
C      1  0.5318040000000  0.4316420000000  0.5692710000000 1.0
C      1  0.5334580000000  0.5454650000000  0.5821720000000 1.0
C      1  0.5183660000000  0.5907370000000  0.4812330000000 1.0
C      1  0.5317220000000  0.5192280000000  0.3990230000000 1.0
C      1  0.5312940000000  0.4162220000000  0.4607190000000 1.0
C      1  0.4737140000000  0.4554660000000  0.4040230000000 1.0
C      1  0.4646550000000  0.5709350000000  0.4226490000000 1.0
C      1  0.4690450000000  0.5905140000000  0.5453170000000 1.0
C      1  0.4725780000000  0.4837100000000  0.5986200000000 1.0
C      1  0.4685220000000  0.3975740000000  0.5158690000000 1.0
C      1  0.5277980000000  0.5476850000000  0.4020300000000 1.0
C      1  0.5305580000000  0.4265670000000  0.4300890000000 1.0
C      1  0.5292890000000  0.4083230000000  0.5481190000000 1.0
C      1  0.5336390000000  0.5167900000000  0.5996790000000 1.0
C      1  0.5325820000000  0.5947010000000  0.5123460000000 1.0
C      1  0.4837330000000  0.4205740000000  0.4445060000000 1.0
C      1  0.4846950000000  0.5251230000000  0.4021540000000 1.0
C      1  0.4832070000000  0.6019910000000  0.4954810000000 1.0
C      1  0.4877230000000  0.5327120000000  0.5974200000000 1.0
C      1  0.4829690000000  0.4213130000000  0.5622450000000 1.0
C      1  0.5078240000000  0.5859620000000  0.4347180000000 1.0
C      1  0.5200230000000  0.4682280000000  0.3991120000000 1.0
C      1  0.5138100000000  0.3970270000000  0.5008430000000 1.0
C      1  0.5170590000000  0.4672100000000  0.5982450000000 1.0
C      1  0.5151570000000  0.5815210000000  0.5587180000000 1.0
C      1  0.4983600000000  0.4864690000000  0.6095730000000 1.0
C      1  0.4948240000000  0.3900470000000  0.5220310000000 1.0
C      1  0.4989400000000  0.4436880000000  0.4000500000000 1.0
C      1  0.4904270000000  0.5760080000000  0.4127890000000 1.0
C      1  0.4965840000000  0.5981580000000  0.5436220000000 1.0
C      1  0.5069410000000  0.5141600000000  0.6095490000000 1.0
C      1  0.5045610000000  0.6043840000000  0.5161740000000 1.0
C      1  0.5002600000000  0.5536590000000  0.3974290000000 1.0
C      1  0.5045920000000  0.4236210000000  0.4192050000000 1.0
C      1  0.5025530000000  0.3987900000000  0.5480180000000 1.0
C      1  0.4489010000000  0.4577710000000  0.5216510000000 1.0
C      1  0.4554000000000  0.4747460000000  0.4724860000000 1.0
C      1  0.4467850000000  0.5224860000000  0.4629990000000 1.0
C      1  0.4456380000000  0.5528710000000  0.5124050000000 1.0
C      1  0.4598740000000  0.5035620000000  0.5394480000000 1.0
C      1  0.5390950000000  0.5294500000000  0.5213920000000 1.0
C      1  0.5390060000000  0.5327340000000  0.4669580000000 1.0
C      1  0.5497710000000  0.4798670000000  0.4634890000000 1.0
C      1  0.5510780000000  0.4483760000000  0.5168620000000 1.0
C      1  0.5507760000000  0.4939080000000  0.5516670000000 1.0
C      1  0.4124640000000  0.5454120000000  0.4607000000000 1.0
C      1  0.4167070000000  0.5682140000000  0.5397320000000 1.0
C      1  0.4257250000000  0.4812960000000  0.6010510000000 1.0
C      1  0.4182360000000  0.4386270000000  0.5011540000000 1.0
C      1  0.4170360000000  0.4780910000000  0.4393650000000 1.0
C      1  0.5872270000000  0.4509310000000  0.4652000000000 1.0
C      1  0.5852400000000  0.4375930000000  0.5425060000000 1.0
C      1  0.5843980000000  0.5122650000000  0.5630250000000 1.0
C      1  0.5701790000000  0.5720340000000  0.5075960000000 1.0
C      1  0.5811560000000  0.5338730000000  0.4404500000000 1.0
C      1  0.4059960000000  0.5504600000000  0.5157940000000 1.0
C      1  0.4118830000000  0.5131300000000  0.5522700000000 1.0
C      1  0.3990060000000  0.4663410000000  0.5070970000000 1.0
C      1  0.4060250000000  0.4664080000000  0.4677740000000 1.0
C      1  0.3951880000000  0.5172170000000  0.4688620000000 1.0
C      1  0.5918710000000  0.4538090000000  0.5139270000000 1.0
C      1  0.5967330000000  0.4857100000000  0.5453930000000 1.0
C      1  0.6056260000000  0.5175760000000  0.5248800000000 1.0
C      1  0.5849300000000  0.5374030000000  0.4694850000000 1.0
C      1  0.6001240000000  0.4799250000000  0.4776250000000 1.0
C      1  0.4284460000000  0.5825010000000  0.5111490000000 1.0
C      1  0.4304870000000  0.5092070000000  0.5968090000000 1.0
C      1  0.4309460000000  0.4322590000000  0.5324590000000 1.0
C      1  0.4399400000000  0.4556180000000  0.4500300000000 1.0
C      1  0.4336100000000  0.5349380000000  0.4357630000000 1.0
C      1  0.5704940000000  0.4205290000000  0.5181070000000 1.0
C      1  0.5713270000000  0.4842480000000  0.5761900000000 1.0
C      1  0.5619620000000  0.5528170000000  0.5308640000000 1.0
C      1  0.5563760000000  0.5558050000000  0.4489290000000 1.0
C      1  0.5653630000000  0.4602190000000  0.4406290000000 1.0
C      1  0.4382970000000  0.5627100000000  0.5575690000000 1.0
C      1  0.4401750000000  0.4641280000000  0.5858960000000 1.0
C      1  0.4369710000000  0.4161760000000  0.4834150000000 1.0
C      1  0.4328510000000  0.4985300000000  0.4196710000000 1.0
C      1  0.4331640000000  0.5724190000000  0.4645600000000 1.0
C      1  0.5623140000000  0.4443370000000  0.5667530000000 1.0
C      1  0.5641920000000  0.5394200000000  0.5684420000000 1.0
C      1  0.5678590000000  0.5960690000000  0.4859960000000 1.0
C      1  0.5737100000000  0.5080670000000  0.4326410000000 1.0
C      1  0.5629450000000  0.4268450000000  0.4676390000000 1.0
C      1  0.5451230000000  0.6074670000000  0.4767250000000 1.0
C      1  0.5382490000000  0.5208150000000  0.5603010000000 1.0
C      1  0.5380760000000  0.4532340000000  0.5457890000000 1.0
C      1  0.5380250000000  0.4481470000000  0.4671380000000 1.0
C      1  0.5472550000000  0.5071530000000  0.4219590000000 1.0
C      1  0.4578340000000  0.4336320000000  0.5029470000000 1.0
C      1  0.4568730000000  0.4760860000000  0.5594930000000 1.0
C      1  0.4640120000000  0.5513720000000  0.5397940000000 1.0
C      1  0.4584770000000  0.5513240000000  0.4662310000000 1.0
C      1  0.4601220000000  0.4985040000000  0.4187970000000 1.0
C      1  0.5206440000000  0.4850900000000  0.5627140000000 1.0
C      1  0.5241780000000  0.4353960000000  0.5004060000000 1.0
C      1  0.5178530000000  0.4791800000000  0.4297790000000 1.0
C      1  0.5170290000000  0.5494630000000  0.4480550000000 1.0
C      1  0.5219790000000  0.5565120000000  0.5283490000000 1.0
C      1  0.4764750000000  0.5101200000000  0.5664170000000 1.0
C      1  0.4769480000000  0.5635290000000  0.5040480000000 1.0
C      1  0.4864670000000  0.5272130000000  0.4358040000000 1.0
C      1  0.4893620000000  0.4537830000000  0.4408250000000 1.0
C      1  0.4870760000000  0.4323730000000  0.5310580000000 1.0
C      1  0.5266300000000  0.5379270000000  0.4936140000000 1.0
C      1  0.5176110000000  0.5074790000000  0.5289100000000 1.0
C      1  0.5066540000000  0.4816600000000  0.5143950000000 1.0
C      1  0.5042530000000  0.4796540000000  0.4825790000000 1.0
C      1  0.5299820000000  0.5010570000000  0.4608270000000 1.0
C      1  0.4775450000000  0.4662700000000  0.4917990000000 1.0
C      1  0.4769760000000  0.4705520000000  0.5255390000000 1.0
C      1  0.4850300000000  0.5147650000000  0.5215550000000 1.0
C      1  0.4959710000000  0.5284460000000  0.4923720000000 1.0
C      1  0.4674230000000  0.5007420000000  0.4593120000000 1.0
C      1  0.5749800000000  0.5174800000000  0.4855380000000 1.0
C      1  0.5766090000000  0.5205120000000  0.5128500000000 1.0
C      1  0.5695810000000  0.4950430000000  0.5293180000000 1.0
C      1  0.5662140000000  0.4736340000000  0.5088580000000 1.0
C      1  0.5690910000000  0.4877470000000  0.4830230000000 1.0
C      1  0.4279950000000  0.4835520000000  0.4851050000000 1.0
C      1  0.4283670000000  0.4786850000000  0.5157290000000 1.0
C      1  0.4311940000000  0.5061460000000  0.5293380000000 1.0
C      1  0.4275720000000  0.5272290000000  0.5084390000000 1.0
C      1  0.4251940000000  0.5139860000000  0.4818560000000 1.0
C      1  0.5134220000000  0.4641130000000  0.4593800000000 1.0
C      1  0.5181110000000  0.5181860000000  0.4363330000000 1.0
C      1  0.5089690000000  0.5658290000000  0.4980990000000 1.0
C      1  0.5059640000000  0.5160940000000  0.5597750000000 1.0
C      1  0.5129780000000  0.4536040000000  0.5269770000000 1.0
C      1  0.4885220000000  0.5448510000000  0.4648100000000 1.0
C      1  0.4867020000000  0.4872580000000  0.4369160000000 1.0
C      1  0.4913540000000  0.4363630000000  0.4983700000000 1.0
C      1  0.4898370000000  0.4802860000000  0.5543640000000 1.0
C      1  0.4922650000000  0.5458340000000  0.5281130000000 1.0
C      1  0.4588410000000  0.5903400000000  0.5145630000000 1.0
C      1  0.4601760000000  0.5136390000000  0.5934710000000 1.0
C      1  0.4574900000000  0.4175820000000  0.5394880000000 1.0
C      1  0.4599830000000  0.4421940000000  0.4321660000000 1.0
C      1  0.4592190000000  0.5401500000000  0.4199960000000 1.0
C      1  0.5397920000000  0.4102350000000  0.5175880000000 1.0
C      1  0.5418780000000  0.4866010000000  0.5896130000000 1.0
C      1  0.5421530000000  0.5787270000000  0.5397740000000 1.0
C      1  0.5353570000000  0.5676430000000  0.4279130000000 1.0
C      1  0.5410920000000  0.4549850000000  0.4231030000000 1.0
C      1  0.5025490000000  0.4413160000000  0.5816480000000 1.0
C      1  0.5001200000000  0.4077430000000  0.4715240000000 1.0
C      1  0.5050660000000  0.4987490000000  0.3938650000000 1.0
C      1  0.4905810000000  0.5939540000000  0.4630890000000 1.0
C      1  0.5018150000000  0.5579650000000  0.5794010000000 1.0
C      1  0.3883790000000  0.4887540000000  0.4842370000000 1.0
C      1  0.6041030000000  0.4858740000000  0.5114220000000 1.0
C      1  0.4973910000000  0.5064540000000  0.4702340000000 1.0
END
