TITL C-2782234-8014-509 -0.00423511339773755 125000 -1085.6201183259 0 0 191 (C1) n - 1
REM
REM in /home/nfs/bkarasulu/CARBON/AIRSS/Generating-Clusters/REBO/Higher-Symm/SD-CG/HFTN-CG
REM
REM
REM
REM
REM
REM ./C.cell (12c818d87b63d06a65506943cc24bca4)
REM
REM compiler GCC version 9.2.1 20190827 (Red Hat 9.2.1-1)
REM options -cpp -mtune=generic -march=x86-64 -g -O0 -fpre-include=/usr/include/finclude/math-vector-fortran.h
REM seed 1974951717 1464198874 1294302348 -1061155222 -421069563 -769347160 -819344405 -1961643218 -1317312449 1570871121 1071688394 231229100 355000568 -352333603 177437546 1283218625 -929912160 -1302049309 -357432943 144309942 -1153717139 264513134 -533305066 1968533833 -2134171648 -1615203704 -398658861 -1053379173 -1289733237 -455853944 2046828979 -2079354488 231348971
REM
CELL 1.54180   50.00000   50.00000   50.00000   90.00000   90.00000   90.00000
LATT -1
SFAC C  
C      1  0.4682510000000  0.5277700000000  0.4526720000000 1.0
C      1  0.4523680000000  0.4851230000000  0.4679720000000 1.0
C      1  0.5055530000000  0.4596190000000  0.4652470000000 1.0
C      1  0.5449660000000  0.4949000000000  0.4613860000000 1.0
C      1  0.5201160000000  0.5349080000000  0.4642900000000 1.0
C      1  0.4277290000000  0.4506320000000  0.4330040000000 1.0
C      1  0.5407530000000  0.4321520000000  0.4389210000000 1.0
C      1  0.5753050000000  0.5193820000000  0.4454530000000 1.0
C      1  0.5283410000000  0.5911610000000  0.4284830000000 1.0
C      1  0.4187250000000  0.5345360000000  0.4354250000000 1.0
C      1  0.4420720000000  0.4648830000000  0.5413450000000 1.0
C      1  0.5240460000000  0.4245850000000  0.5417360000000 1.0
C      1  0.5874090000000  0.4885320000000  0.5492720000000 1.0
C      1  0.5228420000000  0.5713600000000  0.5531500000000 1.0
C      1  0.4313750000000  0.5503310000000  0.5553530000000 1.0
C      1  0.5890360000000  0.5710410000000  0.4957900000000 1.0
C      1  0.4646530000000  0.5941440000000  0.4825010000000 1.0
C      1  0.3920520000000  0.5060050000000  0.4912520000000 1.0
C      1  0.4650560000000  0.4034280000000  0.4793510000000 1.0
C      1  0.5822940000000  0.4331000000000  0.4975610000000 1.0
C      1  0.4033530000000  0.5204720000000  0.4694890000000 1.0
C      1  0.4669770000000  0.4169910000000  0.4524710000000 1.0
C      1  0.5608450000000  0.4265700000000  0.4727660000000 1.0
C      1  0.5911670000000  0.5511400000000  0.4768150000000 1.0
C      1  0.4903440000000  0.5962620000000  0.4633910000000 1.0
C      1  0.4600590000000  0.5239630000000  0.4010630000000 1.0
C      1  0.4716910000000  0.4786380000000  0.4120080000000 1.0
C      1  0.5101300000000  0.4687260000000  0.4149240000000 1.0
C      1  0.5399630000000  0.5043720000000  0.4036540000000 1.0
C      1  0.5139650000000  0.5461320000000  0.4026410000000 1.0
C      1  0.4442460000000  0.4356780000000  0.5538590000000 1.0
C      1  0.5580100000000  0.4228330000000  0.5422160000000 1.0
C      1  0.5922750000000  0.5170730000000  0.5515590000000 1.0
C      1  0.5010090000000  0.5875300000000  0.5605810000000 1.0
C      1  0.4109050000000  0.5276400000000  0.5600540000000 1.0
C      1  0.5915510000000  0.4623700000000  0.4535350000000 1.0
C      1  0.5574070000000  0.5808820000000  0.4642520000000 1.0
C      1  0.4411900000000  0.5711740000000  0.4600570000000 1.0
C      1  0.3956300000000  0.4810320000000  0.4605470000000 1.0
C      1  0.5045180000000  0.4067850000000  0.4617020000000 1.0
C      1  0.3941820000000  0.4885930000000  0.5401050000000 1.0
C      1  0.4672530000000  0.3952930000000  0.5418900000000 1.0
C      1  0.6024590000000  0.4377900000000  0.5414740000000 1.0
C      1  0.5927130000000  0.5668300000000  0.5428770000000 1.0
C      1  0.4570670000000  0.6000210000000  0.5458550000000 1.0
C      1  0.4864930000000  0.4606800000000  0.5687720000000 1.0
C      1  0.5364380000000  0.4703500000000  0.5664550000000 1.0
C      1  0.5441310000000  0.5220040000000  0.5691550000000 1.0
C      1  0.4929850000000  0.5432610000000  0.5662830000000 1.0
C      1  0.4589190000000  0.5067590000000  0.5727860000000 1.0
C      1  0.5619220000000  0.4395790000000  0.4145500000000 1.0
C      1  0.5486570000000  0.5438080000000  0.4286550000000 1.0
C      1  0.4645470000000  0.5842030000000  0.4141540000000 1.0
C      1  0.4302580000000  0.4978290000000  0.4260510000000 1.0
C      1  0.4885310000000  0.4065000000000  0.4074310000000 1.0
C      1  0.4343080000000  0.4976750000000  0.5429370000000 1.0
C      1  0.4911190000000  0.4258830000000  0.5321680000000 1.0
C      1  0.5648540000000  0.4646290000000  0.5391690000000 1.0
C      1  0.5542190000000  0.5511300000000  0.5321140000000 1.0
C      1  0.4616850000000  0.5604160000000  0.5482620000000 1.0
C      1  0.5617210000000  0.5478380000000  0.3974130000000 1.0
C      1  0.4715140000000  0.5709770000000  0.3943050000000 1.0
C      1  0.4266690000000  0.4899680000000  0.3935330000000 1.0
C      1  0.4860960000000  0.4285390000000  0.3916640000000 1.0
C      1  0.5541870000000  0.4572960000000  0.3958130000000 1.0
C      1  0.4392990000000  0.4382470000000  0.5116950000000 1.0
C      1  0.5176120000000  0.4361720000000  0.5040250000000 1.0
C      1  0.5834810000000  0.5185820000000  0.5127490000000 1.0
C      1  0.5025870000000  0.5753610000000  0.5173080000000 1.0
C      1  0.4179230000000  0.5275330000000  0.5122590000000 1.0
C      1  0.4876820000000  0.4047650000000  0.4349010000000 1.0
C      1  0.5738400000000  0.4398860000000  0.4455320000000 1.0
C      1  0.5716770000000  0.5538110000000  0.4490070000000 1.0
C      1  0.4674930000000  0.5804120000000  0.4442350000000 1.0
C      1  0.4020780000000  0.5052660000000  0.4408810000000 1.0
C      1  0.5148580000000  0.5487180000000  0.5333360000000 1.0
C      1  0.4441020000000  0.5286600000000  0.5315930000000 1.0
C      1  0.4678390000000  0.4495550000000  0.5248540000000 1.0
C      1  0.5350000000000  0.4518980000000  0.5284310000000 1.0
C      1  0.5564720000000  0.5160310000000  0.5304490000000 1.0
C      1  0.5613290000000  0.5429650000000  0.5019120000000 1.0
C      1  0.4721120000000  0.5693500000000  0.5033600000000 1.0
C      1  0.4184240000000  0.4931100000000  0.5085100000000 1.0
C      1  0.4599420000000  0.4346860000000  0.4874520000000 1.0
C      1  0.5678030000000  0.4703820000000  0.4974720000000 1.0
C      1  0.4488740000000  0.5260870000000  0.4294950000000 1.0
C      1  0.4507090000000  0.4724220000000  0.4359090000000 1.0
C      1  0.5171800000000  0.4517320000000  0.4386200000000 1.0
C      1  0.5462430000000  0.5103740000000  0.4331190000000 1.0
C      1  0.5193040000000  0.5608850000000  0.4297680000000 1.0
C      1  0.5364750000000  0.5312590000000  0.3927090000000 1.0
C      1  0.4839640000000  0.5428580000000  0.3935210000000 1.0
C      1  0.4553650000000  0.4966950000000  0.3929560000000 1.0
C      1  0.4868570000000  0.4542950000000  0.3979330000000 1.0
C      1  0.5344330000000  0.4772840000000  0.3987580000000 1.0
C      1  0.5206320000000  0.5212930000000  0.5466440000000 1.0
C      1  0.4774350000000  0.5366790000000  0.5365490000000 1.0
C      1  0.4680050000000  0.4983250000000  0.5407880000000 1.0
C      1  0.4908110000000  0.4772140000000  0.5421530000000 1.0
C      1  0.5426090000000  0.4891700000000  0.5383990000000 1.0
C      1  0.5468340000000  0.3916600000000  0.4858860000000 1.0
C      1  0.6228860000000  0.5015080000000  0.4617210000000 1.0
C      1  0.5175180000000  0.6061660000000  0.4720740000000 1.0
C      1  0.3918690000000  0.5659220000000  0.4615150000000 1.0
C      1  0.4015680000000  0.4286310000000  0.4749890000000 1.0
C      1  0.6219480000000  0.4971210000000  0.4866570000000 1.0
C      1  0.5248780000000  0.6020600000000  0.4981140000000 1.0
C      1  0.3915760000000  0.5630590000000  0.4889670000000 1.0
C      1  0.4017440000000  0.4309770000000  0.5001650000000 1.0
C      1  0.5353960000000  0.3912010000000  0.5084910000000 1.0
C      1  0.4127050000000  0.4595020000000  0.5119910000000 1.0
C      1  0.5071990000000  0.4050650000000  0.5114620000000 1.0
C      1  0.5937570000000  0.4922720000000  0.5016790000000 1.0
C      1  0.5372680000000  0.5763810000000  0.5162600000000 1.0
C      1  0.4149030000000  0.5564030000000  0.5018820000000 1.0
C      1  0.4284640000000  0.5311430000000  0.4740290000000 1.0
C      1  0.4648150000000  0.4487840000000  0.4563580000000 1.0
C      1  0.5462880000000  0.4485820000000  0.4906360000000 1.0
C      1  0.5697760000000  0.5245440000000  0.4758650000000 1.0
C      1  0.4969020000000  0.5649220000000  0.4518820000000 1.0
C      1  0.4646480000000  0.5110170000000  0.5090860000000 1.0
C      1  0.4824850000000  0.4717820000000  0.5095440000000 1.0
C      1  0.5232260000000  0.4784000000000  0.5124920000000 1.0
C      1  0.5293740000000  0.5174510000000  0.5135440000000 1.0
C      1  0.4950700000000  0.5369240000000  0.5093810000000 1.0
C      1  0.4462190000000  0.4129890000000  0.5336330000000 1.0
C      1  0.5812200000000  0.4268220000000  0.5253690000000 1.0
C      1  0.5987810000000  0.5413930000000  0.5325890000000 1.0
C      1  0.4838290000000  0.5955680000000  0.5372830000000 1.0
C      1  0.3995420000000  0.5162480000000  0.5361530000000 1.0
C      1  0.4934520000000  0.4325810000000  0.4809120000000 1.0
C      1  0.5728700000000  0.4855220000000  0.4681800000000 1.0
C      1  0.5438040000000  0.5547890000000  0.4773680000000 1.0
C      1  0.4654860000000  0.5531150000000  0.4733050000000 1.0
C      1  0.4244930000000  0.4775240000000  0.4785850000000 1.0
C      1  0.5375020000000  0.5999160000000  0.4528960000000 1.0
C      1  0.4159120000000  0.5596760000000  0.4478660000000 1.0
C      1  0.4113090000000  0.4524420000000  0.4589210000000 1.0
C      1  0.5351690000000  0.4080760000000  0.4601340000000 1.0
C      1  0.5969250000000  0.4951920000000  0.4460800000000 1.0
C      1  0.5143060000000  0.4547740000000  0.5815310000000 1.0
C      1  0.5497140000000  0.4955650000000  0.5835340000000 1.0
C      1  0.5208150000000  0.5424820000000  0.5805390000000 1.0
C      1  0.4679490000000  0.5343020000000  0.5854230000000 1.0
C      1  0.4668280000000  0.4764290000000  0.5860190000000 1.0
C      1  0.5059150000000  0.4245560000000  0.5689760000000 1.0
C      1  0.5746220000000  0.4736990000000  0.5767080000000 1.0
C      1  0.5471210000000  0.5618580000000  0.5699500000000 1.0
C      1  0.4461950000000  0.5605610000000  0.5842400000000 1.0
C      1  0.4373480000000  0.4731850000000  0.5741260000000 1.0
C      1  0.4550810000000  0.5140890000000  0.4796480000000 1.0
C      1  0.4779610000000  0.4693080000000  0.4795950000000 1.0
C      1  0.5283500000000  0.4735250000000  0.4796320000000 1.0
C      1  0.5377160000000  0.5163020000000  0.4839610000000 1.0
C      1  0.4960410000000  0.5469960000000  0.4809330000000 1.0
C      1  0.4910530000000  0.3934680000000  0.4885860000000 1.0
C      1  0.5982770000000  0.4611550000000  0.4868850000000 1.0
C      1  0.5636070000000  0.5836200000000  0.4963630000000 1.0
C      1  0.4392940000000  0.5740860000000  0.4940620000000 1.0
C      1  0.3878100000000  0.4734930000000  0.4930810000000 1.0
C      1  0.4070630000000  0.4729480000000  0.5586070000000 1.0
C      1  0.4891050000000  0.3965070000000  0.5591330000000 1.0
C      1  0.5992170000000  0.4583420000000  0.5585340000000 1.0
C      1  0.5743660000000  0.5779600000000  0.5600350000000 1.0
C      1  0.4425120000000  0.5897950000000  0.5670540000000 1.0
C      1  0.5434790000000  0.4967230000000  0.6133400000000 1.0
C      1  0.5179520000000  0.5422580000000  0.6109570000000 1.0
C      1  0.4767820000000  0.5305590000000  0.6146900000000 1.0
C      1  0.4702080000000  0.4744740000000  0.6159580000000 1.0
C      1  0.5163690000000  0.4558980000000  0.6117610000000 1.0
C      1  0.4250260000000  0.5045910000000  0.5751780000000 1.0
C      1  0.4739790000000  0.4332600000000  0.5606970000000 1.0
C      1  0.5592280000000  0.4449710000000  0.5663920000000 1.0
C      1  0.5697120000000  0.5384130000000  0.5598790000000 1.0
C      1  0.4772150000000  0.5719320000000  0.5755750000000 1.0
C      1  0.4966420000000  0.5160320000000  0.4480210000000 1.0
C      1  0.5244330000000  0.4750610000000  0.3283140000000 1.0
C      1  0.5021480000000  0.4976560000000  0.6659540000000 1.0
C      1  0.5014890000000  0.4991760000000  0.6127180000000 1.0
C      1  0.5032100000000  0.5006930000000  0.5593720000000 1.0
C      1  0.5006650000000  0.5017140000000  0.4745170000000 1.0
C      1  0.5011610000000  0.4999360000000  0.5860990000000 1.0
C      1  0.5018180000000  0.4984160000000  0.6393360000000 1.0
C      1  0.5024770000000  0.4968960000000  0.6925720000000 1.0
C      1  0.4968280000000  0.4982200000000  0.4232990000000 1.0
C      1  0.5153100000000  0.4871960000000  0.3501940000000 1.0
C      1  0.4970550000000  0.5114770000000  0.3939760000000 1.0
C      1  0.4984540000000  0.5021970000000  0.5062260000000 1.0
C      1  0.5334100000000  0.4631200000000  0.3067820000000 1.0
C      1  0.5028010000000  0.4961480000000  0.7187660000000 1.0
C      1  0.5061870000000  0.4993300000000  0.3720740000000 1.0
END
