TITL C-2782235-7892-1341 0.00154855568394792 125000 -549.000405220177 0 0 96 (C1) n - 1
REM
REM in /home/nfs/bkarasulu/CARBON/AIRSS/Generating-Clusters/REBO/Higher-Symm/SD-CG/HFTN-CG
REM
REM
REM
REM
REM
REM ./C.cell (12c818d87b63d06a65506943cc24bca4)
REM
REM compiler GCC version 9.2.1 20190827 (Red Hat 9.2.1-1)
REM options -cpp -mtune=generic -march=x86-64 -g -O0 -fpre-include=/usr/include/finclude/math-vector-fortran.h
REM seed 1377402040 1838385141 -382696576 1287516854 355519306 1817164463 1990695997 1246904508 673516307 -2139018084 649887668 1118672422 885654030 1760152900 -2067452032 1248839119 -593784756 968008174 -1132066139 -1186668679 99873666 -2072632584 84648582 621714069 1289598931 -780006681 -2142152886 -332435274 2022717463 -1931243647 -738652875 875749787 -1974158883
REM
CELL 1.54180   50.00000   50.00000   50.00000   90.00000   90.00000   90.00000
LATT -1
SFAC C  
C      1  0.4619740000000  0.5206450000000  0.5898960000000 1.0
C      1  0.3918630000000  0.5113710000000  0.5066350000000 1.0
C      1  0.4883990000000  0.5318430000000  0.4297870000000 1.0
C      1  0.5839250000000  0.5152220000000  0.4447380000000 1.0
C      1  0.5743330000000  0.5168090000000  0.5526280000000 1.0
C      1  0.4429490000000  0.4706940000000  0.5261700000000 1.0
C      1  0.4602640000000  0.4541440000000  0.4382450000000 1.0
C      1  0.5454020000000  0.4470850000000  0.4400970000000 1.0
C      1  0.5702260000000  0.4530430000000  0.5150450000000 1.0
C      1  0.4978850000000  0.4407590000000  0.5633730000000 1.0
C      1  0.5146130000000  0.5968180000000  0.5066100000000 1.0
C      1  0.4882030000000  0.5838330000000  0.5020900000000 1.0
C      1  0.4817650000000  0.5944760000000  0.4750880000000 1.0
C      1  0.5070790000000  0.5968730000000  0.4597500000000 1.0
C      1  0.5258120000000  0.6044410000000  0.4815510000000 1.0
C      1  0.5174980000000  0.4353780000000  0.5427190000000 1.0
C      1  0.4623540000000  0.4469630000000  0.5287150000000 1.0
C      1  0.4572730000000  0.4337040000000  0.4582210000000 1.0
C      1  0.5149280000000  0.4377440000000  0.4426670000000 1.0
C      1  0.5517600000000  0.4400840000000  0.4913900000000 1.0
C      1  0.5129030000000  0.5740250000000  0.4440280000000 1.0
C      1  0.5648400000000  0.5480140000000  0.4805640000000 1.0
C      1  0.5280670000000  0.5601260000000  0.5627070000000 1.0
C      1  0.4548430000000  0.5898990000000  0.5249530000000 1.0
C      1  0.4203940000000  0.5503920000000  0.4647000000000 1.0
C      1  0.4882180000000  0.5013010000000  0.5667890000000 1.0
C      1  0.4346640000000  0.4918320000000  0.5021630000000 1.0
C      1  0.4746940000000  0.4843890000000  0.4442210000000 1.0
C      1  0.5649460000000  0.4926610000000  0.4721050000000 1.0
C      1  0.5551870000000  0.4795610000000  0.5312570000000 1.0
C      1  0.4428910000000  0.5298660000000  0.4504000000000 1.0
C      1  0.5334570000000  0.5308510000000  0.4632370000000 1.0
C      1  0.5391900000000  0.5470300000000  0.5266080000000 1.0
C      1  0.4777300000000  0.5547580000000  0.5504870000000 1.0
C      1  0.4381570000000  0.5435310000000  0.5146340000000 1.0
C      1  0.5127830000000  0.4873470000000  0.5680210000000 1.0
C      1  0.4401410000000  0.5146040000000  0.5257530000000 1.0
C      1  0.4446900000000  0.5005980000000  0.4482260000000 1.0
C      1  0.5344480000000  0.5001680000000  0.4604100000000 1.0
C      1  0.5820040000000  0.4909140000000  0.5178160000000 1.0
C      1  0.4578660000000  0.4658210000000  0.5738520000000 1.0
C      1  0.4148420000000  0.4618630000000  0.4849150000000 1.0
C      1  0.5007760000000  0.4784620000000  0.4146730000000 1.0
C      1  0.5920550000000  0.4660460000000  0.4561290000000 1.0
C      1  0.5702180000000  0.4607830000000  0.5632160000000 1.0
C      1  0.4788940000000  0.4312390000000  0.4781680000000 1.0
C      1  0.5067370000000  0.4315610000000  0.4688640000000 1.0
C      1  0.5246640000000  0.4329760000000  0.4920350000000 1.0
C      1  0.5081930000000  0.4324230000000  0.5160250000000 1.0
C      1  0.4793380000000  0.4353320000000  0.5083230000000 1.0
C      1  0.4744200000000  0.4924410000000  0.5054140000000 1.0
C      1  0.4784270000000  0.4710380000000  0.4816090000000 1.0
C      1  0.5091590000000  0.4846530000000  0.4872300000000 1.0
C      1  0.5181730000000  0.4849140000000  0.5203580000000 1.0
C      1  0.4892740000000  0.4853340000000  0.5270440000000 1.0
C      1  0.4571070000000  0.5627440000000  0.5307900000000 1.0
C      1  0.4445710000000  0.5389750000000  0.4833190000000 1.0
C      1  0.5078270000000  0.5439180000000  0.4501210000000 1.0
C      1  0.5377620000000  0.5399070000000  0.4965470000000 1.0
C      1  0.5092480000000  0.5483790000000  0.5429700000000 1.0
C      1  0.5417220000000  0.4626440000000  0.5799700000000 1.0
C      1  0.4471510000000  0.4879600000000  0.5543400000000 1.0
C      1  0.4484620000000  0.4567620000000  0.4893220000000 1.0
C      1  0.5272280000000  0.4739810000000  0.4313150000000 1.0
C      1  0.5890850000000  0.4524550000000  0.4867530000000 1.0
C      1  0.4695490000000  0.5222790000000  0.4920120000000 1.0
C      1  0.4973340000000  0.5363980000000  0.4794670000000 1.0
C      1  0.5153460000000  0.5151810000000  0.4950090000000 1.0
C      1  0.5126920000000  0.5176580000000  0.5284180000000 1.0
C      1  0.4825810000000  0.5276820000000  0.5219340000000 1.0
C      1  0.4393370000000  0.4739780000000  0.4294470000000 1.0
C      1  0.5563850000000  0.4792700000000  0.4439330000000 1.0
C      1  0.5915670000000  0.4654320000000  0.5386850000000 1.0
C      1  0.5092990000000  0.4596980000000  0.5821390000000 1.0
C      1  0.4179560000000  0.4916520000000  0.5380740000000 1.0
C      1  0.5823340000000  0.4921080000000  0.5577490000000 1.0
C      1  0.4680680000000  0.4911360000000  0.5882050000000 1.0
C      1  0.4038650000000  0.4875020000000  0.4964450000000 1.0
C      1  0.4891580000000  0.5048790000000  0.4222340000000 1.0
C      1  0.5947690000000  0.4902960000000  0.4455870000000 1.0
C      1  0.5834080000000  0.4842100000000  0.4906880000000 1.0
C      1  0.5401290000000  0.4853320000000  0.5537110000000 1.0
C      1  0.4673500000000  0.5132920000000  0.5451760000000 1.0
C      1  0.4495330000000  0.4875260000000  0.4751460000000 1.0
C      1  0.5048570000000  0.4844020000000  0.4543740000000 1.0
C      1  0.4062380000000  0.5332050000000  0.5156230000000 1.0
C      1  0.4631630000000  0.5428670000000  0.4313810000000 1.0
C      1  0.5663440000000  0.5343090000000  0.4546280000000 1.0
C      1  0.5599240000000  0.5365680000000  0.5410210000000 1.0
C      1  0.4683730000000  0.5419050000000  0.5740080000000 1.0
C      1  0.4704350000000  0.4454340000000  0.5571000000000 1.0
C      1  0.4290470000000  0.4348520000000  0.4722550000000 1.0
C      1  0.4974430000000  0.4489360000000  0.4225500000000 1.0
C      1  0.5665860000000  0.4442880000000  0.4623440000000 1.0
C      1  0.5426090000000  0.4456030000000  0.5502750000000 1.0
C      1  0.4863390000000  0.5560500000000  0.5044490000000 1.0
END
