TITL C-2782230-7391-984 15.7883118740808 125000 -1143.75583580039 0 0 198 (C1) n - 1
REM
REM in /home/nfs/bkarasulu/CARBON/AIRSS/Generating-Clusters/REBO/Higher-Symm/SD-CG/HFTN-CG
REM
REM
REM
REM
REM
REM ./C.cell (12c818d87b63d06a65506943cc24bca4)
REM
REM compiler GCC version 9.2.1 20190827 (Red Hat 9.2.1-1)
REM options -cpp -mtune=generic -march=x86-64 -g -O0 -fpre-include=/usr/include/finclude/math-vector-fortran.h
REM seed -269383438 -2106085758 2098172247 -756847937 1411251609 1200185210 477379362 -858212468 -1275523962 1224277745 -565084107 1768045073 329527317 -2100996596 866283406 -61977553 -698124130 1271711289 -1031266318 -424763026 -1248924167 1405435486 -1032130232 2048925789 -844767472 1005856273 1586863072 -1730447578 -526219407 1551506696 -1851850382 -1975526700 1900367846
REM
CELL 1.54180   50.00000   50.00000   50.00000   90.00000   90.00000   90.00000
LATT -1
SFAC C  
C      1  0.5515470000000  0.5746780000000  0.5473890000000 1.0
C      1  0.5610850000000  0.5756880000000  0.4826460000000 1.0
C      1  0.5203010000000  0.5745870000000  0.4299250000000 1.0
C      1  0.4423750000000  0.5765700000000  0.4608810000000 1.0
C      1  0.4409460000000  0.5744280000000  0.5240500000000 1.0
C      1  0.4873560000000  0.5856600000000  0.5503790000000 1.0
C      1  0.4538110000000  0.5880850000000  0.5466220000000 1.0
C      1  0.4376370000000  0.5848050000000  0.4933160000000 1.0
C      1  0.4899520000000  0.5772840000000  0.4379960000000 1.0
C      1  0.5395740000000  0.5692360000000  0.4565100000000 1.0
C      1  0.5588920000000  0.5676780000000  0.5159650000000 1.0
C      1  0.5193120000000  0.5740730000000  0.5542080000000 1.0
C      1  0.5821890000000  0.4180840000000  0.4707010000000 1.0
C      1  0.5137500000000  0.4142510000000  0.4121800000000 1.0
C      1  0.4302000000000  0.4169740000000  0.4425190000000 1.0
C      1  0.4152200000000  0.4130110000000  0.5292740000000 1.0
C      1  0.4857980000000  0.4124320000000  0.5881350000000 1.0
C      1  0.5715350000000  0.4152880000000  0.5594840000000 1.0
C      1  0.4172540000000  0.4115170000000  0.4706610000000 1.0
C      1  0.4825640000000  0.4139850000000  0.4182380000000 1.0
C      1  0.5636940000000  0.4138010000000  0.4452730000000 1.0
C      1  0.5849680000000  0.4145300000000  0.5305500000000 1.0
C      1  0.5173490000000  0.4125990000000  0.5841750000000 1.0
C      1  0.4369460000000  0.4129350000000  0.5513640000000 1.0
C      1  0.4238040000000  0.4585440000000  0.5619580000000 1.0
C      1  0.5163920000000  0.4614950000000  0.5900660000000 1.0
C      1  0.5928980000000  0.4631560000000  0.5345410000000 1.0
C      1  0.5747700000000  0.4610260000000  0.4390800000000 1.0
C      1  0.4818960000000  0.4614390000000  0.4070440000000 1.0
C      1  0.4080750000000  0.4596940000000  0.4668140000000 1.0
C      1  0.5769720000000  0.4646170000000  0.5645800000000 1.0
C      1  0.4835640000000  0.4610800000000  0.5951690000000 1.0
C      1  0.4068580000000  0.4616410000000  0.5336030000000 1.0
C      1  0.4243480000000  0.4635210000000  0.4377440000000 1.0
C      1  0.5149780000000  0.4626770000000  0.4053060000000 1.0
C      1  0.5936920000000  0.4639900000000  0.4668320000000 1.0
C      1  0.3790550000000  0.5009550000000  0.5111290000000 1.0
C      1  0.4510700000000  0.5010010000000  0.6077610000000 1.0
C      1  0.5723590000000  0.5038130000000  0.6000240000000 1.0
C      1  0.6199650000000  0.5040150000000  0.4891450000000 1.0
C      1  0.5493650000000  0.4998740000000  0.3910370000000 1.0
C      1  0.4286370000000  0.4996510000000  0.3998790000000 1.0
C      1  0.6198590000000  0.5049140000000  0.5231650000000 1.0
C      1  0.5408060000000  0.4998420000000  0.6067140000000 1.0
C      1  0.4212900000000  0.5002810000000  0.5911090000000 1.0
C      1  0.3793890000000  0.5004810000000  0.4770290000000 1.0
C      1  0.4587190000000  0.4997380000000  0.3837240000000 1.0
C      1  0.5785850000000  0.5014870000000  0.4084070000000 1.0
C      1  0.5262940000000  0.5723140000000  0.3998380000000 1.0
C      1  0.4392920000000  0.5668870000000  0.4317890000000 1.0
C      1  0.4105380000000  0.5681180000000  0.5174530000000 1.0
C      1  0.4730330000000  0.5712770000000  0.5847500000000 1.0
C      1  0.5722940000000  0.5781150000000  0.5705260000000 1.0
C      1  0.5975740000000  0.5745090000000  0.4718880000000 1.0
C      1  0.4692560000000  0.5682540000000  0.4169910000000 1.0
C      1  0.5611320000000  0.5711160000000  0.4228930000000 1.0
C      1  0.5977470000000  0.5755960000000  0.5207680000000 1.0
C      1  0.5324510000000  0.5757130000000  0.5970960000000 1.0
C      1  0.4419520000000  0.5732390000000  0.5709660000000 1.0
C      1  0.4040420000000  0.5691400000000  0.4841390000000 1.0
C      1  0.5312330000000  0.4371980000000  0.4139430000000 1.0
C      1  0.4387990000000  0.4388730000000  0.4267090000000 1.0
C      1  0.4057510000000  0.4361740000000  0.5147880000000 1.0
C      1  0.4672530000000  0.4348960000000  0.5875670000000 1.0
C      1  0.5614650000000  0.4382460000000  0.5739960000000 1.0
C      1  0.5942950000000  0.4391960000000  0.4857760000000 1.0
C      1  0.4655030000000  0.4367820000000  0.4142700000000 1.0
C      1  0.5575190000000  0.4366840000000  0.4290020000000 1.0
C      1  0.5951960000000  0.4377950000000  0.5164610000000 1.0
C      1  0.5335900000000  0.4368830000000  0.5849260000000 1.0
C      1  0.4408580000000  0.4336560000000  0.5710510000000 1.0
C      1  0.4062130000000  0.4342630000000  0.4848440000000 1.0
C      1  0.4444980000000  0.5179910000000  0.4900150000000 1.0
C      1  0.4567410000000  0.5055890000000  0.5405550000000 1.0
C      1  0.5117850000000  0.5099710000000  0.5606530000000 1.0
C      1  0.5589910000000  0.5018660000000  0.5147710000000 1.0
C      1  0.5403290000000  0.5017550000000  0.4543950000000 1.0
C      1  0.4876030000000  0.5128140000000  0.4434680000000 1.0
C      1  0.5569380000000  0.5109010000000  0.4825900000000 1.0
C      1  0.5417810000000  0.5092110000000  0.5435710000000 1.0
C      1  0.4847340000000  0.4989220000000  0.5580890000000 1.0
C      1  0.4330820000000  0.5091790000000  0.5193630000000 1.0
C      1  0.4574370000000  0.5099970000000  0.4595600000000 1.0
C      1  0.5170940000000  0.5121410000000  0.4330400000000 1.0
C      1  0.4113890000000  0.4897170000000  0.5164410000000 1.0
C      1  0.4694650000000  0.4865490000000  0.5824260000000 1.0
C      1  0.5588090000000  0.4909460000000  0.5722840000000 1.0
C      1  0.5891380000000  0.4904230000000  0.4842430000000 1.0
C      1  0.5288920000000  0.4893160000000  0.4167020000000 1.0
C      1  0.4398760000000  0.4918320000000  0.4312590000000 1.0
C      1  0.5942900000000  0.4872580000000  0.5145330000000 1.0
C      1  0.5278060000000  0.4892600000000  0.5772020000000 1.0
C      1  0.4405010000000  0.4802540000000  0.5757600000000 1.0
C      1  0.4043680000000  0.4828710000000  0.4867730000000 1.0
C      1  0.4639210000000  0.4863380000000  0.4125260000000 1.0
C      1  0.5581630000000  0.4835900000000  0.4259070000000 1.0
C      1  0.5137650000000  0.5406470000000  0.5577110000000 1.0
C      1  0.5552830000000  0.5338790000000  0.5151380000000 1.0
C      1  0.5369170000000  0.5353410000000  0.4585310000000 1.0
C      1  0.4807350000000  0.5456390000000  0.4478170000000 1.0
C      1  0.4447420000000  0.5515910000000  0.4917320000000 1.0
C      1  0.4668300000000  0.5358130000000  0.5453400000000 1.0
C      1  0.4856420000000  0.5533760000000  0.5584760000000 1.0
C      1  0.4455300000000  0.5407000000000  0.5228210000000 1.0
C      1  0.4535050000000  0.5442080000000  0.4614500000000 1.0
C      1  0.5120520000000  0.5442390000000  0.4402580000000 1.0
C      1  0.5543020000000  0.5442760000000  0.4840300000000 1.0
C      1  0.5425190000000  0.5434920000000  0.5431950000000 1.0
C      1  0.5343200000000  0.4351870000000  0.4615080000000 1.0
C      1  0.4812640000000  0.4475900000000  0.4492810000000 1.0
C      1  0.4427670000000  0.4496060000000  0.4883710000000 1.0
C      1  0.4634280000000  0.4399410000000  0.5388240000000 1.0
C      1  0.5185560000000  0.4249870000000  0.5464340000000 1.0
C      1  0.5555870000000  0.4347160000000  0.5130960000000 1.0
C      1  0.4556350000000  0.4399230000000  0.4629050000000 1.0
C      1  0.5061180000000  0.4275000000000  0.4489010000000 1.0
C      1  0.5544050000000  0.4440360000000  0.4828810000000 1.0
C      1  0.5432350000000  0.4427130000000  0.5388960000000 1.0
C      1  0.4887470000000  0.4324980000000  0.5539870000000 1.0
C      1  0.4471570000000  0.4310980000000  0.5139140000000 1.0
C      1  0.4653790000000  0.4044780000000  0.5381740000000 1.0
C      1  0.5246390000000  0.3945710000000  0.5562050000000 1.0
C      1  0.5586320000000  0.4009450000000  0.5138060000000 1.0
C      1  0.5348860000000  0.4011480000000  0.4575830000000 1.0
C      1  0.4769690000000  0.3962080000000  0.4428130000000 1.0
C      1  0.4374240000000  0.3928790000000  0.4853760000000 1.0
C      1  0.5533700000000  0.3950640000000  0.5453080000000 1.0
C      1  0.4908770000000  0.3986270000000  0.5577780000000 1.0
C      1  0.4419320000000  0.3996930000000  0.5139620000000 1.0
C      1  0.4553180000000  0.4059760000000  0.4605270000000 1.0
C      1  0.5100110000000  0.3952610000000  0.4401490000000 1.0
C      1  0.5541400000000  0.4084480000000  0.4834690000000 1.0
C      1  0.5766480000000  0.5455400000000  0.5639100000000 1.0
C      1  0.5896320000000  0.5437670000000  0.4653710000000 1.0
C      1  0.5153890000000  0.5411210000000  0.3979840000000 1.0
C      1  0.4233020000000  0.5381250000000  0.4360480000000 1.0
C      1  0.4074380000000  0.5399950000000  0.5346520000000 1.0
C      1  0.4847680000000  0.5418960000000  0.5967330000000 1.0
C      1  0.4256230000000  0.5444000000000  0.5631340000000 1.0
C      1  0.4094070000000  0.5411730000000  0.4664350000000 1.0
C      1  0.4819560000000  0.5420380000000  0.4017460000000 1.0
C      1  0.5701810000000  0.5441090000000  0.4382610000000 1.0
C      1  0.5888700000000  0.5469620000000  0.5324150000000 1.0
C      1  0.5181590000000  0.5468460000000  0.5968190000000 1.0
C      1  0.4946740000000  0.6184080000000  0.5453970000000 1.0
C      1  0.5449410000000  0.6139440000000  0.5349230000000 1.0
C      1  0.5568300000000  0.6091080000000  0.4852310000000 1.0
C      1  0.5099780000000  0.6127320000000  0.4627940000000 1.0
C      1  0.4605790000000  0.6025270000000  0.4660830000000 1.0
C      1  0.4558690000000  0.6283510000000  0.5151700000000 1.0
C      1  0.5214800000000  0.6061410000000  0.5481220000000 1.0
C      1  0.4654810000000  0.6170310000000  0.5391980000000 1.0
C      1  0.4507140000000  0.6148780000000  0.4914370000000 1.0
C      1  0.4856630000000  0.6009970000000  0.4552020000000 1.0
C      1  0.5353520000000  0.6011270000000  0.4659280000000 1.0
C      1  0.5574710000000  0.6004690000000  0.5137540000000 1.0
C      1  0.4886190000000  0.4665300000000  0.5538680000000 1.0
C      1  0.5424590000000  0.4767930000000  0.5407490000000 1.0
C      1  0.5531100000000  0.4777160000000  0.4834570000000 1.0
C      1  0.5102070000000  0.4617630000000  0.4447840000000 1.0
C      1  0.4555880000000  0.4752960000000  0.4612660000000 1.0
C      1  0.4428380000000  0.4653570000000  0.5167080000000 1.0
C      1  0.5174360000000  0.4594570000000  0.5502060000000 1.0
C      1  0.4591570000000  0.4737130000000  0.5410490000000 1.0
C      1  0.4438990000000  0.4843690000000  0.4899480000000 1.0
C      1  0.4839440000000  0.4818060000000  0.4467990000000 1.0
C      1  0.5372160000000  0.4690120000000  0.4568330000000 1.0
C      1  0.5593270000000  0.4685600000000  0.5136130000000 1.0
C      1  0.4075210000000  0.5143150000000  0.4224690000000 1.0
C      1  0.3891050000000  0.5145260000000  0.5408430000000 1.0
C      1  0.4816360000000  0.5148280000000  0.6138400000000 1.0
C      1  0.5907880000000  0.5187970000000  0.5756450000000 1.0
C      1  0.6083010000000  0.5177660000000  0.4602210000000 1.0
C      1  0.5200310000000  0.5143550000000  0.3812420000000 1.0
C      1  0.5895980000000  0.5206700000000  0.4328690000000 1.0
C      1  0.6036660000000  0.5229350000000  0.5452700000000 1.0
C      1  0.5146370000000  0.5198120000000  0.6111430000000 1.0
C      1  0.4074530000000  0.5193280000000  0.5686510000000 1.0
C      1  0.3929010000000  0.5185240000000  0.4527980000000 1.0
C      1  0.4865310000000  0.5181850000000  0.3826760000000 1.0
C      1  0.5963020000000  0.4859430000000  0.5831200000000 1.0
C      1  0.6193870000000  0.4855920000000  0.4597660000000 1.0
C      1  0.5236000000000  0.4810420000000  0.3782250000000 1.0
C      1  0.4044070000000  0.4816780000000  0.4169750000000 1.0
C      1  0.3803880000000  0.4820990000000  0.5398780000000 1.0
C      1  0.4767740000000  0.4822300000000  0.6210850000000 1.0
C      1  0.4027640000000  0.4855960000000  0.5653190000000 1.0
C      1  0.3925460000000  0.4846470000000  0.4489280000000 1.0
C      1  0.4900000000000  0.4842850000000  0.3828060000000 1.0
C      1  0.5964880000000  0.4872640000000  0.4345690000000 1.0
C      1  0.6069700000000  0.4894610000000  0.5516230000000 1.0
C      1  0.5094630000000  0.4861680000000  0.6124680000000 1.0
C      1  0.4077900000000  0.5390900000000  0.5004150000000 1.0
C      1  0.5908000000000  0.5512600000000  0.4986160000000 1.0
C      1  0.5429310000000  0.5441380000000  0.4178020000000 1.0
C      1  0.4527180000000  0.5385900000000  0.4188130000000 1.0
C      1  0.4537470000000  0.5431530000000  0.5823250000000 1.0
C      1  0.5474240000000  0.5520240000000  0.5800640000000 1.0
END
