TITL C-2782235-7892-505 -0.00262123626295972 125000 -304.342713904522 0 0 57 (C5) n - 1
REM
REM in /home/nfs/bkarasulu/CARBON/AIRSS/Generating-Clusters/REBO/Higher-Symm/SD-CG/HFTN-CG
REM
REM
REM
REM
REM
REM ./C.cell (12c818d87b63d06a65506943cc24bca4)
REM
REM compiler GCC version 9.2.1 20190827 (Red Hat 9.2.1-1)
REM options -cpp -mtune=generic -march=x86-64 -g -O0 -fpre-include=/usr/include/finclude/math-vector-fortran.h
REM seed 2045305614 679895276 878070204 -319848670 284800217 -1840435282 367817259 79282119 1442886253 1810439415 -1627259287 -1920360762 -694024807 -339810714 1932223724 1805024146 138159609 915503986 2020735116 -1862216373 464505618 -286649155 -436149816 -152340574 1719190025 -11716685 1411033655 9139784 487242025 -366356665 -1016768293 -1926070826 -1420806615
REM
CELL 1.54180   50.00000   50.00000   50.00000   90.00000   90.00000   90.00000
LATT -1
SFAC C  
C      1  0.4689150000000  0.4719870000000  0.5553220000000 1.0
C      1  0.4689040000000  0.4378320000000  0.4899520000000 1.0
C      1  0.4688950000000  0.4894480000000  0.4372670000000 1.0
C      1  0.4689010000000  0.5555040000000  0.4700770000000 1.0
C      1  0.4689130000000  0.5447130000000  0.5430390000000 1.0
C      1  0.5305350000000  0.4719870000000  0.5553120000000 1.0
C      1  0.5305240000000  0.4378320000000  0.4899420000000 1.0
C      1  0.5305150000000  0.4894480000000  0.4372570000000 1.0
C      1  0.5305200000000  0.5555040000000  0.4700670000000 1.0
C      1  0.5305320000000  0.5447130000000  0.5430290000000 1.0
C      1  0.4827160000000  0.5268590000000  0.5689740000000 1.0
C      1  0.4827130000000  0.4418020000000  0.5463560000000 1.0
C      1  0.4826980000000  0.4370300000000  0.4584720000000 1.0
C      1  0.4826930000000  0.5191370000000  0.4267750000000 1.0
C      1  0.4827040000000  0.5746550000000  0.4950700000000 1.0
C      1  0.5167380000000  0.5268600000000  0.5689690000000 1.0
C      1  0.5167340000000  0.4418020000000  0.5463500000000 1.0
C      1  0.5167200000000  0.4370300000000  0.4584660000000 1.0
C      1  0.5167140000000  0.5191370000000  0.4267700000000 1.0
C      1  0.5167250000000  0.5746550000000  0.4950640000000 1.0
C      1  0.5340490000000  0.5536930000000  0.5107180000000 1.0
C      1  0.5340560000000  0.5054910000000  0.5538680000000 1.0
C      1  0.5340510000000  0.4495580000000  0.5213590000000 1.0
C      1  0.5340410000000  0.4631920000000  0.4581180000000 1.0
C      1  0.5340400000000  0.5275510000000  0.4515420000000 1.0
C      1  0.4653850000000  0.5536930000000  0.5107300000000 1.0
C      1  0.4653920000000  0.5054910000000  0.5538790000000 1.0
C      1  0.4653870000000  0.4495580000000  0.5213700000000 1.0
C      1  0.4653770000000  0.4631920000000  0.4581290000000 1.0
C      1  0.4653750000000  0.5275510000000  0.4515530000000 1.0
C      1  0.4805950000000  0.4957720000000  0.5255920000000 1.0
C      1  0.4805910000000  0.4734550000000  0.5033840000000 1.0
C      1  0.4805860000000  0.4876790000000  0.4752970000000 1.0
C      1  0.4805870000000  0.5187880000000  0.4801460000000 1.0
C      1  0.4805920000000  0.5237890000000  0.5112300000000 1.0
C      1  0.5188450000000  0.4957720000000  0.5255860000000 1.0
C      1  0.5188410000000  0.4734550000000  0.5033780000000 1.0
C      1  0.5188370000000  0.4876800000000  0.4752910000000 1.0
C      1  0.5188370000000  0.5187880000000  0.4801390000000 1.0
C      1  0.5188420000000  0.5237890000000  0.5112230000000 1.0
C      1  0.4500270000000  0.5333620000000  0.4879500000000 1.0
C      1  0.4500330000000  0.5208750000000  0.5275060000000 1.0
C      1  0.4500340000000  0.4793970000000  0.5278540000000 1.0
C      1  0.4500270000000  0.4662490000000  0.4885130000000 1.0
C      1  0.4500230000000  0.4996010000000  0.4638510000000 1.0
C      1  0.5494000000000  0.5333620000000  0.4879340000000 1.0
C      1  0.5494070000000  0.5208760000000  0.5274890000000 1.0
C      1  0.5494070000000  0.4793980000000  0.5278370000000 1.0
C      1  0.5494000000000  0.4662490000000  0.4884970000000 1.0
C      1  0.5493960000000  0.4996010000000  0.4638350000000 1.0
C      1  0.4997030000000  0.4896540000000  0.4240500000000 1.0
C      1  0.4997240000000  0.5523120000000  0.5538450000000 1.0
C      1  0.4997100000000  0.5681340000000  0.4661850000000 1.0
C      1  0.4997270000000  0.4640540000000  0.5658850000000 1.0
C      1  0.4997130000000  0.4253290000000  0.4856680000000 1.0
C      1  0.4444350000000  0.4998970000000  0.4991360000000 1.0
C      1  0.5549960000000  0.4998970000000  0.4991170000000 1.0
END
