TITL C-2782228-2999-1326 0.029979978882201 125000 -221.313027445669 0 0 39 (C1) n - 1
REM
REM in /home/nfs/bkarasulu/CARBON/AIRSS/Generating-Clusters/REBO/Higher-Symm/SD-CG/HFTN-CG
REM
REM
REM
REM
REM
REM ./C.cell (12c818d87b63d06a65506943cc24bca4)
REM
REM compiler GCC version 9.2.1 20190827 (Red Hat 9.2.1-1)
REM options -cpp -mtune=generic -march=x86-64 -g -O0 -fpre-include=/usr/include/finclude/math-vector-fortran.h
REM seed -1191671173 -1613476460 1905491961 1283168909 230323115 335942222 -304169414 -2003582316 276224670 -1957044146 2023541229 1196474126 -1998623254 -1613333133 703339890 1346030454 -413192462 278663892 788555443 -210402866 -1622450879 371917025 -1338986961 295472265 -814214047 -215190224 -2037113609 -1415783623 121992565 1121985937 1829151642 1003973941 -772925709
REM
CELL 1.54180   50.00000   50.00000   50.00000   90.00000   90.00000   90.00000
LATT -1
SFAC C  
C      1  0.5038160000000  0.4448840000000  0.5370840000000 1.0
C      1  0.4900990000000  0.5195890000000  0.4611860000000 1.0
C      1  0.4643220000000  0.5445550000000  0.5617350000000 1.0
C      1  0.5118070000000  0.5103880000000  0.4460820000000 1.0
C      1  0.4803000000000  0.4213970000000  0.4920670000000 1.0
C      1  0.4493860000000  0.5510220000000  0.5355010000000 1.0
C      1  0.5466230000000  0.5279740000000  0.5333470000000 1.0
C      1  0.5765650000000  0.4340790000000  0.4230560000000 1.0
C      1  0.5045050000000  0.4557500000000  0.4895810000000 1.0
C      1  0.5133730000000  0.4423340000000  0.4625180000000 1.0
C      1  0.5377680000000  0.5121510000000  0.5562730000000 1.0
C      1  0.5384460000000  0.5555820000000  0.5344160000000 1.0
C      1  0.5461170000000  0.4749740000000  0.4779320000000 1.0
C      1  0.4725830000000  0.5437650000000  0.4475500000000 1.0
C      1  0.5618740000000  0.4968760000000  0.4905900000000 1.0
C      1  0.4935520000000  0.5750340000000  0.5226030000000 1.0
C      1  0.5118970000000  0.5635540000000  0.5409950000000 1.0
C      1  0.4640230000000  0.4498960000000  0.4562120000000 1.0
C      1  0.5452740000000  0.5148320000000  0.5075080000000 1.0
C      1  0.4726210000000  0.5281410000000  0.5094010000000 1.0
C      1  0.5410700000000  0.4527770000000  0.4591770000000 1.0
C      1  0.4701020000000  0.5609600000000  0.5154150000000 1.0
C      1  0.4435310000000  0.4976620000000  0.4813950000000 1.0
C      1  0.4596930000000  0.5066240000000  0.4538780000000 1.0
C      1  0.4790800000000  0.5246510000000  0.5398340000000 1.0
C      1  0.5198730000000  0.5264310000000  0.5736360000000 1.0
C      1  0.4841010000000  0.4316570000000  0.4651170000000 1.0
C      1  0.5593330000000  0.4431560000000  0.4405910000000 1.0
C      1  0.4482120000000  0.5342540000000  0.4381670000000 1.0
C      1  0.5204770000000  0.4617030000000  0.5501030000000 1.0
C      1  0.4949260000000  0.5205010000000  0.4910280000000 1.0
C      1  0.4320830000000  0.5310850000000  0.5237630000000 1.0
C      1  0.5344170000000  0.4841910000000  0.5550680000000 1.0
C      1  0.4938000000000  0.4388360000000  0.5117850000000 1.0
C      1  0.4447260000000  0.5146450000000  0.5026380000000 1.0
C      1  0.5201150000000  0.4792760000000  0.4919050000000 1.0
C      1  0.4535620000000  0.4748870000000  0.4604350000000 1.0
C      1  0.4983130000000  0.5434740000000  0.5598480000000 1.0
C      1  0.5176370000000  0.5064500000000  0.5005790000000 1.0
END
