TITL C-2782238-9940-1300 0.00356974197145819 125000 -884.753368633514 0 0 151 (C1) n - 1
REM
REM in /home/nfs/bkarasulu/CARBON/AIRSS/Generating-Clusters/REBO/Higher-Symm/SD-CG/HFTN-CG
REM
REM
REM
REM
REM
REM ./C.cell (12c818d87b63d06a65506943cc24bca4)
REM
REM compiler GCC version 9.2.1 20190827 (Red Hat 9.2.1-1)
REM options -cpp -mtune=generic -march=x86-64 -g -O0 -fpre-include=/usr/include/finclude/math-vector-fortran.h
REM seed 1056141328 1593043899 95946970 -1335769835 -440009740 -446418702 -860840940 -1469068857 -683737234 -1537085404 -948940114 765098715 -906799925 2072446239 1287662410 1767364173 -222807307 2013118728 -1879209376 666846132 1724085713 567737577 1413778487 -697572454 1553135844 -1358512685 448559076 2105104442 1709571224 -976218014 -874568296 1576469431 1115661476
REM
CELL 1.54180   50.00000   50.00000   50.00000   90.00000   90.00000   90.00000
LATT -1
SFAC C  
C      1  0.4957440000000  0.5542730000000  0.4813060000000 1.0
C      1  0.5014410000000  0.5543910000000  0.5208690000000 1.0
C      1  0.5028830000000  0.4418380000000  0.4797450000000 1.0
C      1  0.4975820000000  0.4437100000000  0.5192230000000 1.0
C      1  0.4739960000000  0.5554150000000  0.5054040000000 1.0
C      1  0.5237170000000  0.5566580000000  0.4974460000000 1.0
C      1  0.4749990000000  0.4429700000000  0.4955100000000 1.0
C      1  0.5255440000000  0.4426940000000  0.5024770000000 1.0
C      1  0.5254690000000  0.5248440000000  0.5056420000000 1.0
C      1  0.4681090000000  0.5278840000000  0.4928510000000 1.0
C      1  0.4712030000000  0.4736420000000  0.5015950000000 1.0
C      1  0.5367370000000  0.4732190000000  0.5017640000000 1.0
C      1  0.5065320000000  0.5259040000000  0.5321470000000 1.0
C      1  0.4899190000000  0.5273240000000  0.4667360000000 1.0
C      1  0.5036180000000  0.4708130000000  0.4667850000000 1.0
C      1  0.5005790000000  0.4733220000000  0.5319650000000 1.0
C      1  0.5741780000000  0.4472060000000  0.5496690000000 1.0
C      1  0.4291210000000  0.4461960000000  0.4436840000000 1.0
C      1  0.4298040000000  0.5450370000000  0.5609310000000 1.0
C      1  0.5741780000000  0.5487900000000  0.4504470000000 1.0
C      1  0.5501840000000  0.4423520000000  0.5712560000000 1.0
C      1  0.4517240000000  0.4423080000000  0.4199430000000 1.0
C      1  0.5514690000000  0.5542250000000  0.4292460000000 1.0
C      1  0.4518680000000  0.5531030000000  0.5821250000000 1.0
C      1  0.5086960000000  0.5916560000000  0.5324320000000 1.0
C      1  0.4905770000000  0.5916030000000  0.4685900000000 1.0
C      1  0.4891520000000  0.4065010000000  0.5303180000000 1.0
C      1  0.5030630000000  0.4041920000000  0.4667030000000 1.0
C      1  0.5299120000000  0.5950030000000  0.5062390000000 1.0
C      1  0.4642840000000  0.5906850000000  0.4901980000000 1.0
C      1  0.5276050000000  0.4050050000000  0.4896800000000 1.0
C      1  0.4632080000000  0.4074000000000  0.5081540000000 1.0
C      1  0.4560520000000  0.4716440000000  0.5294500000000 1.0
C      1  0.5510570000000  0.4623170000000  0.4745800000000 1.0
C      1  0.5440680000000  0.5406660000000  0.5278470000000 1.0
C      1  0.4477180000000  0.5321760000000  0.4671100000000 1.0
C      1  0.5303910000000  0.4656950000000  0.4476270000000 1.0
C      1  0.4760310000000  0.4650260000000  0.5528640000000 1.0
C      1  0.5283960000000  0.5382670000000  0.5571410000000 1.0
C      1  0.4686220000000  0.5345000000000  0.4405210000000 1.0
C      1  0.4413640000000  0.5734840000000  0.4714960000000 1.0
C      1  0.5486190000000  0.5802980000000  0.5290150000000 1.0
C      1  0.5529170000000  0.4224070000000  0.4749390000000 1.0
C      1  0.4416380000000  0.4259160000000  0.5271110000000 1.0
C      1  0.4679620000000  0.5771500000000  0.4503030000000 1.0
C      1  0.5288340000000  0.5782180000000  0.5563520000000 1.0
C      1  0.4685970000000  0.4248040000000  0.5483940000000 1.0
C      1  0.5287970000000  0.4170920000000  0.4515920000000 1.0
C      1  0.5589810000000  0.4932470000000  0.4206190000000 1.0
C      1  0.4463120000000  0.4989360000000  0.5814590000000 1.0
C      1  0.4431350000000  0.5045410000000  0.4151690000000 1.0
C      1  0.5592870000000  0.5010890000000  0.5804380000000 1.0
C      1  0.4233790000000  0.5004740000000  0.5581690000000 1.0
C      1  0.5820510000000  0.4974250000000  0.4438600000000 1.0
C      1  0.4184570000000  0.4992580000000  0.4379940000000 1.0
C      1  0.5861980000000  0.5094570000000  0.5612990000000 1.0
C      1  0.5639980000000  0.5185980000000  0.5141090000000 1.0
C      1  0.4348230000000  0.5079600000000  0.4842510000000 1.0
C      1  0.4351650000000  0.4886850000000  0.5096210000000 1.0
C      1  0.5667680000000  0.4959810000000  0.4889930000000 1.0
C      1  0.5142050000000  0.5100270000000  0.5678450000000 1.0
C      1  0.4857940000000  0.5073150000000  0.4323790000000 1.0
C      1  0.5148760000000  0.4923470000000  0.4351350000000 1.0
C      1  0.4880580000000  0.4923610000000  0.5673840000000 1.0
C      1  0.4025110000000  0.4848400000000  0.4644320000000 1.0
C      1  0.5978410000000  0.4901080000000  0.5353930000000 1.0
C      1  0.6000090000000  0.5089180000000  0.4628150000000 1.0
C      1  0.4070080000000  0.5158040000000  0.5370290000000 1.0
C      1  0.4655080000000  0.4918010000000  0.4017750000000 1.0
C      1  0.5372140000000  0.4875460000000  0.5939470000000 1.0
C      1  0.4682650000000  0.5107820000000  0.5979750000000 1.0
C      1  0.5384000000000  0.5069760000000  0.4063210000000 1.0
C      1  0.3952900000000  0.5059640000000  0.4873100000000 1.0
C      1  0.6057420000000  0.5078420000000  0.5114990000000 1.0
C      1  0.6063960000000  0.4930130000000  0.4858050000000 1.0
C      1  0.3968210000000  0.4979770000000  0.5149320000000 1.0
C      1  0.4894580000000  0.5071750000000  0.3929250000000 1.0
C      1  0.5166860000000  0.5040790000000  0.6070830000000 1.0
C      1  0.4895650000000  0.4925820000000  0.6071290000000 1.0
C      1  0.5156610000000  0.4916500000000  0.3954860000000 1.0
C      1  0.4099930000000  0.4678140000000  0.5180060000000 1.0
C      1  0.5855640000000  0.4700680000000  0.4931880000000 1.0
C      1  0.5917580000000  0.5361410000000  0.5051180000000 1.0
C      1  0.4110680000000  0.5322480000000  0.4828970000000 1.0
C      1  0.5073990000000  0.4657560000000  0.4149380000000 1.0
C      1  0.4923200000000  0.4664230000000  0.5892690000000 1.0
C      1  0.5128670000000  0.5325660000000  0.5934950000000 1.0
C      1  0.4971000000000  0.5331700000000  0.4126340000000 1.0
C      1  0.4461620000000  0.5265500000000  0.5386110000000 1.0
C      1  0.5628890000000  0.5220740000000  0.4687510000000 1.0
C      1  0.5690790000000  0.4796660000000  0.5425700000000 1.0
C      1  0.4331120000000  0.4736370000000  0.4640750000000 1.0
C      1  0.5382250000000  0.5321590000000  0.4514020000000 1.0
C      1  0.4656180000000  0.5287140000000  0.5625660000000 1.0
C      1  0.5440860000000  0.4717850000000  0.5578840000000 1.0
C      1  0.4575230000000  0.4654500000000  0.4444050000000 1.0
C      1  0.5470400000000  0.4917910000000  0.5234950000000 1.0
C      1  0.4591130000000  0.4872600000000  0.4777220000000 1.0
C      1  0.4595190000000  0.5098350000000  0.5157320000000 1.0
C      1  0.5355020000000  0.5087340000000  0.4835270000000 1.0
C      1  0.5217130000000  0.4889500000000  0.5460830000000 1.0
C      1  0.4801950000000  0.4841100000000  0.4530740000000 1.0
C      1  0.5149440000000  0.5132420000000  0.4588460000000 1.0
C      1  0.4826970000000  0.5111500000000  0.5406740000000 1.0
C      1  0.5185110000000  0.5613780000000  0.4328840000000 1.0
C      1  0.4803930000000  0.5652590000000  0.5691190000000 1.0
C      1  0.4832990000000  0.4381330000000  0.4309110000000 1.0
C      1  0.5202480000000  0.4310840000000  0.5647580000000 1.0
C      1  0.4249790000000  0.5637390000000  0.5160860000000 1.0
C      1  0.5721790000000  0.5617870000000  0.4815510000000 1.0
C      1  0.4233650000000  0.4349740000000  0.4815760000000 1.0
C      1  0.5730580000000  0.4297160000000  0.5227560000000 1.0
C      1  0.5435980000000  0.5760830000000  0.4823320000000 1.0
C      1  0.4537580000000  0.5759110000000  0.5191240000000 1.0
C      1  0.4529420000000  0.4242340000000  0.4802110000000 1.0
C      1  0.5440000000000  0.4195010000000  0.5155930000000 1.0
C      1  0.4806860000000  0.5739890000000  0.5399270000000 1.0
C      1  0.5165980000000  0.5731450000000  0.4618970000000 1.0
C      1  0.4801550000000  0.4258040000000  0.4598890000000 1.0
C      1  0.5175860000000  0.4219930000000  0.5357440000000 1.0
C      1  0.5684650000000  0.5582860000000  0.5144630000000 1.0
C      1  0.4210720000000  0.5579800000000  0.4887400000000 1.0
C      1  0.4190980000000  0.4392430000000  0.5097710000000 1.0
C      1  0.5694400000000  0.4412960000000  0.4936480000000 1.0
C      1  0.5108230000000  0.5607960000000  0.5756210000000 1.0
C      1  0.4864820000000  0.5607670000000  0.4288610000000 1.0
C      1  0.5157870000000  0.4388210000000  0.4324240000000 1.0
C      1  0.4899980000000  0.4390920000000  0.5698920000000 1.0
C      1  0.5977820000000  0.5402720000000  0.4727950000000 1.0
C      1  0.4122510000000  0.5466930000000  0.5356430000000 1.0
C      1  0.4017850000000  0.4505880000000  0.4633210000000 1.0
C      1  0.5944460000000  0.4570680000000  0.5233670000000 1.0
C      1  0.4813630000000  0.5420470000000  0.5950530000000 1.0
C      1  0.5292930000000  0.5353870000000  0.4127060000000 1.0
C      1  0.4753070000000  0.4635080000000  0.4088350000000 1.0
C      1  0.5241800000000  0.4566080000000  0.5881620000000 1.0
C      1  0.4452570000000  0.5384830000000  0.4156730000000 1.0
C      1  0.5566320000000  0.5332660000000  0.5731390000000 1.0
C      1  0.5534090000000  0.4604720000000  0.4212640000000 1.0
C      1  0.4511280000000  0.4696620000000  0.5761060000000 1.0
C      1  0.4273030000000  0.5295680000000  0.4419520000000 1.0
C      1  0.5849560000000  0.5407840000000  0.5564830000000 1.0
C      1  0.4264840000000  0.4724490000000  0.5450000000000 1.0
C      1  0.5703160000000  0.4674260000000  0.4487620000000 1.0
C      1  0.4393390000000  0.5615720000000  0.4403460000000 1.0
C      1  0.5567220000000  0.4358930000000  0.4447440000000 1.0
C      1  0.5594680000000  0.5634030000000  0.5567380000000 1.0
C      1  0.4418870000000  0.4444900000000  0.5551670000000 1.0
C      1  0.4951250000000  0.3988750000000  0.4986900000000 1.0
C      1  0.4962370000000  0.5975420000000  0.5010730000000 1.0
C      1  0.5043010000000  0.4770820000000  0.4985890000000 1.0
END
