TITL C-2782235-7892-604 -0.00428970596323313 125000 -231.089825237474 0 0 40 (C1) n - 1
REM
REM in /home/nfs/bkarasulu/CARBON/AIRSS/Generating-Clusters/REBO/Higher-Symm/SD-CG/HFTN-CG
REM
REM
REM
REM
REM
REM ./C.cell (12c818d87b63d06a65506943cc24bca4)
REM
REM compiler GCC version 9.2.1 20190827 (Red Hat 9.2.1-1)
REM options -cpp -mtune=generic -march=x86-64 -g -O0 -fpre-include=/usr/include/finclude/math-vector-fortran.h
REM seed -2063788383 853748554 1514826264 69903906 234902173 -912457566 546963294 712606748 492559408 -1663187084 -1536247264 1842728704 140160509 -2025474878 566883393 2036177861 1411937292 -1933740594 1018706332 -669557243 -1937100640 209160237 -1633969829 445571652 1466179106 -86915300 -1057157096 -179741050 765860025 -1736932044 -1807745372 1507541481 -173150931
REM
CELL 1.54180   50.00000   50.00000   50.00000   90.00000   90.00000   90.00000
LATT -1
SFAC C  
C      1  0.4823210000000  0.5458220000000  0.5190850000000 1.0
C      1  0.5480320000000  0.4806910000000  0.5192780000000 1.0
C      1  0.4653450000000  0.4635650000000  0.5195710000000 1.0
C      1  0.4961440000000  0.5177100000000  0.5149490000000 1.0
C      1  0.5205760000000  0.4935920000000  0.5155020000000 1.0
C      1  0.4876720000000  0.4844800000000  0.5149430000000 1.0
C      1  0.4712260000000  0.5263420000000  0.5449630000000 1.0
C      1  0.5410460000000  0.5108880000000  0.5584030000000 1.0
C      1  0.4928180000000  0.4642410000000  0.5608780000000 1.0
C      1  0.4810130000000  0.5057910000000  0.4628060000000 1.0
C      1  0.5130570000000  0.5116630000000  0.4639810000000 1.0
C      1  0.5022200000000  0.4811450000000  0.4623420000000 1.0
C      1  0.5240040000000  0.5320340000000  0.5575330000000 1.0
C      1  0.5198530000000  0.4675210000000  0.5589980000000 1.0
C      1  0.4621320000000  0.5012070000000  0.5519550000000 1.0
C      1  0.5593990000000  0.4570390000000  0.4788450000000 1.0
C      1  0.4334480000000  0.4687790000000  0.4834120000000 1.0
C      1  0.5027110000000  0.5711230000000  0.4829090000000 1.0
C      1  0.4356730000000  0.4910650000000  0.4680950000000 1.0
C      1  0.5227870000000  0.5580370000000  0.4702040000000 1.0
C      1  0.5377050000000  0.4489220000000  0.4646870000000 1.0
C      1  0.4530230000000  0.4530890000000  0.4964280000000 1.0
C      1  0.4791280000000  0.5624600000000  0.4954790000000 1.0
C      1  0.5636110000000  0.4794770000000  0.4956270000000 1.0
C      1  0.4193840000000  0.5445820000000  0.4517100000000 1.0
C      1  0.5782450000000  0.5465980000000  0.4622500000000 1.0
C      1  0.4980640000000  0.4080440000000  0.4541610000000 1.0
C      1  0.5101310000000  0.4544760000000  0.4621610000000 1.0
C      1  0.4538440000000  0.5120960000000  0.4630510000000 1.0
C      1  0.5322570000000  0.5316700000000  0.4664330000000 1.0
C      1  0.5406830000000  0.4841370000000  0.5487300000000 1.0
C      1  0.4687860000000  0.4736040000000  0.5483900000000 1.0
C      1  0.4997410000000  0.5402340000000  0.5478000000000 1.0
C      1  0.4569580000000  0.5575950000000  0.4792630000000 1.0
C      1  0.5688810000000  0.5038680000000  0.4826000000000 1.0
C      1  0.4687920000000  0.4366370000000  0.4799150000000 1.0
C      1  0.4431890000000  0.5388270000000  0.4636000000000 1.0
C      1  0.5604780000000  0.5272770000000  0.4695780000000 1.0
C      1  0.4918230000000  0.4324740000000  0.4644380000000 1.0
C      1  0.5011020000000  0.4991260000000  0.5432400000000 1.0
END
