TITL C-2782240-8521-312 0.00412760372680927 125000 -535.513805231437 0 0 95 (C1) n - 1
REM
REM in /home/nfs/bkarasulu/CARBON/AIRSS/Generating-Clusters/REBO/Higher-Symm/SD-CG/HFTN-CG
REM
REM
REM
REM
REM
REM ./C.cell (12c818d87b63d06a65506943cc24bca4)
REM
REM compiler GCC version 9.2.1 20190827 (Red Hat 9.2.1-1)
REM options -cpp -mtune=generic -march=x86-64 -g -O0 -fpre-include=/usr/include/finclude/math-vector-fortran.h
REM seed -62251580 1232829183 -1234106730 630803362 -451330876 -1703963247 1517044597 591014732 1880351784 -237051200 -1179615006 -39363324 -1914304518 506173723 -803960248 -1163099301 -489440673 -68316268 -506663436 -232946134 1659297381 405619917 -739758048 -608303060 1457296160 -1600084167 1530974599 781642054 1610947376 -881623440 -2059861222 -1781945640 -739320774
REM
CELL 1.54180   50.00000   50.00000   50.00000   90.00000   90.00000   90.00000
LATT -1
SFAC C  
C      1  0.5378030000000  0.5370120000000  0.4583910000000 1.0
C      1  0.5181200000000  0.5371180000000  0.5554830000000 1.0
C      1  0.4417610000000  0.5335700000000  0.4893560000000 1.0
C      1  0.5513940000000  0.5609130000000  0.5009760000000 1.0
C      1  0.4779260000000  0.5669930000000  0.5445770000000 1.0
C      1  0.4701810000000  0.5652680000000  0.4574170000000 1.0
C      1  0.4488590000000  0.5625020000000  0.5054860000000 1.0
C      1  0.5231240000000  0.5669580000000  0.4543550000000 1.0
C      1  0.5309000000000  0.5649250000000  0.5408070000000 1.0
C      1  0.5498040000000  0.4936230000000  0.4820720000000 1.0
C      1  0.4872450000000  0.4933560000000  0.5522010000000 1.0
C      1  0.4615180000000  0.4910560000000  0.4641010000000 1.0
C      1  0.4762310000000  0.4551350000000  0.4400880000000 1.0
C      1  0.5725130000000  0.4515150000000  0.4953140000000 1.0
C      1  0.4602150000000  0.4609540000000  0.5583770000000 1.0
C      1  0.4444310000000  0.4698920000000  0.4799340000000 1.0
C      1  0.5392790000000  0.4721310000000  0.4618680000000 1.0
C      1  0.5108130000000  0.4741600000000  0.5628690000000 1.0
C      1  0.5631830000000  0.4746370000000  0.5186870000000 1.0
C      1  0.4383500000000  0.4857120000000  0.5509610000000 1.0
C      1  0.4838630000000  0.4819500000000  0.4198120000000 1.0
C      1  0.5352590000000  0.4667890000000  0.5321020000000 1.0
C      1  0.4532080000000  0.4697290000000  0.5248840000000 1.0
C      1  0.5038170000000  0.4744760000000  0.4444780000000 1.0
C      1  0.5726470000000  0.5159590000000  0.4583480000000 1.0
C      1  0.4989530000000  0.5232720000000  0.5892630000000 1.0
C      1  0.4244760000000  0.5155120000000  0.4580720000000 1.0
C      1  0.4412310000000  0.5387940000000  0.4498980000000 1.0
C      1  0.5729690000000  0.5372980000000  0.4771560000000 1.0
C      1  0.4849760000000  0.5446020000000  0.5765850000000 1.0
C      1  0.4849600000000  0.5374670000000  0.4683750000000 1.0
C      1  0.5370060000000  0.5312000000000  0.5078020000000 1.0
C      1  0.4773450000000  0.5374170000000  0.5280690000000 1.0
C      1  0.5026460000000  0.5184990000000  0.5372100000000 1.0
C      1  0.4662510000000  0.5169330000000  0.4832260000000 1.0
C      1  0.5310600000000  0.5180470000000  0.4807690000000 1.0
C      1  0.4388170000000  0.5185530000000  0.5601160000000 1.0
C      1  0.4746500000000  0.5147940000000  0.4168530000000 1.0
C      1  0.5713440000000  0.5082150000000  0.5195360000000 1.0
C      1  0.5524900000000  0.4366660000000  0.5122200000000 1.0
C      1  0.4647130000000  0.4350670000000  0.5407900000000 1.0
C      1  0.5031480000000  0.4351290000000  0.4493520000000 1.0
C      1  0.5155310000000  0.4585740000000  0.4820980000000 1.0
C      1  0.5169340000000  0.4447650000000  0.5481230000000 1.0
C      1  0.4559870000000  0.4399870000000  0.4803170000000 1.0
C      1  0.5397120000000  0.5062800000000  0.5286140000000 1.0
C      1  0.4651690000000  0.5070700000000  0.5303710000000 1.0
C      1  0.4864060000000  0.5098250000000  0.4494240000000 1.0
C      1  0.5521730000000  0.5167020000000  0.5579820000000 1.0
C      1  0.4329430000000  0.5093740000000  0.5196840000000 1.0
C      1  0.5165150000000  0.5159620000000  0.4322810000000 1.0
C      1  0.4855820000000  0.4985130000000  0.5917080000000 1.0
C      1  0.4271040000000  0.4891470000000  0.4443470000000 1.0
C      1  0.5776310000000  0.4825250000000  0.4631470000000 1.0
C      1  0.4753860000000  0.5748280000000  0.5142010000000 1.0
C      1  0.4976380000000  0.5752740000000  0.4708970000000 1.0
C      1  0.5243550000000  0.5751320000000  0.5120790000000 1.0
C      1  0.4220960000000  0.4516100000000  0.5075860000000 1.0
C      1  0.5448820000000  0.4498620000000  0.4143210000000 1.0
C      1  0.5696330000000  0.4332500000000  0.5635720000000 1.0
C      1  0.4172670000000  0.5130900000000  0.4894800000000 1.0
C      1  0.5505640000000  0.5196980000000  0.4346660000000 1.0
C      1  0.5292430000000  0.5227560000000  0.5823480000000 1.0
C      1  0.4425340000000  0.5633190000000  0.4731140000000 1.0
C      1  0.5536160000000  0.5641860000000  0.4691680000000 1.0
C      1  0.5046560000000  0.5673930000000  0.5609760000000 1.0
C      1  0.5558200000000  0.4411580000000  0.5417220000000 1.0
C      1  0.4456450000000  0.4373960000000  0.5178480000000 1.0
C      1  0.5248770000000  0.4522050000000  0.4303520000000 1.0
C      1  0.4427900000000  0.5398850000000  0.5287830000000 1.0
C      1  0.5028910000000  0.5449470000000  0.4403440000000 1.0
C      1  0.5540060000000  0.5423630000000  0.5362910000000 1.0
C      1  0.4244860000000  0.4827530000000  0.5002830000000 1.0
C      1  0.5377970000000  0.4895050000000  0.4350950000000 1.0
C      1  0.5353640000000  0.4891750000000  0.5686770000000 1.0
C      1  0.5814110000000  0.4900060000000  0.4946140000000 1.0
C      1  0.4605360000000  0.4981400000000  0.5723300000000 1.0
C      1  0.4554840000000  0.4927540000000  0.4306810000000 1.0
C      1  0.4702590000000  0.4895350000000  0.5030970000000 1.0
C      1  0.5086430000000  0.4959270000000  0.4706850000000 1.0
C      1  0.5141860000000  0.4893670000000  0.5231490000000 1.0
C      1  0.4898390000000  0.4246450000000  0.5483690000000 1.0
C      1  0.4787360000000  0.4232490000000  0.4640780000000 1.0
C      1  0.5290690000000  0.4322870000000  0.4966740000000 1.0
C      1  0.5633490000000  0.4511180000000  0.4638910000000 1.0
C      1  0.4827770000000  0.4662460000000  0.5810070000000 1.0
C      1  0.4433100000000  0.4591880000000  0.4478610000000 1.0
C      1  0.4698310000000  0.5426600000000  0.4318750000000 1.0
C      1  0.5759680000000  0.5387330000000  0.5103880000000 1.0
C      1  0.4553420000000  0.5465650000000  0.5599890000000 1.0
C      1  0.5341450000000  0.4328240000000  0.4636870000000 1.0
C      1  0.4995130000000  0.4385150000000  0.5764670000000 1.0
C      1  0.4499450000000  0.4265400000000  0.4504940000000 1.0
C      1  0.4992670000000  0.5777820000000  0.4991180000000 1.0
C      1  0.4992130000000  0.4812820000000  0.4980110000000 1.0
END
