TITL C-2782235-7892-1087 -0.00375941437744804 125000 -956.23778729906 0 0 171 (C1) n - 1
REM
REM in /home/nfs/bkarasulu/CARBON/AIRSS/Generating-Clusters/REBO/Higher-Symm/SD-CG/HFTN-CG
REM
REM
REM
REM
REM
REM ./C.cell (12c818d87b63d06a65506943cc24bca4)
REM
REM compiler GCC version 9.2.1 20190827 (Red Hat 9.2.1-1)
REM options -cpp -mtune=generic -march=x86-64 -g -O0 -fpre-include=/usr/include/finclude/math-vector-fortran.h
REM seed -1600506120 -321350356 377710750 -2088446284 1958815158 -1602814171 1573358335 -835002931 -342998425 344773225 -1613012159 -769186741 -1442308923 559155662 -2143841628 1516528733 -251908505 -1900258753 1407594964 -1582504983 1993340904 1241296538 1781877041 107795365 -908717612 1175550718 435250845 -1024254798 2080766717 330486702 22712421 950073532 456317762
REM
CELL 1.54180   50.00000   50.00000   50.00000   90.00000   90.00000   90.00000
LATT -1
SFAC C  
C      1  0.4688180000000  0.4794020000000  0.6001660000000 1.0
C      1  0.4393840000000  0.4788710000000  0.4256650000000 1.0
C      1  0.5998110000000  0.4820180000000  0.4802060000000 1.0
C      1  0.4687320000000  0.5132460000000  0.5965010000000 1.0
C      1  0.4347370000000  0.5125350000000  0.4241090000000 1.0
C      1  0.5994350000000  0.5161700000000  0.4796190000000 1.0
C      1  0.4696350000000  0.4788120000000  0.4099120000000 1.0
C      1  0.4425460000000  0.4814280000000  0.5782140000000 1.0
C      1  0.5943270000000  0.4776350000000  0.5136270000000 1.0
C      1  0.4664170000000  0.5127030000000  0.4107290000000 1.0
C      1  0.4415340000000  0.5149220000000  0.5759330000000 1.0
C      1  0.5942130000000  0.5114580000000  0.5129790000000 1.0
C      1  0.5201620000000  0.6005340000000  0.5199890000000 1.0
C      1  0.4708410000000  0.6001880000000  0.5093140000000 1.0
C      1  0.5035850000000  0.6078110000000  0.4687350000000 1.0
C      1  0.5200890000000  0.4024010000000  0.5204480000000 1.0
C      1  0.4678590000000  0.3984360000000  0.5091400000000 1.0
C      1  0.5042200000000  0.3986180000000  0.4691290000000 1.0
C      1  0.5260900000000  0.5968420000000  0.4883820000000 1.0
C      1  0.4736740000000  0.6054810000000  0.4794810000000 1.0
C      1  0.4930110000000  0.6063990000000  0.5324630000000 1.0
C      1  0.5267050000000  0.4062230000000  0.4896700000000 1.0
C      1  0.4726280000000  0.3932640000000  0.4785740000000 1.0
C      1  0.4916350000000  0.4005360000000  0.5311810000000 1.0
C      1  0.5247650000000  0.5625400000000  0.4847280000000 1.0
C      1  0.4927090000000  0.5726020000000  0.5280830000000 1.0
C      1  0.4678030000000  0.5714480000000  0.4817790000000 1.0
C      1  0.5326600000000  0.4399730000000  0.4858230000000 1.0
C      1  0.4991600000000  0.4343330000000  0.5317300000000 1.0
C      1  0.4786200000000  0.4260860000000  0.4823300000000 1.0
C      1  0.5224440000000  0.5665410000000  0.5161010000000 1.0
C      1  0.4975090000000  0.5742860000000  0.4725150000000 1.0
C      1  0.4643880000000  0.5666870000000  0.5140200000000 1.0
C      1  0.5276510000000  0.4359700000000  0.5162550000000 1.0
C      1  0.5061610000000  0.4332740000000  0.4688910000000 1.0
C      1  0.4739030000000  0.4318250000000  0.5139210000000 1.0
C      1  0.4813490000000  0.5925700000000  0.5607070000000 1.0
C      1  0.4530440000000  0.5971320000000  0.4551120000000 1.0
C      1  0.5569630000000  0.5860670000000  0.4839440000000 1.0
C      1  0.4800750000000  0.4129390000000  0.5595560000000 1.0
C      1  0.4553240000000  0.4097050000000  0.4545210000000 1.0
C      1  0.5594960000000  0.4105900000000  0.4860560000000 1.0
C      1  0.4847060000000  0.5964570000000  0.4421760000000 1.0
C      1  0.4550060000000  0.5960820000000  0.5391570000000 1.0
C      1  0.5530960000000  0.5919220000000  0.5173920000000 1.0
C      1  0.4872780000000  0.4107280000000  0.4420970000000 1.0
C      1  0.4532680000000  0.4085410000000  0.5386310000000 1.0
C      1  0.5539550000000  0.4066180000000  0.5197680000000 1.0
C      1  0.4996920000000  0.5178050000000  0.4034700000000 1.0
C      1  0.5823470000000  0.5180040000000  0.5442800000000 1.0
C      1  0.4195230000000  0.5208570000000  0.5512390000000 1.0
C      1  0.5016400000000  0.4838450000000  0.3985550000000 1.0
C      1  0.5815430000000  0.4835780000000  0.5447900000000 1.0
C      1  0.4211600000000  0.4864130000000  0.5514180000000 1.0
C      1  0.5023930000000  0.5184370000000  0.5978860000000 1.0
C      1  0.5843760000000  0.5162520000000  0.4489560000000 1.0
C      1  0.4187590000000  0.5200380000000  0.4532810000000 1.0
C      1  0.5027860000000  0.4844640000000  0.6026510000000 1.0
C      1  0.5855210000000  0.4820130000000  0.4489850000000 1.0
C      1  0.4230000000000  0.4859800000000  0.4550030000000 1.0
C      1  0.4764450000000  0.4427200000000  0.5740750000000 1.0
C      1  0.4487640000000  0.4392440000000  0.4422750000000 1.0
C      1  0.5755280000000  0.4385600000000  0.4823270000000 1.0
C      1  0.4793680000000  0.5611080000000  0.5719650000000 1.0
C      1  0.4505970000000  0.5665760000000  0.4431050000000 1.0
C      1  0.5751120000000  0.5589770000000  0.4830940000000 1.0
C      1  0.4797100000000  0.4410500000000  0.4283300000000 1.0
C      1  0.4473370000000  0.4354560000000  0.5578700000000 1.0
C      1  0.5703060000000  0.4349320000000  0.5159110000000 1.0
C      1  0.4823990000000  0.5641720000000  0.4309720000000 1.0
C      1  0.4503420000000  0.5678390000000  0.5562940000000 1.0
C      1  0.5723920000000  0.5644460000000  0.5138060000000 1.0
C      1  0.4811830000000  0.4862660000000  0.5698890000000 1.0
C      1  0.4627800000000  0.4741400000000  0.4490380000000 1.0
C      1  0.5665750000000  0.4714360000000  0.4821520000000 1.0
C      1  0.4797600000000  0.5193690000000  0.5653980000000 1.0
C      1  0.4558720000000  0.5070470000000  0.4487340000000 1.0
C      1  0.5680510000000  0.5058820000000  0.4834220000000 1.0
C      1  0.4893320000000  0.4907860000000  0.4350400000000 1.0
C      1  0.4577980000000  0.4714160000000  0.5499670000000 1.0
C      1  0.5605590000000  0.4676310000000  0.5149920000000 1.0
C      1  0.4826730000000  0.5230080000000  0.4385920000000 1.0
C      1  0.4557320000000  0.5052980000000  0.5464320000000 1.0
C      1  0.5617080000000  0.5014230000000  0.5151060000000 1.0
C      1  0.4287800000000  0.4789570000000  0.5187810000000 1.0
C      1  0.5241530000000  0.4758090000000  0.4228470000000 1.0
C      1  0.5520060000000  0.4757090000000  0.5599120000000 1.0
C      1  0.4153880000000  0.5281120000000  0.5189600000000 1.0
C      1  0.5209360000000  0.5275470000000  0.4288110000000 1.0
C      1  0.5509720000000  0.5245170000000  0.5560340000000 1.0
C      1  0.4349890000000  0.4754580000000  0.4854480000000 1.0
C      1  0.5225240000000  0.4754400000000  0.5762430000000 1.0
C      1  0.5544220000000  0.4757670000000  0.4364840000000 1.0
C      1  0.4213600000000  0.5287110000000  0.4855380000000 1.0
C      1  0.5202440000000  0.5263450000000  0.5696750000000 1.0
C      1  0.5524060000000  0.5240560000000  0.4399340000000 1.0
C      1  0.5743010000000  0.4864780000000  0.4109570000000 1.0
C      1  0.5446000000000  0.4902350000000  0.5960780000000 1.0
C      1  0.4027610000000  0.4792500000000  0.4886760000000 1.0
C      1  0.5705680000000  0.5175780000000  0.4118620000000 1.0
C      1  0.5416800000000  0.5207870000000  0.5945010000000 1.0
C      1  0.3954540000000  0.5088720000000  0.4906310000000 1.0
C      1  0.5742600000000  0.4852930000000  0.5838590000000 1.0
C      1  0.5436010000000  0.4905010000000  0.4012170000000 1.0
C      1  0.3949380000000  0.4823200000000  0.5202030000000 1.0
C      1  0.5712010000000  0.5163280000000  0.5822200000000 1.0
C      1  0.5394820000000  0.5208200000000  0.4024270000000 1.0
C      1  0.3861930000000  0.5121700000000  0.5215080000000 1.0
C      1  0.4186460000000  0.4390280000000  0.4841490000000 1.0
C      1  0.5554590000000  0.4342970000000  0.4354810000000 1.0
C      1  0.5269970000000  0.4357710000000  0.5805710000000 1.0
C      1  0.4193610000000  0.5682570000000  0.4852970000000 1.0
C      1  0.5594690000000  0.5631460000000  0.4374410000000 1.0
C      1  0.5274570000000  0.5648160000000  0.5778400000000 1.0
C      1  0.4145660000000  0.4405530000000  0.5183250000000 1.0
C      1  0.5574740000000  0.4365480000000  0.5649840000000 1.0
C      1  0.5273830000000  0.4366440000000  0.4160100000000 1.0
C      1  0.4162030000000  0.5675090000000  0.5195830000000 1.0
C      1  0.5575370000000  0.5635060000000  0.5613150000000 1.0
C      1  0.5301010000000  0.5654460000000  0.4200650000000 1.0
C      1  0.4258190000000  0.5542640000000  0.5466220000000 1.0
C      1  0.5021710000000  0.5518840000000  0.4062070000000 1.0
C      1  0.5752870000000  0.5511400000000  0.5398060000000 1.0
C      1  0.4229590000000  0.4522120000000  0.5469110000000 1.0
C      1  0.5014410000000  0.4500530000000  0.4047790000000 1.0
C      1  0.5774950000000  0.4493430000000  0.5459510000000 1.0
C      1  0.4254140000000  0.5535940000000  0.4552160000000 1.0
C      1  0.5030360000000  0.5522710000000  0.5929830000000 1.0
C      1  0.5782420000000  0.5490500000000  0.4564980000000 1.0
C      1  0.4248600000000  0.4517890000000  0.4557300000000 1.0
C      1  0.5009830000000  0.4507960000000  0.5957620000000 1.0
C      1  0.5779030000000  0.4486170000000  0.4513860000000 1.0
C      1  0.4630310000000  0.5182280000000  0.5204250000000 1.0
C      1  0.4960430000000  0.5265860000000  0.4681750000000 1.0
C      1  0.5368920000000  0.5194460000000  0.5189630000000 1.0
C      1  0.4695950000000  0.4789100000000  0.5197930000000 1.0
C      1  0.4990710000000  0.4817660000000  0.4637780000000 1.0
C      1  0.5268570000000  0.4757900000000  0.5152450000000 1.0
C      1  0.4665520000000  0.5202890000000  0.4748650000000 1.0
C      1  0.4899000000000  0.5223850000000  0.5346400000000 1.0
C      1  0.5411380000000  0.5206710000000  0.4869550000000 1.0
C      1  0.4744830000000  0.4757800000000  0.4802180000000 1.0
C      1  0.4939890000000  0.4828370000000  0.5385590000000 1.0
C      1  0.5330030000000  0.4797120000000  0.4846540000000 1.0
C      1  0.5432810000000  0.5876840000000  0.5493750000000 1.0
C      1  0.4322790000000  0.5928360000000  0.5139520000000 1.0
C      1  0.5174190000000  0.5884820000000  0.4373410000000 1.0
C      1  0.5423810000000  0.4136620000000  0.5511160000000 1.0
C      1  0.4323290000000  0.4154900000000  0.5130920000000 1.0
C      1  0.5207840000000  0.4146310000000  0.4367810000000 1.0
C      1  0.5429650000000  0.5842100000000  0.4529580000000 1.0
C      1  0.4352850000000  0.5956560000000  0.4832930000000 1.0
C      1  0.5152320000000  0.5896150000000  0.5611420000000 1.0
C      1  0.5454720000000  0.4109850000000  0.4549780000000 1.0
C      1  0.4377740000000  0.4129170000000  0.4830950000000 1.0
C      1  0.5137870000000  0.4128370000000  0.5620870000000 1.0
C      1  0.5328190000000  0.4575630000000  0.5416680000000 1.0
C      1  0.4515680000000  0.4539670000000  0.5146680000000 1.0
C      1  0.5062190000000  0.4556950000000  0.4440460000000 1.0
C      1  0.5340840000000  0.5452250000000  0.5348760000000 1.0
C      1  0.4455810000000  0.5410510000000  0.5146880000000 1.0
C      1  0.5080670000000  0.5513780000000  0.4501420000000 1.0
C      1  0.5364110000000  0.4603100000000  0.4588070000000 1.0
C      1  0.4569820000000  0.4494730000000  0.4824580000000 1.0
C      1  0.5025300000000  0.4556270000000  0.5561570000000 1.0
C      1  0.5385730000000  0.5428230000000  0.4646630000000 1.0
C      1  0.4514250000000  0.5445560000000  0.4835650000000 1.0
C      1  0.5026770000000  0.5484440000000  0.5502150000000 1.0
C      1  0.5131660000000  0.5028840000000  0.5256340000000 1.0
C      1  0.5160630000000  0.5053960000000  0.4756590000000 1.0
C      1  0.4663250000000  0.4997760000000  0.4967960000000 1.0
END
