TITL C-2782225-7408-173 0.000268550846518936 125000 -381.486508138565 0 0 65 (C1) n - 1
REM
REM in /home/nfs/bkarasulu/CARBON/AIRSS/Generating-Clusters/REBO/Higher-Symm/SD-CG/HFTN-CG
REM
REM
REM
REM
REM
REM ./C.cell (12c818d87b63d06a65506943cc24bca4)
REM
REM compiler GCC version 9.2.1 20190827 (Red Hat 9.2.1-1)
REM options -cpp -mtune=generic -march=x86-64 -g -O0 -fpre-include=/usr/include/finclude/math-vector-fortran.h
REM seed -143093625 -633564049 730647966 837422612 -273152980 1970800671 -143054125 63934068 -1176065045 -2130618861 1239525633 -1638809524 1758751281 933696231 601711247 -578752170 -1721703861 1357075375 1354771993 1170783678 204301217 578841210 891709553 -1056445976 -1736937583 -1433284225 368513956 928204111 -693197940 732105288 1548193436 755491154 1629852038
REM
CELL 1.54180   50.00000   50.00000   50.00000   90.00000   90.00000   90.00000
LATT -1
SFAC C  
C      1  0.4673960000000  0.5367050000000  0.4302130000000 1.0
C      1  0.4566020000000  0.4391180000000  0.4417310000000 1.0
C      1  0.4564280000000  0.4247100000000  0.5390800000000 1.0
C      1  0.4648420000000  0.5105420000000  0.5779350000000 1.0
C      1  0.4578330000000  0.5845860000000  0.5120940000000 1.0
C      1  0.4910400000000  0.5511230000000  0.4388240000000 1.0
C      1  0.4847630000000  0.4555700000000  0.4358370000000 1.0
C      1  0.4847660000000  0.4250280000000  0.5218960000000 1.0
C      1  0.4882510000000  0.4938710000000  0.5802590000000 1.0
C      1  0.4857510000000  0.5731780000000  0.5258960000000 1.0
C      1  0.5143660000000  0.4512720000000  0.4523500000000 1.0
C      1  0.5142630000000  0.4400060000000  0.5302750000000 1.0
C      1  0.5142020000000  0.5095660000000  0.5653590000000 1.0
C      1  0.5154210000000  0.5659340000000  0.5110360000000 1.0
C      1  0.5165960000000  0.5311230000000  0.4412010000000 1.0
C      1  0.4710640000000  0.5101210000000  0.4742270000000 1.0
C      1  0.4735560000000  0.4793170000000  0.4829330000000 1.0
C      1  0.4715940000000  0.4769440000000  0.5145560000000 1.0
C      1  0.4698650000000  0.5067670000000  0.5271300000000 1.0
C      1  0.4701250000000  0.5270950000000  0.5017150000000 1.0
C      1  0.5381000000000  0.4276570000000  0.4886890000000 1.0
C      1  0.5385870000000  0.4668690000000  0.5646390000000 1.0
C      1  0.5363680000000  0.5517820000000  0.5520610000000 1.0
C      1  0.5388480000000  0.5661660000000  0.4666070000000 1.0
C      1  0.5371200000000  0.4880200000000  0.4275460000000 1.0
C      1  0.5166050000000  0.4518890000000  0.5580670000000 1.0
C      1  0.5139230000000  0.5396140000000  0.5621270000000 1.0
C      1  0.5169120000000  0.5718300000000  0.4821880000000 1.0
C      1  0.5150550000000  0.5044170000000  0.4278960000000 1.0
C      1  0.5156750000000  0.4294450000000  0.4730820000000 1.0
C      1  0.4984140000000  0.4586830000000  0.5064550000000 1.0
C      1  0.4961830000000  0.4929820000000  0.5415860000000 1.0
C      1  0.4960500000000  0.5361680000000  0.5206250000000 1.0
C      1  0.4960210000000  0.5310330000000  0.4716810000000 1.0
C      1  0.4998280000000  0.4802660000000  0.4625910000000 1.0
C      1  0.4363330000000  0.4115530000000  0.5479710000000 1.0
C      1  0.4452640000000  0.5125000000000  0.5965500000000 1.0
C      1  0.4384260000000  0.6012950000000  0.5125110000000 1.0
C      1  0.4488710000000  0.5464710000000  0.4130220000000 1.0
C      1  0.4363420000000  0.4263970000000  0.4325800000000 1.0
C      1  0.5400380000000  0.4430180000000  0.5114730000000 1.0
C      1  0.5403060000000  0.4935400000000  0.5577690000000 1.0
C      1  0.5400960000000  0.5546720000000  0.5248250000000 1.0
C      1  0.5422920000000  0.5410050000000  0.4552560000000 1.0
C      1  0.5408870000000  0.4700170000000  0.4482660000000 1.0
C      1  0.4653970000000  0.5249230000000  0.5529530000000 1.0
C      1  0.4729660000000  0.5587780000000  0.4971930000000 1.0
C      1  0.4664020000000  0.5107210000000  0.4425360000000 1.0
C      1  0.4733480000000  0.4508780000000  0.4681410000000 1.0
C      1  0.4726620000000  0.4537920000000  0.5366010000000 1.0
C      1  0.4873470000000  0.4894250000000  0.4328600000000 1.0
C      1  0.4884270000000  0.4315540000000  0.4887070000000 1.0
C      1  0.4891400000000  0.4663350000000  0.5604340000000 1.0
C      1  0.4862170000000  0.5490090000000  0.5498260000000 1.0
C      1  0.4893230000000  0.5635520000000  0.4699950000000 1.0
C      1  0.5223490000000  0.5236720000000  0.4849680000000 1.0
C      1  0.5231320000000  0.4958890000000  0.4727800000000 1.0
C      1  0.5215250000000  0.4747530000000  0.4958050000000 1.0
C      1  0.5204920000000  0.4907510000000  0.5231830000000 1.0
C      1  0.5210890000000  0.5209110000000  0.5155190000000 1.0
C      1  0.5553430000000  0.5189200000000  0.4768120000000 1.0
C      1  0.5545300000000  0.4847730000000  0.4756680000000 1.0
C      1  0.5528660000000  0.4731870000000  0.5076320000000 1.0
C      1  0.5526470000000  0.4999870000000  0.5282860000000 1.0
C      1  0.5535320000000  0.5283270000000  0.5094980000000 1.0
END
