TITL C-2782226-7400-457 -0.00311870036269088 125000 -252.814875467597 0 0 45 (C1) n - 1
REM
REM in /home/nfs/bkarasulu/CARBON/AIRSS/Generating-Clusters/REBO/Higher-Symm/SD-CG/HFTN-CG
REM
REM
REM
REM
REM
REM ./C.cell (12c818d87b63d06a65506943cc24bca4)
REM
REM compiler GCC version 9.2.1 20190827 (Red Hat 9.2.1-1)
REM options -cpp -mtune=generic -march=x86-64 -g -O0 -fpre-include=/usr/include/finclude/math-vector-fortran.h
REM seed -533383875 -1057801046 -421721833 -2118748390 -1237837982 439817380 552747899 55263937 -1976180396 -1672275596 -1747508221 -572929416 731695968 -1551651237 -1094299114 1578136139 1134726870 1445402212 -371273482 -1480789560 -2034110907 1266662104 -2016403100 -2047555596 -326066168 1672274770 -1434224825 2070378123 1151420772 1309438536 -1256141527 -1134094708 -1618610332
REM
CELL 1.54180   50.00000   50.00000   50.00000   90.00000   90.00000   90.00000
LATT -1
SFAC C  
C      1  0.5446030000000  0.5175280000000  0.5445400000000 1.0
C      1  0.5455920000000  0.5345280000000  0.4673420000000 1.0
C      1  0.5456850000000  0.4532800000000  0.4907760000000 1.0
C      1  0.5405110000000  0.4883980000000  0.5416430000000 1.0
C      1  0.5419830000000  0.4676710000000  0.4648600000000 1.0
C      1  0.5480340000000  0.5494640000000  0.4931550000000 1.0
C      1  0.4621620000000  0.5356060000000  0.5496630000000 1.0
C      1  0.4644300000000  0.5223100000000  0.4435350000000 1.0
C      1  0.4625620000000  0.4429630000000  0.5063660000000 1.0
C      1  0.4606020000000  0.4651640000000  0.5484700000000 1.0
C      1  0.4612960000000  0.4748360000000  0.4425360000000 1.0
C      1  0.4648770000000  0.5575950000000  0.5073840000000 1.0
C      1  0.4551170000000  0.5572450000000  0.4812720000000 1.0
C      1  0.4492060000000  0.4536000000000  0.4562400000000 1.0
C      1  0.4494710000000  0.4868880000000  0.5620560000000 1.0
C      1  0.4522550000000  0.4419460000000  0.4805140000000 1.0
C      1  0.4546070000000  0.5443630000000  0.4575410000000 1.0
C      1  0.4500310000000  0.5139810000000  0.5625790000000 1.0
C      1  0.5048760000000  0.5114140000000  0.5637750000000 1.0
C      1  0.4945490000000  0.5448970000000  0.4593490000000 1.0
C      1  0.4991180000000  0.4383880000000  0.4815980000000 1.0
C      1  0.5045830000000  0.4864630000000  0.5630200000000 1.0
C      1  0.5007640000000  0.4496580000000  0.4594440000000 1.0
C      1  0.4950890000000  0.5563620000000  0.4812250000000 1.0
C      1  0.5560900000000  0.4681230000000  0.5517350000000 1.0
C      1  0.5633300000000  0.5677120000000  0.5059730000000 1.0
C      1  0.5574580000000  0.4665300000000  0.4422160000000 1.0
C      1  0.5610400000000  0.5359480000000  0.5555840000000 1.0
C      1  0.5620250000000  0.4358460000000  0.5034400000000 1.0
C      1  0.5617910000000  0.5358970000000  0.4452270000000 1.0
C      1  0.4951030000000  0.5472290000000  0.5130340000000 1.0
C      1  0.4907630000000  0.4777740000000  0.4484870000000 1.0
C      1  0.4902300000000  0.4674520000000  0.5411830000000 1.0
C      1  0.4930860000000  0.4522910000000  0.5111450000000 1.0
C      1  0.4945020000000  0.5138740000000  0.4492150000000 1.0
C      1  0.4918440000000  0.5322480000000  0.5426570000000 1.0
C      1  0.5172760000000  0.5168460000000  0.5262310000000 1.0
C      1  0.5199430000000  0.5160410000000  0.4701620000000 1.0
C      1  0.5182890000000  0.4699450000000  0.4967180000000 1.0
C      1  0.5141500000000  0.4835120000000  0.5243700000000 1.0
C      1  0.5155780000000  0.4857080000000  0.4681840000000 1.0
C      1  0.5212060000000  0.5316860000000  0.4986480000000 1.0
C      1  0.4476960000000  0.4476850000000  0.5302060000000 1.0
C      1  0.4498560000000  0.5535470000000  0.5313260000000 1.0
C      1  0.4496130000000  0.4995580000000  0.4353750000000 1.0
END
