TITL C-2782227-3064-552 0.000664001537851493 125000 -412.217630875441 0 0 73 (C1) n - 1
REM
REM in /home/nfs/bkarasulu/CARBON/AIRSS/Generating-Clusters/REBO/Higher-Symm/SD-CG/HFTN-CG
REM
REM
REM
REM
REM
REM ./C.cell (12c818d87b63d06a65506943cc24bca4)
REM
REM compiler GCC version 9.2.1 20190827 (Red Hat 9.2.1-1)
REM options -cpp -mtune=generic -march=x86-64 -g -O0 -fpre-include=/usr/include/finclude/math-vector-fortran.h
REM seed -1421789012 -752349658 1791282954 -167351357 1534698024 -1271102458 -896957007 -1231374618 410698984 -953554976 1593972837 580929152 1191472928 1733800853 703574903 -1344814127 1672450934 -171176861 -379980336 -721791203 -110206691 267125395 -517294732 -1143971934 657766043 -1550532631 261552282 663670005 1606322536 -308240474 -2086130274 -1160080117 -623023192
REM
CELL 1.54180   50.00000   50.00000   50.00000   90.00000   90.00000   90.00000
LATT -1
SFAC C  
C      1  0.5295350000000  0.4657180000000  0.4320150000000 1.0
C      1  0.5115330000000  0.5458560000000  0.4307420000000 1.0
C      1  0.4503270000000  0.4894890000000  0.4305810000000 1.0
C      1  0.5346060000000  0.4661970000000  0.5707390000000 1.0
C      1  0.5136880000000  0.5461090000000  0.5702060000000 1.0
C      1  0.4558370000000  0.4886190000000  0.5683490000000 1.0
C      1  0.5323240000000  0.4335910000000  0.5127550000000 1.0
C      1  0.5422910000000  0.5618160000000  0.5165800000000 1.0
C      1  0.4257000000000  0.5051240000000  0.5083600000000 1.0
C      1  0.5326830000000  0.4332450000000  0.4873720000000 1.0
C      1  0.5440920000000  0.5627540000000  0.4912920000000 1.0
C      1  0.4273460000000  0.5057540000000  0.4830320000000 1.0
C      1  0.4747320000000  0.5672880000000  0.5108670000000 1.0
C      1  0.4510190000000  0.4434680000000  0.5188050000000 1.0
C      1  0.5744030000000  0.4866140000000  0.5198440000000 1.0
C      1  0.4755620000000  0.5722510000000  0.4810970000000 1.0
C      1  0.4536010000000  0.4465180000000  0.4888910000000 1.0
C      1  0.5711030000000  0.4914160000000  0.4904000000000 1.0
C      1  0.5688060000000  0.5319960000000  0.5174260000000 1.0
C      1  0.4394070000000  0.5423680000000  0.5133550000000 1.0
C      1  0.4932160000000  0.4256410000000  0.5128270000000 1.0
C      1  0.5687370000000  0.5313230000000  0.4891650000000 1.0
C      1  0.4393560000000  0.5437660000000  0.4850160000000 1.0
C      1  0.4933050000000  0.4269540000000  0.4842810000000 1.0
C      1  0.5125010000000  0.5150710000000  0.5609480000000 1.0
C      1  0.4832460000000  0.5019440000000  0.5569610000000 1.0
C      1  0.5095130000000  0.4829990000000  0.5587010000000 1.0
C      1  0.5082020000000  0.5154370000000  0.4417670000000 1.0
C      1  0.4785340000000  0.5031770000000  0.4383160000000 1.0
C      1  0.5038730000000  0.4834240000000  0.4406830000000 1.0
C      1  0.5590530000000  0.5076680000000  0.4411490000000 1.0
C      1  0.4604500000000  0.5505120000000  0.4376610000000 1.0
C      1  0.4721970000000  0.4433270000000  0.4410750000000 1.0
C      1  0.5628030000000  0.5089670000000  0.5639280000000 1.0
C      1  0.4632710000000  0.5493820000000  0.5586570000000 1.0
C      1  0.4784690000000  0.4424590000000  0.5611910000000 1.0
C      1  0.5115870000000  0.4524340000000  0.4727640000000 1.0
C      1  0.5379110000000  0.5355800000000  0.4754210000000 1.0
C      1  0.4553120000000  0.5171400000000  0.4713970000000 1.0
C      1  0.5094760000000  0.4524710000000  0.5258370000000 1.0
C      1  0.5370650000000  0.5324890000000  0.5292680000000 1.0
C      1  0.4520960000000  0.5137020000000  0.5243570000000 1.0
C      1  0.4789410000000  0.4628460000000  0.5149880000000 1.0
C      1  0.5434630000000  0.5011880000000  0.5174350000000 1.0
C      1  0.4783050000000  0.5338950000000  0.5164810000000 1.0
C      1  0.4814960000000  0.4650640000000  0.4822310000000 1.0
C      1  0.5403100000000  0.5036290000000  0.4845840000000 1.0
C      1  0.4789110000000  0.5382830000000  0.4838220000000 1.0
C      1  0.4579580000000  0.5215480000000  0.5629370000000 1.0
C      1  0.5052930000000  0.4514410000000  0.5654200000000 1.0
C      1  0.5414570000000  0.5277570000000  0.5685920000000 1.0
C      1  0.4535610000000  0.5229850000000  0.4320890000000 1.0
C      1  0.4991490000000  0.4517230000000  0.4349010000000 1.0
C      1  0.5382460000000  0.5266710000000  0.4365630000000 1.0
C      1  0.4886260000000  0.5587520000000  0.5689930000000 1.0
C      1  0.4579560000000  0.4606250000000  0.5710050000000 1.0
C      1  0.5576890000000  0.4820660000000  0.5736300000000 1.0
C      1  0.4865970000000  0.5587250000000  0.4278650000000 1.0
C      1  0.4513590000000  0.4613740000000  0.4320160000000 1.0
C      1  0.5533680000000  0.4806700000000  0.4322910000000 1.0
C      1  0.5079560000000  0.5273370000000  0.4780620000000 1.0
C      1  0.4771050000000  0.4951370000000  0.4756440000000 1.0
C      1  0.5184240000000  0.4829150000000  0.4760030000000 1.0
C      1  0.5071540000000  0.5246320000000  0.5243460000000 1.0
C      1  0.4753190000000  0.4932840000000  0.5206140000000 1.0
C      1  0.5189280000000  0.4819300000000  0.5216950000000 1.0
C      1  0.4528420000000  0.5609800000000  0.4638020000000 1.0
C      1  0.4687380000000  0.4303820000000  0.4671000000000 1.0
C      1  0.5745920000000  0.5109890000000  0.4654450000000 1.0
C      1  0.4537940000000  0.5605880000000  0.5333130000000 1.0
C      1  0.4726930000000  0.4292930000000  0.5356740000000 1.0
C      1  0.5761990000000  0.5110540000000  0.5381560000000 1.0
C      1  0.5011780000000  0.5014430000000  0.4995710000000 1.0
END
