TITL C-2782228-2999-274 0.00124549383902995 125000 -749.245980574545 0 0 128 (C1) n - 1
REM
REM in /home/nfs/bkarasulu/CARBON/AIRSS/Generating-Clusters/REBO/Higher-Symm/SD-CG/HFTN-CG
REM
REM
REM
REM
REM
REM ./C.cell (12c818d87b63d06a65506943cc24bca4)
REM
REM compiler GCC version 9.2.1 20190827 (Red Hat 9.2.1-1)
REM options -cpp -mtune=generic -march=x86-64 -g -O0 -fpre-include=/usr/include/finclude/math-vector-fortran.h
REM seed 1509398453 1165928286 -400709086 -1498160667 -677464184 -223143364 1614139399 -275750299 -1718225477 1882325645 1160323330 -150059503 1767307310 432617188 -259215841 1295585092 406128552 -146378835 1042124975 2118581590 640544172 117185731 80465121 222788517 -477425616 -1505332146 1512647951 1301348318 -1280488002 -1199923898 1232762413 -627003449 -915216449
REM
CELL 1.54180   50.00000   50.00000   50.00000   90.00000   90.00000   90.00000
LATT -1
SFAC C  
C      1  0.4034300000000  0.4892340000000  0.4761520000000 1.0
C      1  0.4556180000000  0.5897220000000  0.4778280000000 1.0
C      1  0.5641120000000  0.5693740000000  0.4785120000000 1.0
C      1  0.5880730000000  0.4563130000000  0.4795240000000 1.0
C      1  0.4840130000000  0.4061060000000  0.4827500000000 1.0
C      1  0.4021850000000  0.5194780000000  0.5204920000000 1.0
C      1  0.4548120000000  0.4196690000000  0.5213150000000 1.0
C      1  0.5707770000000  0.4314770000000  0.5200340000000 1.0
C      1  0.5848390000000  0.5455830000000  0.5178850000000 1.0
C      1  0.4824780000000  0.5972710000000  0.5221260000000 1.0
C      1  0.4754150000000  0.4979150000000  0.6022610000000 1.0
C      1  0.4998520000000  0.5138930000000  0.6132660000000 1.0
C      1  0.5263120000000  0.5044080000000  0.5991260000000 1.0
C      1  0.5194220000000  0.4722340000000  0.5983640000000 1.0
C      1  0.4882030000000  0.4678450000000  0.6026320000000 1.0
C      1  0.4791670000000  0.4888690000000  0.4009910000000 1.0
C      1  0.5025200000000  0.4665150000000  0.4026170000000 1.0
C      1  0.5324590000000  0.4756510000000  0.3980150000000 1.0
C      1  0.5110040000000  0.5277890000000  0.4003590000000 1.0
C      1  0.4908290000000  0.5138140000000  0.3873480000000 1.0
C      1  0.5433310000000  0.4180950000000  0.5092270000000 1.0
C      1  0.4353490000000  0.4428070000000  0.5063150000000 1.0
C      1  0.4187700000000  0.5464730000000  0.5091740000000 1.0
C      1  0.5124040000000  0.5926650000000  0.5122560000000 1.0
C      1  0.5909620000000  0.5163630000000  0.5061400000000 1.0
C      1  0.5361690000000  0.5806880000000  0.4929680000000 1.0
C      1  0.4324090000000  0.5684000000000  0.4878140000000 1.0
C      1  0.4163930000000  0.4615990000000  0.4860070000000 1.0
C      1  0.5136780000000  0.4097200000000  0.4946190000000 1.0
C      1  0.5933350000000  0.4857710000000  0.4913540000000 1.0
C      1  0.5247840000000  0.5271690000000  0.5227420000000 1.0
C      1  0.5385310000000  0.4843370000000  0.5241580000000 1.0
C      1  0.4991310000000  0.4650140000000  0.5231720000000 1.0
C      1  0.4481950000000  0.4897910000000  0.5273050000000 1.0
C      1  0.4763090000000  0.5366250000000  0.5210460000000 1.0
C      1  0.5284810000000  0.4696820000000  0.4759470000000 1.0
C      1  0.5351000000000  0.5127070000000  0.4759830000000 1.0
C      1  0.4954260000000  0.5435470000000  0.4777030000000 1.0
C      1  0.4597960000000  0.5122270000000  0.4798060000000 1.0
C      1  0.4834140000000  0.4690850000000  0.4767400000000 1.0
C      1  0.4724820000000  0.5067690000000  0.5709650000000 1.0
C      1  0.4946990000000  0.5292350000000  0.5658240000000 1.0
C      1  0.5243200000000  0.5169800000000  0.5682780000000 1.0
C      1  0.5203160000000  0.4860030000000  0.5642770000000 1.0
C      1  0.4900880000000  0.4776510000000  0.5711900000000 1.0
C      1  0.4718860000000  0.4973770000000  0.4321740000000 1.0
C      1  0.4945240000000  0.4731750000000  0.4343150000000 1.0
C      1  0.5257510000000  0.4857190000000  0.4287160000000 1.0
C      1  0.5199380000000  0.5174260000000  0.4288420000000 1.0
C      1  0.4880530000000  0.5243640000000  0.4328990000000 1.0
C      1  0.4882340000000  0.5520580000000  0.5467610000000 1.0
C      1  0.5465760000000  0.5269030000000  0.5482710000000 1.0
C      1  0.5416560000000  0.4630000000000  0.5506060000000 1.0
C      1  0.4822130000000  0.4576630000000  0.5507550000000 1.0
C      1  0.4471880000000  0.5085660000000  0.5538350000000 1.0
C      1  0.4913210000000  0.4469340000000  0.4523890000000 1.0
C      1  0.5468960000000  0.4747370000000  0.4495010000000 1.0
C      1  0.5364000000000  0.5314740000000  0.4493060000000 1.0
C      1  0.4785630000000  0.5478880000000  0.4501820000000 1.0
C      1  0.4493310000000  0.4968180000000  0.4523430000000 1.0
C      1  0.5580330000000  0.5224660000000  0.4993540000000 1.0
C      1  0.5418150000000  0.4513020000000  0.5010260000000 1.0
C      1  0.4681040000000  0.4517480000000  0.5018210000000 1.0
C      1  0.4371790000000  0.5185180000000  0.5017880000000 1.0
C      1  0.4944590000000  0.5658540000000  0.5006830000000 1.0
C      1  0.5610900000000  0.4775720000000  0.4998220000000 1.0
C      1  0.5378800000000  0.5469530000000  0.4983820000000 1.0
C      1  0.4629420000000  0.5565790000000  0.4985110000000 1.0
C      1  0.4360450000000  0.4864650000000  0.4988450000000 1.0
C      1  0.4973720000000  0.4392540000000  0.5006420000000 1.0
C      1  0.4149560000000  0.5050810000000  0.5425370000000 1.0
C      1  0.4732550000000  0.5801200000000  0.5434450000000 1.0
C      1  0.5679560000000  0.5492150000000  0.5407840000000 1.0
C      1  0.5705020000000  0.4505090000000  0.5414170000000 1.0
C      1  0.4733440000000  0.4261650000000  0.5423490000000 1.0
C      1  0.4176690000000  0.5027880000000  0.4549650000000 1.0
C      1  0.4755730000000  0.4206930000000  0.4596520000000 1.0
C      1  0.5690170000000  0.4518320000000  0.4586770000000 1.0
C      1  0.5631750000000  0.5494960000000  0.4578350000000 1.0
C      1  0.4744270000000  0.5802480000000  0.4577300000000 1.0
C      1  0.4561410000000  0.5417440000000  0.4706480000000 1.0
C      1  0.5239540000000  0.5506570000000  0.4701710000000 1.0
C      1  0.5598500000000  0.4937550000000  0.4717660000000 1.0
C      1  0.5137830000000  0.4433650000000  0.4736660000000 1.0
C      1  0.4519310000000  0.4737590000000  0.4729390000000 1.0
C      1  0.4599780000000  0.4619330000000  0.5306660000000 1.0
C      1  0.5245550000000  0.4471320000000  0.5285910000000 1.0
C      1  0.5587810000000  0.5067460000000  0.5272300000000 1.0
C      1  0.5110550000000  0.5555950000000  0.5265210000000 1.0
C      1  0.4475640000000  0.5295650000000  0.5305110000000 1.0
C      1  0.4986030000000  0.5326080000000  0.6317020000000 1.0
C      1  0.5502180000000  0.5108720000000  0.6124070000000 1.0
C      1  0.5372690000000  0.4538490000000  0.5830910000000 1.0
C      1  0.4765350000000  0.4452270000000  0.6179130000000 1.0
C      1  0.4497150000000  0.5007770000000  0.6182610000000 1.0
C      1  0.4965250000000  0.4379080000000  0.4156370000000 1.0
C      1  0.5514290000000  0.4755090000000  0.3805760000000 1.0
C      1  0.5235630000000  0.5501820000000  0.3900520000000 1.0
C      1  0.4808240000000  0.5211690000000  0.3626080000000 1.0
C      1  0.4543830000000  0.4780510000000  0.3865430000000 1.0
C      1  0.5910760000000  0.4700860000000  0.5419860000000 1.0
C      1  0.4960930000000  0.4089110000000  0.5442960000000 1.0
C      1  0.4099880000000  0.4766280000000  0.5436700000000 1.0
C      1  0.4453100000000  0.5777290000000  0.5479000000000 1.0
C      1  0.5566000000000  0.5749350000000  0.5444060000000 1.0
C      1  0.5866470000000  0.5331910000000  0.4559440000000 1.0
C      1  0.4995980000000  0.5934510000000  0.4543670000000 1.0
C      1  0.4113350000000  0.5300240000000  0.4501230000000 1.0
C      1  0.4477810000000  0.4242590000000  0.4556080000000 1.0
C      1  0.5578090000000  0.4255510000000  0.4578790000000 1.0
C      1  0.4314690000000  0.5570290000000  0.5376320000000 1.0
C      1  0.5320270000000  0.5795510000000  0.5349910000000 1.0
C      1  0.5885820000000  0.4947140000000  0.5317170000000 1.0
C      1  0.5196850000000  0.4159340000000  0.5335910000000 1.0
C      1  0.4266000000000  0.4571580000000  0.5352570000000 1.0
C      1  0.4357150000000  0.4464900000000  0.4642080000000 1.0
C      1  0.5344660000000  0.4191820000000  0.4695120000000 1.0
C      1  0.5877430000000  0.5087240000000  0.4668910000000 1.0
C      1  0.5230670000000  0.5824740000000  0.4624730000000 1.0
C      1  0.4260870000000  0.5493930000000  0.4614310000000 1.0
C      1  0.4642840000000  0.4004310000000  0.5024400000000 1.0
C      1  0.4655170000000  0.6046030000000  0.5002900000000 1.0
C      1  0.3922800000000  0.5042260000000  0.4980280000000 1.0
C      1  0.5898920000000  0.4359660000000  0.4993940000000 1.0
C      1  0.5847840000000  0.5659660000000  0.4979740000000 1.0
C      1  0.5083350000000  0.4975310000000  0.5188130000000 1.0
C      1  0.5071120000000  0.4934780000000  0.4790200000000 1.0
C      1  0.4890080000000  0.5161160000000  0.4968610000000 1.0
END
