TITL C-2782231-7322-611 0.00231998373200597 125000 -1012.52843513666 0 0 174 (C1) n - 1
REM
REM in /home/nfs/bkarasulu/CARBON/AIRSS/Generating-Clusters/REBO/Higher-Symm/SD-CG/HFTN-CG
REM
REM
REM
REM
REM
REM ./C.cell (12c818d87b63d06a65506943cc24bca4)
REM
REM compiler GCC version 9.2.1 20190827 (Red Hat 9.2.1-1)
REM options -cpp -mtune=generic -march=x86-64 -g -O0 -fpre-include=/usr/include/finclude/math-vector-fortran.h
REM seed 1569285981 -1809613667 -1755425022 2074967918 12653133 -1243946032 1919441162 -1739201324 -689050602 1729185441 898837375 -1897141768 583283971 -954362227 535310926 2030498499 -1618448923 -1927407327 -5377729 1649993335 305005678 766039077 411232056 1160905049 1396831514 -159343300 926414289 1281701134 1988766160 1307572855 -1457955716 -878309473 -403190085
REM
CELL 1.54180   50.00000   50.00000   50.00000   90.00000   90.00000   90.00000
LATT -1
SFAC C  
C      1  0.4289920000000  0.4208590000000  0.5106440000000 1.0
C      1  0.5318680000000  0.4106590000000  0.5181560000000 1.0
C      1  0.5909530000000  0.4793510000000  0.5169010000000 1.0
C      1  0.5687050000000  0.5787420000000  0.5080830000000 1.0
C      1  0.4688590000000  0.5838240000000  0.5147340000000 1.0
C      1  0.4085920000000  0.5158600000000  0.5191490000000 1.0
C      1  0.5029670000000  0.4705740000000  0.4022280000000 1.0
C      1  0.5305390000000  0.4903570000000  0.3985480000000 1.0
C      1  0.5269410000000  0.5239700000000  0.3940000000000 1.0
C      1  0.4952840000000  0.5364390000000  0.3965180000000 1.0
C      1  0.4669990000000  0.5174880000000  0.3943050000000 1.0
C      1  0.4718220000000  0.4840460000000  0.3989370000000 1.0
C      1  0.4760880000000  0.3946870000000  0.4854940000000 1.0
C      1  0.5785850000000  0.4243460000000  0.4870670000000 1.0
C      1  0.6040130000000  0.5297750000000  0.4842950000000 1.0
C      1  0.5228400000000  0.6074370000000  0.4849000000000 1.0
C      1  0.4256500000000  0.5661590000000  0.4847960000000 1.0
C      1  0.4017240000000  0.4711170000000  0.4854080000000 1.0
C      1  0.5010590000000  0.4455370000000  0.4668790000000 1.0
C      1  0.5496600000000  0.4734090000000  0.4611750000000 1.0
C      1  0.5494470000000  0.5320890000000  0.4553790000000 1.0
C      1  0.5014610000000  0.5586960000000  0.4611360000000 1.0
C      1  0.4541850000000  0.5267130000000  0.4574910000000 1.0
C      1  0.4550310000000  0.4730640000000  0.4609400000000 1.0
C      1  0.6047880000000  0.5028220000000  0.4704650000000 1.0
C      1  0.5461350000000  0.6020190000000  0.4666030000000 1.0
C      1  0.4395270000000  0.5871120000000  0.4705440000000 1.0
C      1  0.3981110000000  0.4960240000000  0.4702910000000 1.0
C      1  0.4534660000000  0.4039420000000  0.4669380000000 1.0
C      1  0.5569210000000  0.4101920000000  0.4714840000000 1.0
C      1  0.4747090000000  0.5138640000000  0.4259960000000 1.0
C      1  0.4787770000000  0.4842150000000  0.4314540000000 1.0
C      1  0.5051450000000  0.4720500000000  0.4384210000000 1.0
C      1  0.5284040000000  0.4896410000000  0.4318190000000 1.0
C      1  0.5248220000000  0.5196060000000  0.4267440000000 1.0
C      1  0.4977370000000  0.5321840000000  0.4323860000000 1.0
C      1  0.4717910000000  0.4464080000000  0.4521660000000 1.0
C      1  0.5318840000000  0.4467180000000  0.4525700000000 1.0
C      1  0.5626980000000  0.5015330000000  0.4481250000000 1.0
C      1  0.5318470000000  0.5589530000000  0.4482020000000 1.0
C      1  0.4700000000000  0.5550320000000  0.4497740000000 1.0
C      1  0.4410410000000  0.4994730000000  0.4475500000000 1.0
C      1  0.6097300000000  0.5470890000000  0.5043140000000 1.0
C      1  0.5096370000000  0.6169930000000  0.5065880000000 1.0
C      1  0.4069500000000  0.5665530000000  0.5046660000000 1.0
C      1  0.3920310000000  0.4565740000000  0.5064440000000 1.0
C      1  0.4887710000000  0.3823010000000  0.5061520000000 1.0
C      1  0.5947340000000  0.4263940000000  0.5087270000000 1.0
C      1  0.5242590000000  0.5080310000000  0.6004770000000 1.0
C      1  0.5025820000000  0.5287250000000  0.6012270000000 1.0
C      1  0.4761930000000  0.5206110000000  0.5968040000000 1.0
C      1  0.4690900000000  0.4914970000000  0.6002030000000 1.0
C      1  0.4893870000000  0.4722260000000  0.5998440000000 1.0
C      1  0.5177310000000  0.4812250000000  0.6049220000000 1.0
C      1  0.4330470000000  0.5012340000000  0.5389250000000 1.0
C      1  0.4708490000000  0.4493670000000  0.5395140000000 1.0
C      1  0.5311830000000  0.4408130000000  0.5341320000000 1.0
C      1  0.5658820000000  0.4970470000000  0.5315480000000 1.0
C      1  0.5306690000000  0.5478150000000  0.5392180000000 1.0
C      1  0.4683450000000  0.5567030000000  0.5360880000000 1.0
C      1  0.4222610000000  0.5406730000000  0.5593750000000 1.0
C      1  0.4232260000000  0.4524290000000  0.5581340000000 1.0
C      1  0.5024930000000  0.4126400000000  0.5584410000000 1.0
C      1  0.5746310000000  0.4606250000000  0.5572880000000 1.0
C      1  0.5742270000000  0.5451070000000  0.5523700000000 1.0
C      1  0.4974190000000  0.5849410000000  0.5571910000000 1.0
C      1  0.4940030000000  0.5624280000000  0.4187540000000 1.0
C      1  0.4441220000000  0.5266300000000  0.4182200000000 1.0
C      1  0.4520130000000  0.4665570000000  0.4209350000000 1.0
C      1  0.5057750000000  0.4430200000000  0.4225210000000 1.0
C      1  0.5558130000000  0.4768660000000  0.4175560000000 1.0
C      1  0.5486960000000  0.5403950000000  0.4148590000000 1.0
C      1  0.4902040000000  0.4527850000000  0.5742720000000 1.0
C      1  0.5226930000000  0.4586500000000  0.5825350000000 1.0
C      1  0.5425920000000  0.5137140000000  0.5759230000000 1.0
C      1  0.5217330000000  0.5405830000000  0.5774190000000 1.0
C      1  0.4628080000000  0.5310370000000  0.5700600000000 1.0
C      1  0.4498930000000  0.4998470000000  0.5751240000000 1.0
C      1  0.4980960000000  0.5308280000000  0.5069400000000 1.0
C      1  0.4742190000000  0.5111240000000  0.5091250000000 1.0
C      1  0.4758520000000  0.4802750000000  0.5096580000000 1.0
C      1  0.5028750000000  0.4665540000000  0.5139540000000 1.0
C      1  0.5267470000000  0.4856990000000  0.5100050000000 1.0
C      1  0.5249760000000  0.5162760000000  0.5029150000000 1.0
C      1  0.5497840000000  0.5336360000000  0.5000450000000 1.0
C      1  0.5016080000000  0.5632740000000  0.5046800000000 1.0
C      1  0.4461500000000  0.5223970000000  0.5073610000000 1.0
C      1  0.4507960000000  0.4649320000000  0.5088480000000 1.0
C      1  0.5036790000000  0.4357530000000  0.5055590000000 1.0
C      1  0.5544800000000  0.4733880000000  0.5016090000000 1.0
C      1  0.4344420000000  0.4512630000000  0.4345800000000 1.0
C      1  0.5069370000000  0.4196210000000  0.4371300000000 1.0
C      1  0.5767170000000  0.4675220000000  0.4324770000000 1.0
C      1  0.5663500000000  0.5559260000000  0.4282320000000 1.0
C      1  0.4905000000000  0.5852110000000  0.4334570000000 1.0
C      1  0.4230130000000  0.5338530000000  0.4337220000000 1.0
C      1  0.5477980000000  0.4246150000000  0.4479010000000 1.0
C      1  0.5901820000000  0.5028000000000  0.4456650000000 1.0
C      1  0.5404040000000  0.5845840000000  0.4432450000000 1.0
C      1  0.4529510000000  0.5764670000000  0.4460450000000 1.0
C      1  0.4135230000000  0.4969780000000  0.4458790000000 1.0
C      1  0.4628290000000  0.4212750000000  0.4455520000000 1.0
C      1  0.5413600000000  0.5939270000000  0.5501010000000 1.0
C      1  0.4233290000000  0.6124270000000  0.5351710000000 1.0
C      1  0.3606850000000  0.4913530000000  0.5385850000000 1.0
C      1  0.4563550000000  0.4047490000000  0.5516260000000 1.0
C      1  0.5751950000000  0.3816580000000  0.5399150000000 1.0
C      1  0.6368380000000  0.5052330000000  0.5387830000000 1.0
C      1  0.4127180000000  0.4439370000000  0.5265900000000 1.0
C      1  0.5034480000000  0.3993930000000  0.5273960000000 1.0
C      1  0.5895140000000  0.4484690000000  0.5292100000000 1.0
C      1  0.5860060000000  0.5562490000000  0.5223110000000 1.0
C      1  0.4962400000000  0.5968970000000  0.5256540000000 1.0
C      1  0.4096470000000  0.5480160000000  0.5289060000000 1.0
C      1  0.4872780000000  0.4280540000000  0.5326330000000 1.0
C      1  0.5577550000000  0.4580600000000  0.5280150000000 1.0
C      1  0.5679190000000  0.5280710000000  0.5241670000000 1.0
C      1  0.5149550000000  0.5698530000000  0.5321610000000 1.0
C      1  0.4415410000000  0.5394880000000  0.5316390000000 1.0
C      1  0.4331540000000  0.4699510000000  0.5320920000000 1.0
C      1  0.4500370000000  0.5594640000000  0.5651590000000 1.0
C      1  0.4214050000000  0.4852040000000  0.5670050000000 1.0
C      1  0.4739030000000  0.4254770000000  0.5712770000000 1.0
C      1  0.5473110000000  0.4449450000000  0.5642610000000 1.0
C      1  0.5700130000000  0.5134320000000  0.5611690000000 1.0
C      1  0.5255620000000  0.5719460000000  0.5706290000000 1.0
C      1  0.5983370000000  0.4770180000000  0.4844200000000 1.0
C      1  0.5694930000000  0.5850680000000  0.4746650000000 1.0
C      1  0.4667100000000  0.5948560000000  0.4818030000000 1.0
C      1  0.4011710000000  0.5218640000000  0.4857800000000 1.0
C      1  0.4290070000000  0.4170030000000  0.4768080000000 1.0
C      1  0.5313800000000  0.4041030000000  0.4848580000000 1.0
C      1  0.4419070000000  0.4358470000000  0.5718310000000 1.0
C      1  0.5272650000000  0.4213560000000  0.5688550000000 1.0
C      1  0.5827000000000  0.4863030000000  0.5661830000000 1.0
C      1  0.5579010000000  0.5623110000000  0.5677390000000 1.0
C      1  0.4716910000000  0.5803670000000  0.5683060000000 1.0
C      1  0.4136930000000  0.5160200000000  0.5706540000000 1.0
C      1  0.4768060000000  0.4872970000000  0.4772480000000 1.0
C      1  0.5027650000000  0.4718130000000  0.4814250000000 1.0
C      1  0.5280540000000  0.4878820000000  0.4753140000000 1.0
C      1  0.5266100000000  0.5165230000000  0.4676450000000 1.0
C      1  0.5022580000000  0.5320900000000  0.4741750000000 1.0
C      1  0.4763130000000  0.5174220000000  0.4763010000000 1.0
C      1  0.6163110000000  0.4936550000000  0.5289940000000 1.0
C      1  0.5559890000000  0.5964290000000  0.5303410000000 1.0
C      1  0.4435290000000  0.5997370000000  0.5261040000000 1.0
C      1  0.3820540000000  0.5022840000000  0.5299150000000 1.0
C      1  0.4410780000000  0.4020440000000  0.5324020000000 1.0
C      1  0.5556240000000  0.3947580000000  0.5300860000000 1.0
C      1  0.4461200000000  0.5425660000000  0.4841910000000 1.0
C      1  0.4337330000000  0.4696530000000  0.4825060000000 1.0
C      1  0.4805190000000  0.4262760000000  0.4860180000000 1.0
C      1  0.5592910000000  0.4487910000000  0.4814470000000 1.0
C      1  0.5728970000000  0.5256300000000  0.4781650000000 1.0
C      1  0.5196940000000  0.5763300000000  0.4821110000000 1.0
C      1  0.5154580000000  0.5233980000000  0.5485240000000 1.0
C      1  0.4842410000000  0.5273750000000  0.5441900000000 1.0
C      1  0.4666130000000  0.4993180000000  0.5464320000000 1.0
C      1  0.4847110000000  0.4743180000000  0.5484670000000 1.0
C      1  0.5183210000000  0.4684520000000  0.5503180000000 1.0
C      1  0.5356270000000  0.4959170000000  0.5475360000000 1.0
C      1  0.4714760000000  0.5569580000000  0.4933780000000 1.0
C      1  0.4290390000000  0.4968210000000  0.4989460000000 1.0
C      1  0.4549300000000  0.4363700000000  0.4995390000000 1.0
C      1  0.5299620000000  0.4427200000000  0.4943200000000 1.0
C      1  0.5652630000000  0.4978470000000  0.4915690000000 1.0
C      1  0.5442430000000  0.5624620000000  0.4952950000000 1.0
C      1  0.4232980000000  0.4373220000000  0.4561000000000 1.0
C      1  0.5120410000000  0.4074120000000  0.4622020000000 1.0
C      1  0.5885330000000  0.4647760000000  0.4579210000000 1.0
C      1  0.5756250000000  0.5677090000000  0.4518590000000 1.0
C      1  0.4855820000000  0.5953470000000  0.4593210000000 1.0
C      1  0.4113220000000  0.5345730000000  0.4592920000000 1.0
END
