TITL C-2782227-3064-1423 -0.0414091491955489 125000 -296.238656655083 0 0 53 (C1) n - 1
REM
REM in /home/nfs/bkarasulu/CARBON/AIRSS/Generating-Clusters/REBO/Higher-Symm/SD-CG/HFTN-CG
REM
REM
REM
REM
REM
REM ./C.cell (12c818d87b63d06a65506943cc24bca4)
REM
REM compiler GCC version 9.2.1 20190827 (Red Hat 9.2.1-1)
REM options -cpp -mtune=generic -march=x86-64 -g -O0 -fpre-include=/usr/include/finclude/math-vector-fortran.h
REM seed -844505612 -1434375168 654622697 -323588919 -2046833406 -1663173016 1770844944 -169298960 -1210927427 1854304263 -1410164145 -1189561151 -455464572 520488978 1925443688 -1733681676 1858236346 -434127411 960663090 -1290999101 502064769 -652998965 1136493381 604143281 2016537093 -698160451 -734796283 1704663095 1690672348 721510984 1880912959 502930859 491270727
REM
CELL 1.54180   50.00000   50.00000   50.00000   90.00000   90.00000   90.00000
LATT -1
SFAC C  
C      1  0.5508840000000  0.4775510000000  0.5319450000000 1.0
C      1  0.5524290000000  0.5295290000000  0.4679320000000 1.0
C      1  0.5505300000000  0.4772270000000  0.4707480000000 1.0
C      1  0.5516330000000  0.5301550000000  0.5326880000000 1.0
C      1  0.4964070000000  0.4789510000000  0.4704480000000 1.0
C      1  0.5031470000000  0.5110050000000  0.5280330000000 1.0
C      1  0.4974000000000  0.4796270000000  0.5328710000000 1.0
C      1  0.5032750000000  0.5109680000000  0.4708730000000 1.0
C      1  0.4451440000000  0.4897430000000  0.5400500000000 1.0
C      1  0.4464280000000  0.5159580000000  0.4623730000000 1.0
C      1  0.4450270000000  0.4837560000000  0.4543220000000 1.0
C      1  0.4508860000000  0.5217700000000  0.5474140000000 1.0
C      1  0.4253710000000  0.4883640000000  0.5123410000000 1.0
C      1  0.4270850000000  0.5211790000000  0.4899450000000 1.0
C      1  0.4244080000000  0.4884370000000  0.4811720000000 1.0
C      1  0.4290410000000  0.5210130000000  0.5211250000000 1.0
C      1  0.5226370000000  0.5404970000000  0.5464320000000 1.0
C      1  0.5280950000000  0.4603500000000  0.4535950000000 1.0
C      1  0.5247890000000  0.5393330000000  0.4527290000000 1.0
C      1  0.5275850000000  0.4573650000000  0.5465500000000 1.0
C      1  0.5275690000000  0.5191140000000  0.4869200000000 1.0
C      1  0.5237060000000  0.4797780000000  0.5139940000000 1.0
C      1  0.5276480000000  0.5195200000000  0.5129470000000 1.0
C      1  0.5228100000000  0.4794380000000  0.4880990000000 1.0
C      1  0.5058300000000  0.5507860000000  0.4721960000000 1.0
C      1  0.5116310000000  0.4432290000000  0.5247970000000 1.0
C      1  0.5039020000000  0.5507120000000  0.5250290000000 1.0
C      1  0.5129450000000  0.4426480000000  0.4715720000000 1.0
C      1  0.5212430000000  0.4820850000000  0.4340660000000 1.0
C      1  0.5181130000000  0.5163130000000  0.5646730000000 1.0
C      1  0.5209410000000  0.4818820000000  0.5648580000000 1.0
C      1  0.5196350000000  0.5165340000000  0.4340880000000 1.0
C      1  0.4828850000000  0.4498540000000  0.4718380000000 1.0
C      1  0.4790800000000  0.5314780000000  0.5208560000000 1.0
C      1  0.4830490000000  0.4551560000000  0.5207780000000 1.0
C      1  0.4797740000000  0.5345210000000  0.4733150000000 1.0
C      1  0.4189490000000  0.4655680000000  0.4588710000000 1.0
C      1  0.4292870000000  0.5450700000000  0.5428530000000 1.0
C      1  0.4247070000000  0.4654410000000  0.5352500000000 1.0
C      1  0.4306980000000  0.5436310000000  0.4668520000000 1.0
C      1  0.5467760000000  0.5004650000000  0.4273480000000 1.0
C      1  0.5453260000000  0.5010120000000  0.5728460000000 1.0
C      1  0.5125080000000  0.5609290000000  0.4988610000000 1.0
C      1  0.5221680000000  0.4353980000000  0.4985000000000 1.0
C      1  0.5647480000000  0.5021100000000  0.4523860000000 1.0
C      1  0.5647450000000  0.5035090000000  0.5491120000000 1.0
C      1  0.4700420000000  0.4635480000000  0.4962840000000 1.0
C      1  0.4664850000000  0.5214830000000  0.4966990000000 1.0
C      1  0.4743330000000  0.4986470000000  0.4572790000000 1.0
C      1  0.4758770000000  0.5004410000000  0.5455780000000 1.0
C      1  0.5646300000000  0.5036710000000  0.4866020000000 1.0
C      1  0.5643880000000  0.5038540000000  0.5149590000000 1.0
C      1  0.4625330000000  0.4921420000000  0.4949350000000 1.0
END
