TITL C-2782237-5345-269 0.00236394311283132 125000 -1078.80137054477 0 0 187 (C1) n - 1
REM
REM in /home/nfs/bkarasulu/CARBON/AIRSS/Generating-Clusters/REBO/Higher-Symm/SD-CG/HFTN-CG
REM
REM
REM
REM
REM
REM ./C.cell (12c818d87b63d06a65506943cc24bca4)
REM
REM compiler GCC version 9.2.1 20190827 (Red Hat 9.2.1-1)
REM options -cpp -mtune=generic -march=x86-64 -g -O0 -fpre-include=/usr/include/finclude/math-vector-fortran.h
REM seed 905209894 1872122357 329155709 -992640237 -2019811211 63732180 2064299151 102389553 365018386 -1304293519 776691440 1707797446 215685943 1565283290 1367626557 1121779301 -1754072618 593316725 -1351142049 664236157 -48836750 -15557368 -671543591 2020519210 -1070977586 116559592 -1566503798 -889456835 528908370 1625701925 1860046952 943708062 -478489133
REM
CELL 1.54180   50.00000   50.00000   50.00000   90.00000   90.00000   90.00000
LATT -1
SFAC C  
C      1  0.5220860000000  0.4867840000000  0.4341690000000 1.0
C      1  0.4870090000000  0.5221600000000  0.4242980000000 1.0
C      1  0.5171360000000  0.4788800000000  0.5792330000000 1.0
C      1  0.4849230000000  0.5179760000000  0.5758510000000 1.0
C      1  0.4902430000000  0.4898260000000  0.4297210000000 1.0
C      1  0.5182820000000  0.5183070000000  0.4290680000000 1.0
C      1  0.4853000000000  0.4835350000000  0.5758020000000 1.0
C      1  0.5150180000000  0.5100710000000  0.5729820000000 1.0
C      1  0.5669450000000  0.5126280000000  0.4377610000000 1.0
C      1  0.4291850000000  0.4873910000000  0.4393000000000 1.0
C      1  0.5750590000000  0.5152710000000  0.5683510000000 1.0
C      1  0.4212660000000  0.4817380000000  0.5700700000000 1.0
C      1  0.4351810000000  0.5155140000000  0.4387850000000 1.0
C      1  0.5718120000000  0.4843580000000  0.4354380000000 1.0
C      1  0.4203340000000  0.5121110000000  0.5640600000000 1.0
C      1  0.5820250000000  0.4856570000000  0.5678860000000 1.0
C      1  0.5456370000000  0.4150010000000  0.5115900000000 1.0
C      1  0.4471590000000  0.5844110000000  0.5109100000000 1.0
C      1  0.5533520000000  0.4078360000000  0.4792280000000 1.0
C      1  0.4583060000000  0.5847390000000  0.4787750000000 1.0
C      1  0.4466400000000  0.4143790000000  0.5152990000000 1.0
C      1  0.5454170000000  0.5859420000000  0.5160980000000 1.0
C      1  0.4521660000000  0.4075230000000  0.4823700000000 1.0
C      1  0.5559250000000  0.5876350000000  0.4845310000000 1.0
C      1  0.4686980000000  0.4785890000000  0.5489010000000 1.0
C      1  0.5289000000000  0.5134740000000  0.5455930000000 1.0
C      1  0.4761770000000  0.4839080000000  0.4579070000000 1.0
C      1  0.5197210000000  0.5152410000000  0.4621260000000 1.0
C      1  0.5332480000000  0.4815380000000  0.5521180000000 1.0
C      1  0.4687850000000  0.5097290000000  0.5510790000000 1.0
C      1  0.5286360000000  0.4840970000000  0.4660870000000 1.0
C      1  0.4853000000000  0.5166770000000  0.4588590000000 1.0
C      1  0.5541120000000  0.4485170000000  0.5864410000000 1.0
C      1  0.4538380000000  0.5609370000000  0.5857100000000 1.0
C      1  0.5414940000000  0.4380510000000  0.4096470000000 1.0
C      1  0.4525940000000  0.5666000000000  0.4117050000000 1.0
C      1  0.4563370000000  0.4487600000000  0.5842170000000 1.0
C      1  0.5442050000000  0.5574160000000  0.5914840000000 1.0
C      1  0.4491300000000  0.4380410000000  0.4089730000000 1.0
C      1  0.5408910000000  0.5589990000000  0.4125880000000 1.0
C      1  0.5514780000000  0.4664920000000  0.4514370000000 1.0
C      1  0.4572450000000  0.5333980000000  0.4530220000000 1.0
C      1  0.5605520000000  0.4682590000000  0.5521840000000 1.0
C      1  0.4450470000000  0.5267810000000  0.5471180000000 1.0
C      1  0.4501620000000  0.4685760000000  0.4534600000000 1.0
C      1  0.5480980000000  0.5301380000000  0.4548990000000 1.0
C      1  0.4414110000000  0.4657180000000  0.5513320000000 1.0
C      1  0.5523780000000  0.5308330000000  0.5515320000000 1.0
C      1  0.5155780000000  0.5305510000000  0.5981830000000 1.0
C      1  0.4870890000000  0.4795190000000  0.6092230000000 1.0
C      1  0.5168600000000  0.5285870000000  0.3985090000000 1.0
C      1  0.4824900000000  0.4735880000000  0.4025090000000 1.0
C      1  0.4819290000000  0.5371300000000  0.6011540000000 1.0
C      1  0.5205820000000  0.4735730000000  0.6110770000000 1.0
C      1  0.4828200000000  0.5311720000000  0.3941050000000 1.0
C      1  0.5163570000000  0.4787620000000  0.4016220000000 1.0
C      1  0.4849100000000  0.4409390000000  0.4784980000000 1.0
C      1  0.5143620000000  0.5578660000000  0.4869520000000 1.0
C      1  0.4830970000000  0.4428040000000  0.5125470000000 1.0
C      1  0.5135880000000  0.5486940000000  0.5345670000000 1.0
C      1  0.5145080000000  0.4426020000000  0.4878510000000 1.0
C      1  0.4871780000000  0.5567790000000  0.4923910000000 1.0
C      1  0.5131020000000  0.4457030000000  0.5216780000000 1.0
C      1  0.4844990000000  0.5475450000000  0.5230660000000 1.0
C      1  0.5118280000000  0.4287680000000  0.4244790000000 1.0
C      1  0.4830680000000  0.5798930000000  0.4182310000000 1.0
C      1  0.5282030000000  0.4267480000000  0.5661330000000 1.0
C      1  0.4832290000000  0.5736460000000  0.5721730000000 1.0
C      1  0.4788500000000  0.4266940000000  0.4325400000000 1.0
C      1  0.5157700000000  0.5788930000000  0.4241050000000 1.0
C      1  0.4945390000000  0.4283300000000  0.5714350000000 1.0
C      1  0.5171080000000  0.5724340000000  0.5664920000000 1.0
C      1  0.5853880000000  0.4475510000000  0.4390360000000 1.0
C      1  0.4163330000000  0.5489630000000  0.4479920000000 1.0
C      1  0.5970670000000  0.4507260000000  0.5303420000000 1.0
C      1  0.4115880000000  0.5479760000000  0.5495530000000 1.0
C      1  0.4140070000000  0.4515690000000  0.4462610000000 1.0
C      1  0.5876160000000  0.5439220000000  0.4499200000000 1.0
C      1  0.3993080000000  0.4528410000000  0.5336150000000 1.0
C      1  0.5881750000000  0.5482400000000  0.5508050000000 1.0
C      1  0.4793290000000  0.4734570000000  0.5218960000000 1.0
C      1  0.5187260000000  0.5195680000000  0.5171530000000 1.0
C      1  0.4810970000000  0.4734840000000  0.4871660000000 1.0
C      1  0.5242270000000  0.5324030000000  0.4895400000000 1.0
C      1  0.5189350000000  0.4768460000000  0.5263430000000 1.0
C      1  0.4756210000000  0.5173500000000  0.5231410000000 1.0
C      1  0.5207340000000  0.4739730000000  0.4923170000000 1.0
C      1  0.4805510000000  0.5249500000000  0.4903690000000 1.0
C      1  0.5404900000000  0.5526440000000  0.5202020000000 1.0
C      1  0.4495650000000  0.4476800000000  0.5166800000000 1.0
C      1  0.5585950000000  0.5551690000000  0.4945560000000 1.0
C      1  0.4536600000000  0.4405790000000  0.4859430000000 1.0
C      1  0.4548930000000  0.5513220000000  0.5151830000000 1.0
C      1  0.5446760000000  0.4494200000000  0.5128940000000 1.0
C      1  0.4473620000000  0.5533180000000  0.4859500000000 1.0
C      1  0.5469640000000  0.4408830000000  0.4815070000000 1.0
C      1  0.5582320000000  0.4359900000000  0.5558510000000 1.0
C      1  0.4511840000000  0.5582630000000  0.5540180000000 1.0
C      1  0.5466710000000  0.4379730000000  0.4417230000000 1.0
C      1  0.4580830000000  0.5633560000000  0.4447250000000 1.0
C      1  0.4466490000000  0.4333510000000  0.5554270000000 1.0
C      1  0.5474780000000  0.5615700000000  0.5584740000000 1.0
C      1  0.4518050000000  0.4394230000000  0.4428660000000 1.0
C      1  0.5436100000000  0.5603170000000  0.4459130000000 1.0
C      1  0.4934230000000  0.4102170000000  0.4545770000000 1.0
C      1  0.5194020000000  0.5809440000000  0.4555020000000 1.0
C      1  0.4728320000000  0.4188570000000  0.5473880000000 1.0
C      1  0.5035280000000  0.5791750000000  0.5383420000000 1.0
C      1  0.5244650000000  0.4185600000000  0.4539480000000 1.0
C      1  0.4861480000000  0.5787560000000  0.4508530000000 1.0
C      1  0.5065110000000  0.4133340000000  0.5442210000000 1.0
C      1  0.4720050000000  0.5807060000000  0.5416100000000 1.0
C      1  0.5126350000000  0.4479820000000  0.3968070000000 1.0
C      1  0.4777810000000  0.5623490000000  0.3900420000000 1.0
C      1  0.5223210000000  0.4430550000000  0.5957040000000 1.0
C      1  0.4799440000000  0.5694200000000  0.6057740000000 1.0
C      1  0.4809270000000  0.4410150000000  0.4020850000000 1.0
C      1  0.5103620000000  0.5600380000000  0.3968560000000 1.0
C      1  0.4884390000000  0.4485940000000  0.5949360000000 1.0
C      1  0.5117200000000  0.5635320000000  0.5981110000000 1.0
C      1  0.4909850000000  0.5943130000000  0.4800780000000 1.0
C      1  0.5198010000000  0.4032240000000  0.4834290000000 1.0
C      1  0.4789050000000  0.5950780000000  0.5114610000000 1.0
C      1  0.5131990000000  0.4054340000000  0.5154610000000 1.0
C      1  0.5249630000000  0.5960510000000  0.4826440000000 1.0
C      1  0.4855200000000  0.4005780000000  0.4841310000000 1.0
C      1  0.5130360000000  0.5963190000000  0.5133890000000 1.0
C      1  0.4788700000000  0.4037050000000  0.5173460000000 1.0
C      1  0.5649430000000  0.4604530000000  0.4143200000000 1.0
C      1  0.4349190000000  0.5413740000000  0.4196410000000 1.0
C      1  0.5653510000000  0.4740440000000  0.5914230000000 1.0
C      1  0.4271610000000  0.5404040000000  0.5798410000000 1.0
C      1  0.4314620000000  0.4633740000000  0.4184950000000 1.0
C      1  0.5677970000000  0.5401030000000  0.4214050000000 1.0
C      1  0.4421770000000  0.4730710000000  0.5905840000000 1.0
C      1  0.5740650000000  0.5439140000000  0.5821530000000 1.0
C      1  0.3973580000000  0.4836360000000  0.5479230000000 1.0
C      1  0.5994130000000  0.5157410000000  0.5465160000000 1.0
C      1  0.4009360000000  0.4826460000000  0.4536860000000 1.0
C      1  0.5965430000000  0.5107370000000  0.4523920000000 1.0
C      1  0.6022530000000  0.4815240000000  0.5427170000000 1.0
C      1  0.3963410000000  0.5177570000000  0.5431590000000 1.0
C      1  0.6004790000000  0.4767460000000  0.4488350000000 1.0
C      1  0.4050610000000  0.5168620000000  0.4514320000000 1.0
C      1  0.5581020000000  0.5253090000000  0.5209780000000 1.0
C      1  0.4329090000000  0.4724140000000  0.5216020000000 1.0
C      1  0.5626800000000  0.5266290000000  0.4815010000000 1.0
C      1  0.4379740000000  0.4678120000000  0.4823330000000 1.0
C      1  0.4369500000000  0.5259130000000  0.5175920000000 1.0
C      1  0.5609020000000  0.4728810000000  0.5213680000000 1.0
C      1  0.4364940000000  0.5233170000000  0.4778020000000 1.0
C      1  0.5629230000000  0.4709280000000  0.4817310000000 1.0
C      1  0.4312820000000  0.5775190000000  0.4592120000000 1.0
C      1  0.5706970000000  0.4216690000000  0.4558090000000 1.0
C      1  0.4290880000000  0.5738560000000  0.5355460000000 1.0
C      1  0.5729810000000  0.4264840000000  0.5284860000000 1.0
C      1  0.5705690000000  0.5714620000000  0.4602630000000 1.0
C      1  0.4318900000000  0.4217540000000  0.4588590000000 1.0
C      1  0.5697140000000  0.5736390000000  0.5366780000000 1.0
C      1  0.4209510000000  0.4266020000000  0.5341500000000 1.0
C      1  0.4520680000000  0.4882000000000  0.4065780000000 1.0
C      1  0.5483930000000  0.5181000000000  0.4031610000000 1.0
C      1  0.4573750000000  0.4938040000000  0.6024510000000 1.0
C      1  0.5493170000000  0.5243070000000  0.5975630000000 1.0
C      1  0.5480480000000  0.4884920000000  0.4038560000000 1.0
C      1  0.4533860000000  0.5170020000000  0.4036740000000 1.0
C      1  0.5473710000000  0.4927380000000  0.6043450000000 1.0
C      1  0.4514240000000  0.5228150000000  0.5968110000000 1.0
C      1  0.5905850000000  0.5549210000000  0.4827210000000 1.0
C      1  0.4115470000000  0.4381870000000  0.4775580000000 1.0
C      1  0.5911370000000  0.5557830000000  0.5170370000000 1.0
C      1  0.4081480000000  0.4390900000000  0.5046380000000 1.0
C      1  0.4142570000000  0.5576330000000  0.4816420000000 1.0
C      1  0.5902780000000  0.4421160000000  0.4729570000000 1.0
C      1  0.4090600000000  0.5572890000000  0.5155250000000 1.0
C      1  0.5895470000000  0.4392310000000  0.5009870000000 1.0
C      1  0.4055310000000  0.5098270000000  0.4824530000000 1.0
C      1  0.5940020000000  0.4813950000000  0.4794160000000 1.0
C      1  0.4061430000000  0.5193760000000  0.5124540000000 1.0
C      1  0.5906330000000  0.4847680000000  0.5113310000000 1.0
C      1  0.5931320000000  0.5142830000000  0.4846770000000 1.0
C      1  0.4075730000000  0.4771360000000  0.4853990000000 1.0
C      1  0.5884900000000  0.5176890000000  0.5162170000000 1.0
C      1  0.4039160000000  0.4876770000000  0.5156360000000 1.0
C      1  0.4392640000000  0.4972190000000  0.4995610000000 1.0
C      1  0.5553010000000  0.4988380000000  0.4998330000000 1.0
C      1  0.4981070000000  0.4970810000000  0.5062710000000 1.0
END
