TITL C-2782234-8014-1183 0.00288576916160746 125000 -284.073876185243 0 0 46 (C1) n - 1
REM
REM in /home/nfs/bkarasulu/CARBON/AIRSS/Generating-Clusters/REBO/Higher-Symm/SD-CG/HFTN-CG
REM
REM
REM
REM
REM
REM ./C.cell (12c818d87b63d06a65506943cc24bca4)
REM
REM compiler GCC version 9.2.1 20190827 (Red Hat 9.2.1-1)
REM options -cpp -mtune=generic -march=x86-64 -g -O0 -fpre-include=/usr/include/finclude/math-vector-fortran.h
REM seed -127765967 1069160215 -927484694 -1735148959 679614192 904981132 1507307987 -580287997 -1022540052 -1151792999 -1551858514 1678124570 -1468311356 -1900892941 1285839764 -1301853933 1666001004 -1862104763 122065300 -312912058 1084290910 -853865427 1784912552 -833895918 -276868166 -258792563 -1442253289 -1617142446 712274864 1200014055 -1730537334 1812267905 1119597630
REM
CELL 1.54180   50.00000   50.00000   50.00000   90.00000   90.00000   90.00000
LATT -1
SFAC C  
C      1  0.4817120000000  0.4773120000000  0.5637700000000 1.0
C      1  0.4383890000000  0.4778510000000  0.5028690000000 1.0
C      1  0.4786190000000  0.4779040000000  0.4388670000000 1.0
C      1  0.5504760000000  0.4764490000000  0.4643650000000 1.0
C      1  0.5517000000000  0.4745750000000  0.5367220000000 1.0
C      1  0.4822790000000  0.5261780000000  0.5635400000000 1.0
C      1  0.4378180000000  0.5245290000000  0.5029630000000 1.0
C      1  0.4776290000000  0.5246260000000  0.4386490000000 1.0
C      1  0.5426430000000  0.5208890000000  0.4724380000000 1.0
C      1  0.5529600000000  0.5229750000000  0.5327660000000 1.0
C      1  0.4479550000000  0.4859700000000  0.4758970000000 1.0
C      1  0.5071300000000  0.4860270000000  0.4427380000000 1.0
C      1  0.5504720000000  0.4814720000000  0.4930090000000 1.0
C      1  0.5249730000000  0.4841220000000  0.5466170000000 1.0
C      1  0.4761760000000  0.4860950000000  0.5332120000000 1.0
C      1  0.4474540000000  0.5165360000000  0.4759500000000 1.0
C      1  0.5059240000000  0.5168010000000  0.4427520000000 1.0
C      1  0.5326310000000  0.5072590000000  0.5021330000000 1.0
C      1  0.5262950000000  0.5171840000000  0.5460890000000 1.0
C      1  0.4748850000000  0.5174250000000  0.5340440000000 1.0
C      1  0.4654450000000  0.5351880000000  0.4627480000000 1.0
C      1  0.5213430000000  0.5341760000000  0.4596440000000 1.0
C      1  0.5442130000000  0.5383100000000  0.5080750000000 1.0
C      1  0.5051110000000  0.5395940000000  0.5476350000000 1.0
C      1  0.4585760000000  0.5360790000000  0.5186370000000 1.0
C      1  0.4667570000000  0.4677080000000  0.4631000000000 1.0
C      1  0.5242200000000  0.4669380000000  0.4568810000000 1.0
C      1  0.5475320000000  0.4602010000000  0.5117300000000 1.0
C      1  0.5039000000000  0.4619370000000  0.5485810000000 1.0
C      1  0.4594080000000  0.4667870000000  0.5183140000000 1.0
C      1  0.5120150000000  0.4494280000000  0.4770000000000 1.0
C      1  0.5238230000000  0.4450260000000  0.5047820000000 1.0
C      1  0.5015970000000  0.4451510000000  0.5244090000000 1.0
C      1  0.4765580000000  0.4468250000000  0.5083480000000 1.0
C      1  0.4827190000000  0.4498260000000  0.4797480000000 1.0
C      1  0.5098030000000  0.5544800000000  0.4762440000000 1.0
C      1  0.5229200000000  0.5569160000000  0.5030390000000 1.0
C      1  0.5015870000000  0.5567100000000  0.5236720000000 1.0
C      1  0.4757140000000  0.5560080000000  0.5084900000000 1.0
C      1  0.4806940000000  0.5539300000000  0.4794680000000 1.0
C      1  0.4248760000000  0.5009940000000  0.5141880000000 1.0
C      1  0.5576770000000  0.5031120000000  0.4559080000000 1.0
C      1  0.5685160000000  0.4985150000000  0.5344880000000 1.0
C      1  0.4647660000000  0.5009310000000  0.4274140000000 1.0
C      1  0.4819200000000  0.5018130000000  0.5795070000000 1.0
C      1  0.5048640000000  0.5011290000000  0.5212220000000 1.0
END
