TITL C-2782238-9940-1263 -0.00227940093043292 125000 -356.236558111464 0 0 60 (C1) n - 1
REM
REM in /home/nfs/bkarasulu/CARBON/AIRSS/Generating-Clusters/REBO/Higher-Symm/SD-CG/HFTN-CG
REM
REM
REM
REM
REM
REM ./C.cell (12c818d87b63d06a65506943cc24bca4)
REM
REM compiler GCC version 9.2.1 20190827 (Red Hat 9.2.1-1)
REM options -cpp -mtune=generic -march=x86-64 -g -O0 -fpre-include=/usr/include/finclude/math-vector-fortran.h
REM seed 1827647647 1104257224 -859729068 -1539196262 -883203556 88668132 1487275207 413988672 -2011235668 1632382140 -925982039 621941329 -2022098037 -1476421043 363969925 -501684339 -394385143 -1524882942 733146088 591591581 101725071 -1993892613 -1871983878 -719253732 618811294 -759585308 828942213 -1748477918 1540879703 -117879363 -1154712653 323484094 77944199
REM
CELL 1.54180   50.00000   50.00000   50.00000   90.00000   90.00000   90.00000
LATT -1
SFAC C  
C      1  0.5146090000000  0.4273470000000  0.5319660000000 1.0
C      1  0.4186670000000  0.5288410000000  0.5122800000000 1.0
C      1  0.5310640000000  0.5137820000000  0.4262350000000 1.0
C      1  0.4868850000000  0.4245250000000  0.4691270000000 1.0
C      1  0.4879030000000  0.5781380000000  0.5301590000000 1.0
C      1  0.5126700000000  0.5725490000000  0.4698670000000 1.0
C      1  0.5764060000000  0.5307790000000  0.4869600000000 1.0
C      1  0.5769090000000  0.4676030000000  0.5123870000000 1.0
C      1  0.4268280000000  0.4680540000000  0.4859440000000 1.0
C      1  0.4686730000000  0.5149410000000  0.5724230000000 1.0
C      1  0.4690620000000  0.4886670000000  0.4199410000000 1.0
C      1  0.5297580000000  0.4892320000000  0.5800860000000 1.0
C      1  0.5305810000000  0.4272350000000  0.5126090000000 1.0
C      1  0.5134990000000  0.5315880000000  0.4241490000000 1.0
C      1  0.4187120000000  0.5115580000000  0.5306270000000 1.0
C      1  0.4706130000000  0.4241690000000  0.4882660000000 1.0
C      1  0.5310080000000  0.5742820000000  0.4868580000000 1.0
C      1  0.4692430000000  0.5752940000000  0.5135930000000 1.0
C      1  0.4865370000000  0.5324930000000  0.5732170000000 1.0
C      1  0.5115800000000  0.4719540000000  0.5816520000000 1.0
C      1  0.4871590000000  0.4712020000000  0.4190660000000 1.0
C      1  0.5784890000000  0.5137270000000  0.4682830000000 1.0
C      1  0.4279720000000  0.4861090000000  0.4685120000000 1.0
C      1  0.5746740000000  0.4846160000000  0.5310670000000 1.0
C      1  0.5100050000000  0.4448050000000  0.4635560000000 1.0
C      1  0.4447090000000  0.4655410000000  0.5103750000000 1.0
C      1  0.4644650000000  0.5113630000000  0.4405370000000 1.0
C      1  0.4915520000000  0.4457150000000  0.5369180000000 1.0
C      1  0.4909520000000  0.5526010000000  0.4676010000000 1.0
C      1  0.5123510000000  0.5600910000000  0.5354180000000 1.0
C      1  0.5599000000000  0.4636950000000  0.4875270000000 1.0
C      1  0.5561370000000  0.5332730000000  0.5087450000000 1.0
C      1  0.4385100000000  0.5353790000000  0.4910200000000 1.0
C      1  0.5347810000000  0.5103600000000  0.5581890000000 1.0
C      1  0.5343730000000  0.4906490000000  0.4445990000000 1.0
C      1  0.4650320000000  0.4910130000000  0.5551280000000 1.0
C      1  0.4659640000000  0.4428870000000  0.5109580000000 1.0
C      1  0.5090060000000  0.4650260000000  0.4380190000000 1.0
C      1  0.4457040000000  0.5099640000000  0.4657790000000 1.0
C      1  0.5335570000000  0.4462500000000  0.4882050000000 1.0
C      1  0.4646140000000  0.5543270000000  0.4929300000000 1.0
C      1  0.5353830000000  0.5563840000000  0.5114410000000 1.0
C      1  0.4901280000000  0.4653920000000  0.5623720000000 1.0
C      1  0.5113450000000  0.5348570000000  0.5548820000000 1.0
C      1  0.4888190000000  0.5347370000000  0.4422680000000 1.0
C      1  0.5549060000000  0.5068020000000  0.5342310000000 1.0
C      1  0.4396600000000  0.4901080000000  0.5364480000000 1.0
C      1  0.5606230000000  0.4896950000000  0.4622280000000 1.0
C      1  0.5072020000000  0.4666670000000  0.4887330000000 1.0
C      1  0.4902250000000  0.5327200000000  0.4935090000000 1.0
C      1  0.4914960000000  0.4856780000000  0.5359460000000 1.0
C      1  0.4621610000000  0.4931350000000  0.5126620000000 1.0
C      1  0.4885580000000  0.5086570000000  0.4639120000000 1.0
C      1  0.4893070000000  0.4663450000000  0.5109320000000 1.0
C      1  0.5104060000000  0.5331200000000  0.5149470000000 1.0
C      1  0.5384170000000  0.4885620000000  0.4862020000000 1.0
C      1  0.5375410000000  0.5073620000000  0.5072890000000 1.0
C      1  0.4642810000000  0.5143790000000  0.4928220000000 1.0
C      1  0.5108620000000  0.5076680000000  0.5346120000000 1.0
C      1  0.5075640000000  0.4861060000000  0.4637830000000 1.0
END
