TITL C-2782229-3092-746 -0.00687783168639241 125000 -1077.3559455662 0 0 181 (C1) n - 1
REM
REM in /home/nfs/bkarasulu/CARBON/AIRSS/Generating-Clusters/REBO/Higher-Symm/SD-CG/HFTN-CG
REM
REM
REM
REM
REM
REM ./C.cell (12c818d87b63d06a65506943cc24bca4)
REM
REM compiler GCC version 9.2.1 20190827 (Red Hat 9.2.1-1)
REM options -cpp -mtune=generic -march=x86-64 -g -O0 -fpre-include=/usr/include/finclude/math-vector-fortran.h
REM seed 1394186064 -1251160857 1014086352 -370068887 -1245651919 363293901 993681441 -672133958 1131448394 1316125148 629205232 -1419386982 941206751 541393513 958322557 28394718 -1605330798 2114304935 542229911 -1447440750 -530477416 1153899254 -646672620 -1494608247 1646644988 371586418 1373675580 -799102559 1344217215 -49869635 -1765558784 1530881853 -2001496952
REM
CELL 1.54180   50.00000   50.00000   50.00000   90.00000   90.00000   90.00000
LATT -1
SFAC C  
C      1  0.5063440000000  0.4667200000000  0.5514010000000 1.0
C      1  0.4618950000000  0.4929160000000  0.4484060000000 1.0
C      1  0.4976790000000  0.5337090000000  0.5533980000000 1.0
C      1  0.5359040000000  0.5060530000000  0.4488560000000 1.0
C      1  0.5207890000000  0.4828050000000  0.5977400000000 1.0
C      1  0.4761890000000  0.4835620000000  0.4104830000000 1.0
C      1  0.4808600000000  0.5193290000000  0.5888950000000 1.0
C      1  0.5153230000000  0.5179360000000  0.4054180000000 1.0
C      1  0.4804410000000  0.6040970000000  0.5107410000000 1.0
C      1  0.6124070000000  0.5327310000000  0.4957290000000 1.0
C      1  0.5328120000000  0.3849110000000  0.5299680000000 1.0
C      1  0.3908670000000  0.4649620000000  0.4944100000000 1.0
C      1  0.4915360000000  0.5315310000000  0.4123720000000 1.0
C      1  0.5316540000000  0.5064890000000  0.5888240000000 1.0
C      1  0.5009140000000  0.4711940000000  0.4155830000000 1.0
C      1  0.4713450000000  0.4932900000000  0.5841890000000 1.0
C      1  0.4914030000000  0.4388460000000  0.5424410000000 1.0
C      1  0.4364500000000  0.5070790000000  0.4593880000000 1.0
C      1  0.5112940000000  0.5616500000000  0.5408530000000 1.0
C      1  0.5643380000000  0.4980270000000  0.4624720000000 1.0
C      1  0.5141040000000  0.4153230000000  0.5477800000000 1.0
C      1  0.4099370000000  0.4860130000000  0.4556540000000 1.0
C      1  0.4827040000000  0.5770870000000  0.5399150000000 1.0
C      1  0.5910320000000  0.5137340000000  0.4579910000000 1.0
C      1  0.4200670000000  0.5628170000000  0.4937140000000 1.0
C      1  0.5745910000000  0.5801330000000  0.5074690000000 1.0
C      1  0.5787420000000  0.4379170000000  0.4877830000000 1.0
C      1  0.4350120000000  0.4115600000000  0.5098770000000 1.0
C      1  0.4278750000000  0.4970670000000  0.4895060000000 1.0
C      1  0.5061530000000  0.5637540000000  0.5068320000000 1.0
C      1  0.5632640000000  0.5045050000000  0.4941900000000 1.0
C      1  0.4985250000000  0.4360290000000  0.5084030000000 1.0
C      1  0.4431870000000  0.4918540000000  0.5785500000000 1.0
C      1  0.4958620000000  0.5591410000000  0.4170450000000 1.0
C      1  0.5587310000000  0.5069880000000  0.5821770000000 1.0
C      1  0.5006230000000  0.4433090000000  0.4185300000000 1.0
C      1  0.5805880000000  0.5473570000000  0.5147790000000 1.0
C      1  0.5301730000000  0.4168130000000  0.4918970000000 1.0
C      1  0.4343550000000  0.4636780000000  0.5099840000000 1.0
C      1  0.4677100000000  0.5627070000000  0.4863200000000 1.0
C      1  0.4948990000000  0.5225510000000  0.4511390000000 1.0
C      1  0.5366400000000  0.4945260000000  0.5475120000000 1.0
C      1  0.5059740000000  0.4755630000000  0.4549140000000 1.0
C      1  0.4718360000000  0.4964880000000  0.5421740000000 1.0
C      1  0.5836780000000  0.5816990000000  0.4746880000000 1.0
C      1  0.5737880000000  0.4246810000000  0.5170890000000 1.0
C      1  0.4252330000000  0.4189350000000  0.4813340000000 1.0
C      1  0.4348920000000  0.5761190000000  0.5215100000000 1.0
C      1  0.4239290000000  0.4334570000000  0.4501820000000 1.0
C      1  0.4369860000000  0.5719540000000  0.5504470000000 1.0
C      1  0.5802710000000  0.5623740000000  0.4465970000000 1.0
C      1  0.5621660000000  0.4298440000000  0.5491810000000 1.0
C      1  0.3962180000000  0.5390370000000  0.4881810000000 1.0
C      1  0.5452240000000  0.5928900000000  0.5101590000000 1.0
C      1  0.5945940000000  0.4614280000000  0.4911100000000 1.0
C      1  0.4623280000000  0.4006700000000  0.5124940000000 1.0
C      1  0.5265280000000  0.5684160000000  0.4243770000000 1.0
C      1  0.5753760000000  0.4819500000000  0.5718290000000 1.0
C      1  0.4753290000000  0.4271560000000  0.4264830000000 1.0
C      1  0.4276070000000  0.5202770000000  0.5738600000000 1.0
C      1  0.4645970000000  0.5334920000000  0.5552310000000 1.0
C      1  0.5483830000000  0.5337170000000  0.4344470000000 1.0
C      1  0.5345890000000  0.4596080000000  0.5683480000000 1.0
C      1  0.4478100000000  0.4673840000000  0.4334620000000 1.0
C      1  0.5648660000000  0.4596550000000  0.4423180000000 1.0
C      1  0.4484500000000  0.4245630000000  0.5519410000000 1.0
C      1  0.4275420000000  0.5536560000000  0.4414330000000 1.0
C      1  0.5510880000000  0.5787270000000  0.5529520000000 1.0
C      1  0.5484740000000  0.4128550000000  0.4500070000000 1.0
C      1  0.4084770000000  0.4508780000000  0.5396470000000 1.0
C      1  0.4576700000000  0.5911820000000  0.4602200000000 1.0
C      1  0.5933110000000  0.5543840000000  0.5517910000000 1.0
C      1  0.4623680000000  0.5802520000000  0.5608170000000 1.0
C      1  0.5878570000000  0.5358300000000  0.4399990000000 1.0
C      1  0.5402470000000  0.4203830000000  0.5631940000000 1.0
C      1  0.4096610000000  0.4554010000000  0.4436250000000 1.0
C      1  0.4488950000000  0.4218820000000  0.4340530000000 1.0
C      1  0.4232060000000  0.5473950000000  0.5659220000000 1.0
C      1  0.5538350000000  0.5746110000000  0.4305030000000 1.0
C      1  0.5779220000000  0.4557730000000  0.5620290000000 1.0
C      1  0.4772910000000  0.3849420000000  0.5312080000000 1.0
C      1  0.3793130000000  0.5159210000000  0.4798170000000 1.0
C      1  0.5328980000000  0.5948630000000  0.5361630000000 1.0
C      1  0.6150750000000  0.4824540000000  0.4848940000000 1.0
C      1  0.5900550000000  0.5519110000000  0.4839400000000 1.0
C      1  0.5450800000000  0.4113390000000  0.5181680000000 1.0
C      1  0.4163450000000  0.4485350000000  0.4871130000000 1.0
C      1  0.4602650000000  0.5807680000000  0.5070430000000 1.0
C      1  0.4741080000000  0.5811340000000  0.4320950000000 1.0
C      1  0.5753840000000  0.5352680000000  0.5729750000000 1.0
C      1  0.5273120000000  0.4237580000000  0.4278650000000 1.0
C      1  0.4211730000000  0.4683930000000  0.5660250000000 1.0
C      1  0.4889180000000  0.4447660000000  0.5929760000000 1.0
C      1  0.4185270000000  0.5061910000000  0.4139530000000 1.0
C      1  0.4999130000000  0.5723120000000  0.5920790000000 1.0
C      1  0.5736900000000  0.5008360000000  0.4044210000000 1.0
C      1  0.4716400000000  0.5698490000000  0.5862370000000 1.0
C      1  0.5745540000000  0.5257560000000  0.4150980000000 1.0
C      1  0.5369170000000  0.4321760000000  0.5899240000000 1.0
C      1  0.4224490000000  0.4817660000000  0.4179170000000 1.0
C      1  0.4092700000000  0.5129210000000  0.5059630000000 1.0
C      1  0.5238130000000  0.5825560000000  0.4918970000000 1.0
C      1  0.5835810000000  0.4883560000000  0.5087640000000 1.0
C      1  0.4823960000000  0.4146160000000  0.4936540000000 1.0
C      1  0.5912150000000  0.5078590000000  0.5596180000000 1.0
C      1  0.4990370000000  0.4120450000000  0.4427680000000 1.0
C      1  0.4098970000000  0.4989940000000  0.5581580000000 1.0
C      1  0.5061260000000  0.5880120000000  0.4416150000000 1.0
C      1  0.4619830000000  0.5420540000000  0.5849630000000 1.0
C      1  0.5371100000000  0.5350580000000  0.4049620000000 1.0
C      1  0.5395580000000  0.4605910000000  0.6024850000000 1.0
C      1  0.4547830000000  0.4660090000000  0.4008140000000 1.0
C      1  0.4504120000000  0.5350660000000  0.5285660000000 1.0
C      1  0.5461750000000  0.5454170000000  0.4625200000000 1.0
C      1  0.5435520000000  0.4628920000000  0.5365210000000 1.0
C      1  0.4584860000000  0.4511460000000  0.4597700000000 1.0
C      1  0.5773890000000  0.5767780000000  0.5412290000000 1.0
C      1  0.5666880000000  0.4330750000000  0.4616340000000 1.0
C      1  0.4248430000000  0.4278370000000  0.5318280000000 1.0
C      1  0.4340110000000  0.5737140000000  0.4668740000000 1.0
C      1  0.4792740000000  0.5486350000000  0.5213760000000 1.0
C      1  0.5648080000000  0.5336330000000  0.4806870000000 1.0
C      1  0.5274410000000  0.4380540000000  0.5253920000000 1.0
C      1  0.4350580000000  0.4690500000000  0.4712040000000 1.0
C      1  0.3909710000000  0.4672630000000  0.5228260000000 1.0
C      1  0.4757300000000  0.6045810000000  0.4790720000000 1.0
C      1  0.6109820000000  0.5373660000000  0.5289520000000 1.0
C      1  0.5345450000000  0.3955130000000  0.4690820000000 1.0
C      1  0.4689550000000  0.5133240000000  0.4219350000000 1.0
C      1  0.5108880000000  0.5260500000000  0.5816220000000 1.0
C      1  0.5233950000000  0.4911630000000  0.4208010000000 1.0
C      1  0.4957330000000  0.4738050000000  0.5829950000000 1.0
C      1  0.5740310000000  0.5237910000000  0.5348400000000 1.0
C      1  0.5162830000000  0.4307200000000  0.4655280000000 1.0
C      1  0.4254300000000  0.4859050000000  0.5306080000000 1.0
C      1  0.4908920000000  0.5699090000000  0.4662960000000 1.0
C      1  0.4527060000000  0.4766900000000  0.5428580000000 1.0
C      1  0.4779590000000  0.5446580000000  0.4522680000000 1.0
C      1  0.5466440000000  0.5242680000000  0.5477570000000 1.0
C      1  0.5265220000000  0.4560310000000  0.4537930000000 1.0
C      1  0.4467450000000  0.5362220000000  0.4616750000000 1.0
C      1  0.5288290000000  0.5395460000000  0.5291820000000 1.0
C      1  0.5513120000000  0.4687220000000  0.4710760000000 1.0
C      1  0.4623760000000  0.4479400000000  0.5302470000000 1.0
C      1  0.4644100000000  0.4257050000000  0.4706360000000 1.0
C      1  0.4225840000000  0.5385990000000  0.5175340000000 1.0
C      1  0.5382850000000  0.5720280000000  0.4671520000000 1.0
C      1  0.5714740000000  0.4639580000000  0.5236270000000 1.0
C      1  0.4983860000000  0.5373540000000  0.4881110000000 1.0
C      1  0.5354670000000  0.4998900000000  0.5040810000000 1.0
C      1  0.4962110000000  0.4608540000000  0.4907840000000 1.0
C      1  0.4576890000000  0.5010390000000  0.4986550000000 1.0
C      1  0.4055820000000  0.5489410000000  0.5415580000000 1.0
C      1  0.5582960000000  0.5932380000000  0.4567990000000 1.0
C      1  0.5947450000000  0.4449910000000  0.5348890000000 1.0
C      1  0.4457620000000  0.4023220000000  0.4599120000000 1.0
C      1  0.3878900000000  0.4886100000000  0.4769830000000 1.0
C      1  0.5043260000000  0.5999660000000  0.5318280000000 1.0
C      1  0.6107280000000  0.5097210000000  0.4786450000000 1.0
C      1  0.5046020000000  0.3869200000000  0.5386620000000 1.0
C      1  0.5066440000000  0.6001290000000  0.4715070000000 1.0
C      1  0.6015490000000  0.5046400000000  0.5280220000000 1.0
C      1  0.5008040000000  0.3984730000000  0.4726530000000 1.0
C      1  0.3938520000000  0.4980150000000  0.5294210000000 1.0
C      1  0.5125030000000  0.4855410000000  0.5255140000000 1.0
C      1  0.4827560000000  0.4856360000000  0.4704780000000 1.0
C      1  0.4865680000000  0.5158340000000  0.5266370000000 1.0
C      1  0.5134680000000  0.5110120000000  0.4718540000000 1.0
C      1  0.5459580000000  0.5520500000000  0.5681530000000 1.0
C      1  0.5390160000000  0.4528140000000  0.4227880000000 1.0
C      1  0.4495050000000  0.4539420000000  0.5675040000000 1.0
C      1  0.4578910000000  0.5534370000000  0.4274820000000 1.0
C      1  0.4674120000000  0.4694040000000  0.5041470000000 1.0
C      1  0.4664740000000  0.5296730000000  0.4885720000000 1.0
C      1  0.5230900000000  0.5275980000000  0.5066570000000 1.0
C      1  0.5252230000000  0.4731140000000  0.4898680000000 1.0
C      1  0.4745480000000  0.4325310000000  0.5715380000000 1.0
C      1  0.4382520000000  0.5279910000000  0.4210010000000 1.0
C      1  0.5202380000000  0.5552490000000  0.5855690000000 1.0
C      1  0.5553810000000  0.4803040000000  0.4167940000000 1.0
C      1  0.4959760000000  0.4994080000000  0.4990460000000 1.0
END
