TITL C-2782230-7391-118 -0.0957245602691981 125000 -1048.40985344038 0 0 182 (C1) n - 1
REM
REM in /home/nfs/bkarasulu/CARBON/AIRSS/Generating-Clusters/REBO/Higher-Symm/SD-CG/HFTN-CG
REM
REM
REM
REM
REM
REM ./C.cell (12c818d87b63d06a65506943cc24bca4)
REM
REM compiler GCC version 9.2.1 20190827 (Red Hat 9.2.1-1)
REM options -cpp -mtune=generic -march=x86-64 -g -O0 -fpre-include=/usr/include/finclude/math-vector-fortran.h
REM seed 447436450 -1145511373 174641913 -926966706 -1429494025 -388742424 1254285286 -1879770200 1493749585 882883611 2125098230 1654977648 -1105920178 -211548891 1787412051 868316568 668799149 -1729672187 -752595963 2130178258 1357411684 2077477437 740635066 -1400933851 -945863270 1044265744 1054661133 -1081853431 -1860257010 -72708872 -499512024 1363373605 -987550083
REM
CELL 1.54180   50.00000   50.00000   50.00000   90.00000   90.00000   90.00000
LATT -1
SFAC C  
C      1  0.4562340000000  0.4112730000000  0.5634430000000 1.0
C      1  0.4558360000000  0.5878610000000  0.4361980000000 1.0
C      1  0.4557690000000  0.4155550000000  0.4427740000000 1.0
C      1  0.4554800000000  0.5810670000000  0.5565690000000 1.0
C      1  0.5207170000000  0.5561500000000  0.5443680000000 1.0
C      1  0.5167380000000  0.4476450000000  0.4565160000000 1.0
C      1  0.5242420000000  0.5556370000000  0.4497470000000 1.0
C      1  0.5220670000000  0.4422310000000  0.5489640000000 1.0
C      1  0.4100330000000  0.4817140000000  0.5218380000000 1.0
C      1  0.4143100000000  0.5160240000000  0.4810340000000 1.0
C      1  0.4122600000000  0.4826410000000  0.4877380000000 1.0
C      1  0.4127720000000  0.5147620000000  0.5152240000000 1.0
C      1  0.5777340000000  0.5271490000000  0.5267160000000 1.0
C      1  0.5800720000000  0.4708850000000  0.4734740000000 1.0
C      1  0.5808790000000  0.5303650000000  0.4719660000000 1.0
C      1  0.5793010000000  0.4695700000000  0.5286420000000 1.0
C      1  0.4252100000000  0.5362620000000  0.4207250000000 1.0
C      1  0.4232080000000  0.4605800000000  0.5784240000000 1.0
C      1  0.4270240000000  0.5292970000000  0.5740680000000 1.0
C      1  0.4236330000000  0.4658890000000  0.4290750000000 1.0
C      1  0.4691680000000  0.4415820000000  0.5546140000000 1.0
C      1  0.4714850000000  0.5585320000000  0.4440000000000 1.0
C      1  0.4748000000000  0.4444750000000  0.4481170000000 1.0
C      1  0.4759920000000  0.5533410000000  0.5509900000000 1.0
C      1  0.4212200000000  0.5722830000000  0.5229160000000 1.0
C      1  0.4213540000000  0.4238260000000  0.4755740000000 1.0
C      1  0.4216110000000  0.5763860000000  0.4702320000000 1.0
C      1  0.4232950000000  0.4265760000000  0.5282910000000 1.0
C      1  0.5656090000000  0.5656530000000  0.4490670000000 1.0
C      1  0.5696120000000  0.4308890000000  0.5485510000000 1.0
C      1  0.5672590000000  0.5658550000000  0.5481580000000 1.0
C      1  0.5652850000000  0.4362000000000  0.4483140000000 1.0
C      1  0.4434090000000  0.4091180000000  0.5345300000000 1.0
C      1  0.4436520000000  0.5920620000000  0.4648730000000 1.0
C      1  0.4431760000000  0.4080950000000  0.4696110000000 1.0
C      1  0.4423530000000  0.5881490000000  0.5300630000000 1.0
C      1  0.5803060000000  0.5441640000000  0.4344540000000 1.0
C      1  0.5826910000000  0.4521540000000  0.5643780000000 1.0
C      1  0.5790760000000  0.5432330000000  0.5632220000000 1.0
C      1  0.5793050000000  0.4587840000000  0.4350450000000 1.0
C      1  0.4393810000000  0.4428480000000  0.4304570000000 1.0
C      1  0.4411900000000  0.5531460000000  0.5699710000000 1.0
C      1  0.4391790000000  0.4354000000000  0.5801110000000 1.0
C      1  0.4396540000000  0.5620640000000  0.4205840000000 1.0
C      1  0.4899020000000  0.4080180000000  0.5587090000000 1.0
C      1  0.4885030000000  0.5943070000000  0.4438030000000 1.0
C      1  0.4886320000000  0.4074480000000  0.4462240000000 1.0
C      1  0.4884140000000  0.5905590000000  0.5558700000000 1.0
C      1  0.4547530000000  0.4521860000000  0.5312490000000 1.0
C      1  0.4593830000000  0.5485040000000  0.4687380000000 1.0
C      1  0.4586500000000  0.4572420000000  0.4695220000000 1.0
C      1  0.4556760000000  0.5477530000000  0.5254620000000 1.0
C      1  0.5409430000000  0.3989380000000  0.4832910000000 1.0
C      1  0.5389930000000  0.6054590000000  0.5226010000000 1.0
C      1  0.5392060000000  0.3938800000000  0.5228470000000 1.0
C      1  0.5425850000000  0.6020390000000  0.4830150000000 1.0
C      1  0.4645960000000  0.4074600000000  0.5160120000000 1.0
C      1  0.4645740000000  0.5914320000000  0.4841220000000 1.0
C      1  0.4644200000000  0.4077050000000  0.4886290000000 1.0
C      1  0.4636540000000  0.5916700000000  0.5116440000000 1.0
C      1  0.4891340000000  0.5821080000000  0.5255470000000 1.0
C      1  0.4898840000000  0.4200260000000  0.4757500000000 1.0
C      1  0.4910010000000  0.5791720000000  0.4719880000000 1.0
C      1  0.4897450000000  0.4184790000000  0.5293190000000 1.0
C      1  0.4428890000000  0.4840410000000  0.5515840000000 1.0
C      1  0.4482060000000  0.5174670000000  0.4471790000000 1.0
C      1  0.4401840000000  0.4884860000000  0.4575770000000 1.0
C      1  0.4458880000000  0.5147550000000  0.5421710000000 1.0
C      1  0.4691920000000  0.4400340000000  0.4143190000000 1.0
C      1  0.4702730000000  0.5570840000000  0.5847950000000 1.0
C      1  0.4697360000000  0.4413950000000  0.5891930000000 1.0
C      1  0.4706700000000  0.5620700000000  0.4095540000000 1.0
C      1  0.5477980000000  0.5602010000000  0.4177430000000 1.0
C      1  0.5461900000000  0.4387140000000  0.5929230000000 1.0
C      1  0.5449840000000  0.5597170000000  0.5917930000000 1.0
C      1  0.5460810000000  0.4443770000000  0.4182540000000 1.0
C      1  0.5158770000000  0.4073810000000  0.5682370000000 1.0
C      1  0.5134650000000  0.6014740000000  0.4335810000000 1.0
C      1  0.5135050000000  0.4040560000000  0.4346360000000 1.0
C      1  0.5142880000000  0.5928150000000  0.5659440000000 1.0
C      1  0.5212840000000  0.4741610000000  0.5579820000000 1.0
C      1  0.5174600000000  0.5266490000000  0.4372040000000 1.0
C      1  0.5072940000000  0.4761000000000  0.4440110000000 1.0
C      1  0.5147310000000  0.5248430000000  0.5512840000000 1.0
C      1  0.5203570000000  0.5461790000000  0.4025030000000 1.0
C      1  0.5177700000000  0.4555130000000  0.5981810000000 1.0
C      1  0.5180030000000  0.5424190000000  0.6003910000000 1.0
C      1  0.5181140000000  0.4594620000000  0.4037870000000 1.0
C      1  0.5347000000000  0.4254730000000  0.4413350000000 1.0
C      1  0.5410380000000  0.5730030000000  0.5648230000000 1.0
C      1  0.5438670000000  0.4252670000000  0.5654340000000 1.0
C      1  0.5383780000000  0.5835040000000  0.4390300000000 1.0
C      1  0.5416210000000  0.5156200000000  0.5401070000000 1.0
C      1  0.5359580000000  0.4821290000000  0.4501940000000 1.0
C      1  0.5409750000000  0.5126900000000  0.4466820000000 1.0
C      1  0.5459900000000  0.4856870000000  0.5437970000000 1.0
C      1  0.4859060000000  0.4649630000000  0.6037850000000 1.0
C      1  0.4882230000000  0.5410090000000  0.3933410000000 1.0
C      1  0.4849150000000  0.4617690000000  0.3963810000000 1.0
C      1  0.4857090000000  0.5359490000000  0.6036570000000 1.0
C      1  0.5501480000000  0.5174360000000  0.4796340000000 1.0
C      1  0.5494440000000  0.4721770000000  0.5146040000000 1.0
C      1  0.5483900000000  0.5272170000000  0.5115720000000 1.0
C      1  0.5494210000000  0.4829710000000  0.4822060000000 1.0
C      1  0.5002780000000  0.5604800000000  0.4260660000000 1.0
C      1  0.4985610000000  0.4447610000000  0.5718190000000 1.0
C      1  0.5021460000000  0.5554950000000  0.5730550000000 1.0
C      1  0.5010610000000  0.4412010000000  0.4265660000000 1.0
C      1  0.4696580000000  0.5170340000000  0.3845560000000 1.0
C      1  0.4653130000000  0.4859160000000  0.6160020000000 1.0
C      1  0.4655650000000  0.5178610000000  0.6176920000000 1.0
C      1  0.4641970000000  0.4859920000000  0.3879690000000 1.0
C      1  0.4145550000000  0.5172900000000  0.4469370000000 1.0
C      1  0.4098000000000  0.4774630000000  0.5549990000000 1.0
C      1  0.4132640000000  0.5107700000000  0.5490620000000 1.0
C      1  0.4085940000000  0.4841730000000  0.4536010000000 1.0
C      1  0.4951410000000  0.5191860000000  0.5136660000000 1.0
C      1  0.4930510000000  0.4811010000000  0.4809760000000 1.0
C      1  0.4964760000000  0.5151930000000  0.4813380000000 1.0
C      1  0.4939470000000  0.4845700000000  0.5127600000000 1.0
C      1  0.5340700000000  0.5479620000000  0.4793520000000 1.0
C      1  0.5319850000000  0.4454130000000  0.5168820000000 1.0
C      1  0.5331830000000  0.5550970000000  0.5127300000000 1.0
C      1  0.5316180000000  0.4535370000000  0.4839590000000 1.0
C      1  0.5185510000000  0.5838400000000  0.5155900000000 1.0
C      1  0.5194520000000  0.4219840000000  0.4870000000000 1.0
C      1  0.5205430000000  0.5788540000000  0.4832220000000 1.0
C      1  0.5185940000000  0.4161780000000  0.5188120000000 1.0
C      1  0.5729760000000  0.5584820000000  0.5150600000000 1.0
C      1  0.5735170000000  0.4393320000000  0.4811810000000 1.0
C      1  0.5737340000000  0.5610030000000  0.4810390000000 1.0
C      1  0.5731910000000  0.4400150000000  0.5153560000000 1.0
C      1  0.6013810000000  0.5133420000000  0.5144810000000 1.0
C      1  0.6029790000000  0.4853050000000  0.4863310000000 1.0
C      1  0.6038590000000  0.5166090000000  0.4844820000000 1.0
C      1  0.6028620000000  0.4830620000000  0.5168160000000 1.0
C      1  0.4416930000000  0.5156490000000  0.4023650000000 1.0
C      1  0.4434240000000  0.4791800000000  0.5914740000000 1.0
C      1  0.4441000000000  0.5111570000000  0.5936860000000 1.0
C      1  0.4354470000000  0.4842480000000  0.4059210000000 1.0
C      1  0.5667640000000  0.4094420000000  0.4912920000000 1.0
C      1  0.5676880000000  0.5905380000000  0.5255260000000 1.0
C      1  0.5684260000000  0.4075930000000  0.5246230000000 1.0
C      1  0.5674220000000  0.5903110000000  0.4923120000000 1.0
C      1  0.5344370000000  0.4889730000000  0.3985360000000 1.0
C      1  0.5345820000000  0.5125220000000  0.6030230000000 1.0
C      1  0.5340920000000  0.4855170000000  0.6026290000000 1.0
C      1  0.5355380000000  0.5158660000000  0.3979080000000 1.0
C      1  0.4566830000000  0.5174510000000  0.4796000000000 1.0
C      1  0.4537080000000  0.4833960000000  0.5191300000000 1.0
C      1  0.4554590000000  0.5166830000000  0.5112500000000 1.0
C      1  0.4537900000000  0.4846560000000  0.4877380000000 1.0
C      1  0.4913210000000  0.4857950000000  0.4171350000000 1.0
C      1  0.4973220000000  0.5163890000000  0.5792130000000 1.0
C      1  0.5000220000000  0.4865150000000  0.5816290000000 1.0
C      1  0.4977300000000  0.5152770000000  0.4129420000000 1.0
C      1  0.4257840000000  0.5432970000000  0.5096360000000 1.0
C      1  0.4286350000000  0.4532880000000  0.4826020000000 1.0
C      1  0.4282130000000  0.5468920000000  0.4787320000000 1.0
C      1  0.4258090000000  0.4554220000000  0.5137020000000 1.0
C      1  0.5563190000000  0.4647020000000  0.6018650000000 1.0
C      1  0.5581710000000  0.5342170000000  0.4029620000000 1.0
C      1  0.5564080000000  0.4699940000000  0.4042690000000 1.0
C      1  0.5567520000000  0.5337140000000  0.5998550000000 1.0
C      1  0.4667770000000  0.5245610000000  0.4235970000000 1.0
C      1  0.4689430000000  0.4781720000000  0.5701250000000 1.0
C      1  0.4651450000000  0.5188710000000  0.5680870000000 1.0
C      1  0.4595500000000  0.4833000000000  0.4299090000000 1.0
C      1  0.4854760000000  0.5097360000000  0.5422570000000 1.0
C      1  0.4797880000000  0.4912200000000  0.4545140000000 1.0
C      1  0.4876530000000  0.5225480000000  0.4506080000000 1.0
C      1  0.4909170000000  0.4776940000000  0.5441770000000 1.0
C      1  0.5749810000000  0.4812150000000  0.5592310000000 1.0
C      1  0.5731560000000  0.5166490000000  0.4432730000000 1.0
C      1  0.5693870000000  0.4848970000000  0.4454590000000 1.0
C      1  0.5707260000000  0.5142710000000  0.5568120000000 1.0
C      1  0.4936070000000  0.5521340000000  0.5153110000000 1.0
C      1  0.4922200000000  0.4509650000000  0.4896890000000 1.0
C      1  0.4947960000000  0.5486380000000  0.4866290000000 1.0
C      1  0.4923430000000  0.4495640000000  0.5183130000000 1.0
C      1  0.5367350000000  0.6263680000000  0.5011010000000 1.0
C      1  0.5354470000000  0.3739950000000  0.5006220000000 1.0
END
