TITL C-2782229-3092-263 -0.000737943298264559 125000 -416.144907710997 0 0 72 (C1) n - 1
REM
REM in /home/nfs/bkarasulu/CARBON/AIRSS/Generating-Clusters/REBO/Higher-Symm/SD-CG/HFTN-CG
REM
REM
REM
REM
REM
REM ./C.cell (12c818d87b63d06a65506943cc24bca4)
REM
REM compiler GCC version 9.2.1 20190827 (Red Hat 9.2.1-1)
REM options -cpp -mtune=generic -march=x86-64 -g -O0 -fpre-include=/usr/include/finclude/math-vector-fortran.h
REM seed -940831568 -377205721 1632063291 1893477801 -61947855 -1281869177 -440480231 1032334516 -428037397 -1380976587 1958360515 1608627870 -1366187188 77981431 -1136241712 -1001983456 204444337 437438308 1925991381 -1136869734 -804513142 -901037146 -1810555473 1904562473 1736839479 921597419 441670854 -651763223 -1583545677 746049505 -1553861830 -2091103831 1451286233
REM
CELL 1.54180   50.00000   50.00000   50.00000   90.00000   90.00000   90.00000
LATT -1
SFAC C  
C      1  0.5166040000000  0.4690760000000  0.5278040000000 1.0
C      1  0.4755770000000  0.4696650000000  0.5314640000000 1.0
C      1  0.5635340000000  0.5486050000000  0.4668740000000 1.0
C      1  0.4377820000000  0.5460960000000  0.4602830000000 1.0
C      1  0.5574550000000  0.5829890000000  0.4306040000000 1.0
C      1  0.4477060000000  0.5786070000000  0.4232030000000 1.0
C      1  0.5273600000000  0.4391940000000  0.4637800000000 1.0
C      1  0.4728830000000  0.4394320000000  0.4735870000000 1.0
C      1  0.4522050000000  0.5682720000000  0.4477720000000 1.0
C      1  0.5499510000000  0.5709310000000  0.4536020000000 1.0
C      1  0.5549860000000  0.4796950000000  0.4643660000000 1.0
C      1  0.4405430000000  0.4745730000000  0.4659230000000 1.0
C      1  0.5238630000000  0.5349280000000  0.5464010000000 1.0
C      1  0.4742010000000  0.5382430000000  0.5465860000000 1.0
C      1  0.5250440000000  0.5581010000000  0.4914470000000 1.0
C      1  0.4718780000000  0.5587130000000  0.4895100000000 1.0
C      1  0.4251510000000  0.5212960000000  0.4531170000000 1.0
C      1  0.5774180000000  0.5244390000000  0.4599220000000 1.0
C      1  0.5680260000000  0.5021530000000  0.4758800000000 1.0
C      1  0.4310100000000  0.5004670000000  0.4724050000000 1.0
C      1  0.4480820000000  0.4690570000000  0.4389020000000 1.0
C      1  0.5384000000000  0.4849330000000  0.4428640000000 1.0
C      1  0.4529620000000  0.4565820000000  0.4845980000000 1.0
C      1  0.5445000000000  0.4570290000000  0.4789800000000 1.0
C      1  0.5187920000000  0.4909630000000  0.4193420000000 1.0
C      1  0.4711240000000  0.4822250000000  0.4208140000000 1.0
C      1  0.4488660000000  0.5424880000000  0.4871610000000 1.0
C      1  0.5486410000000  0.5427450000000  0.4913650000000 1.0
C      1  0.5419500000000  0.5063540000000  0.5808580000000 1.0
C      1  0.4635080000000  0.5175320000000  0.5884520000000 1.0
C      1  0.5250320000000  0.5755650000000  0.4684030000000 1.0
C      1  0.4744250000000  0.5750570000000  0.4657020000000 1.0
C      1  0.5137900000000  0.5000980000000  0.4787230000000 1.0
C      1  0.4748050000000  0.4931010000000  0.4793950000000 1.0
C      1  0.5196710000000  0.5078120000000  0.5376740000000 1.0
C      1  0.4738880000000  0.5106470000000  0.5389310000000 1.0
C      1  0.5721640000000  0.5131910000000  0.5247110000000 1.0
C      1  0.4193530000000  0.5168040000000  0.5186720000000 1.0
C      1  0.5417590000000  0.4596280000000  0.5067500000000 1.0
C      1  0.4502760000000  0.4606580000000  0.5118420000000 1.0
C      1  0.5305070000000  0.4806160000000  0.5758380000000 1.0
C      1  0.4690450000000  0.4913510000000  0.5789910000000 1.0
C      1  0.5387300000000  0.5322920000000  0.5707980000000 1.0
C      1  0.4654840000000  0.5409660000000  0.5735640000000 1.0
C      1  0.5369030000000  0.4622050000000  0.5549780000000 1.0
C      1  0.4553900000000  0.4803880000000  0.5573330000000 1.0
C      1  0.5441710000000  0.4413110000000  0.5327310000000 1.0
C      1  0.4360650000000  0.4720760000000  0.5358410000000 1.0
C      1  0.5275620000000  0.5017710000000  0.5076110000000 1.0
C      1  0.4654900000000  0.5017910000000  0.5099470000000 1.0
C      1  0.5549840000000  0.5138160000000  0.5024440000000 1.0
C      1  0.4398770000000  0.5149080000000  0.4995240000000 1.0
C      1  0.5094390000000  0.4693210000000  0.4447640000000 1.0
C      1  0.4741240000000  0.4512150000000  0.4302470000000 1.0
C      1  0.4964020000000  0.4878050000000  0.5121910000000 1.0
C      1  0.4986860000000  0.4798160000000  0.5783760000000 1.0
C      1  0.5054760000000  0.4139740000000  0.5366230000000 1.0
C      1  0.5015100000000  0.5796520000000  0.5428100000000 1.0
C      1  0.4987700000000  0.5489550000000  0.5038910000000 1.0
C      1  0.5050510000000  0.4484880000000  0.4955400000000 1.0
C      1  0.4991700000000  0.4695090000000  0.4768420000000 1.0
C      1  0.5332690000000  0.4060610000000  0.4953900000000 1.0
C      1  0.4999660000000  0.5860570000000  0.4606730000000 1.0
C      1  0.4915730000000  0.5005590000000  0.4273830000000 1.0
C      1  0.5218310000000  0.4255620000000  0.5121750000000 1.0
C      1  0.4971890000000  0.4580280000000  0.5535200000000 1.0
C      1  0.4959790000000  0.4392540000000  0.4510910000000 1.0
C      1  0.4971940000000  0.4278030000000  0.5558530000000 1.0
C      1  0.4996620000000  0.5525050000000  0.5350840000000 1.0
C      1  0.4911240000000  0.5108210000000  0.4551210000000 1.0
C      1  0.4964590000000  0.4977750000000  0.5506440000000 1.0
C      1  0.4901410000000  0.5233350000000  0.4870430000000 1.0
END
