TITL C-2782230-7391-404 0.00111994791690262 125000 -322.376387471322 0 0 56 (C1) n - 1
REM
REM in /home/nfs/bkarasulu/CARBON/AIRSS/Generating-Clusters/REBO/Higher-Symm/SD-CG/HFTN-CG
REM
REM
REM
REM
REM
REM ./C.cell (12c818d87b63d06a65506943cc24bca4)
REM
REM compiler GCC version 9.2.1 20190827 (Red Hat 9.2.1-1)
REM options -cpp -mtune=generic -march=x86-64 -g -O0 -fpre-include=/usr/include/finclude/math-vector-fortran.h
REM seed -565578839 583229422 -996945221 822374197 89241879 -2054321852 668633245 -1675521182 -328246780 -165521877 -323101434 -1083143742 1612389544 -1797127841 -420565915 -1650593631 -850263058 -931959852 -1496899445 379310906 -1843795838 -719796271 662108934 1307164305 683597777 1855133016 -2073517667 -341125304 536537449 709170307 318816480 1785623232 1331683372
REM
CELL 1.54180   50.00000   50.00000   50.00000   90.00000   90.00000   90.00000
LATT -1
SFAC C  
C      1  0.4583420000000  0.5129840000000  0.4411820000000 1.0
C      1  0.5419910000000  0.4877790000000  0.4382660000000 1.0
C      1  0.5442990000000  0.5162270000000  0.4386920000000 1.0
C      1  0.4584950000000  0.4838700000000  0.4426650000000 1.0
C      1  0.4871870000000  0.5465850000000  0.5431370000000 1.0
C      1  0.5088460000000  0.4497360000000  0.5413620000000 1.0
C      1  0.5144150000000  0.5469430000000  0.5425380000000 1.0
C      1  0.4814490000000  0.4497690000000  0.5429810000000 1.0
C      1  0.5631330000000  0.5261110000000  0.4631990000000 1.0
C      1  0.4441660000000  0.4760520000000  0.4711510000000 1.0
C      1  0.4436580000000  0.5245770000000  0.4691250000000 1.0
C      1  0.5577960000000  0.4727830000000  0.4620060000000 1.0
C      1  0.5242280000000  0.5636000000000  0.4639890000000 1.0
C      1  0.4778790000000  0.4402110000000  0.4714490000000 1.0
C      1  0.4735060000000  0.5552210000000  0.4681140000000 1.0
C      1  0.5295650000000  0.4416530000000  0.4681670000000 1.0
C      1  0.5332620000000  0.4697220000000  0.5284800000000 1.0
C      1  0.4593680000000  0.5294310000000  0.5332230000000 1.0
C      1  0.4559710000000  0.4705390000000  0.5336490000000 1.0
C      1  0.5412200000000  0.5290250000000  0.5311470000000 1.0
C      1  0.5202400000000  0.4625860000000  0.4914320000000 1.0
C      1  0.4881740000000  0.5399120000000  0.4939270000000 1.0
C      1  0.4890260000000  0.4623230000000  0.4932020000000 1.0
C      1  0.5188690000000  0.5432270000000  0.4885850000000 1.0
C      1  0.5335380000000  0.5175460000000  0.4768610000000 1.0
C      1  0.4745910000000  0.4874070000000  0.4787390000000 1.0
C      1  0.4743050000000  0.5164430000000  0.4773400000000 1.0
C      1  0.5308490000000  0.4892620000000  0.4765410000000 1.0
C      1  0.4856410000000  0.5130250000000  0.5824460000000 1.0
C      1  0.5125700000000  0.4838330000000  0.5805650000000 1.0
C      1  0.5176380000000  0.5146450000000  0.5819190000000 1.0
C      1  0.4808760000000  0.4819450000000  0.5830740000000 1.0
C      1  0.5172450000000  0.4690520000000  0.4522010000000 1.0
C      1  0.4867490000000  0.5301830000000  0.4491900000000 1.0
C      1  0.4865740000000  0.4678640000000  0.4536800000000 1.0
C      1  0.5173260000000  0.5335790000000  0.4498560000000 1.0
C      1  0.4269310000000  0.4861130000000  0.4923040000000 1.0
C      1  0.5710180000000  0.5121120000000  0.4897330000000 1.0
C      1  0.5683040000000  0.4831530000000  0.4890330000000 1.0
C      1  0.4275720000000  0.5155260000000  0.4919010000000 1.0
C      1  0.5596390000000  0.4698020000000  0.5128760000000 1.0
C      1  0.4333350000000  0.5281950000000  0.5171850000000 1.0
C      1  0.4299490000000  0.4735420000000  0.5179990000000 1.0
C      1  0.5666730000000  0.5252330000000  0.5148350000000 1.0
C      1  0.5122030000000  0.4883990000000  0.5125490000000 1.0
C      1  0.4832310000000  0.5154600000000  0.5168450000000 1.0
C      1  0.4797420000000  0.4828660000000  0.5179440000000 1.0
C      1  0.5168360000000  0.5200570000000  0.5130720000000 1.0
C      1  0.4809560000000  0.5809800000000  0.4622420000000 1.0
C      1  0.5180010000000  0.4170820000000  0.4655090000000 1.0
C      1  0.5082290000000  0.5853610000000  0.4599150000000 1.0
C      1  0.4903730000000  0.4162940000000  0.4673700000000 1.0
C      1  0.4657900000000  0.4663610000000  0.5653880000000 1.0
C      1  0.5316060000000  0.5300700000000  0.5633090000000 1.0
C      1  0.5254690000000  0.4681700000000  0.5611090000000 1.0
C      1  0.4711550000000  0.5295740000000  0.5648010000000 1.0
END
