TITL C-2782228-2999-604 -0.00397455295458671 125000 -347.719725513185 0 0 60 (C1) n - 1
REM
REM in /home/nfs/bkarasulu/CARBON/AIRSS/Generating-Clusters/REBO/Higher-Symm/SD-CG/HFTN-CG
REM
REM
REM
REM
REM
REM ./C.cell (12c818d87b63d06a65506943cc24bca4)
REM
REM compiler GCC version 9.2.1 20190827 (Red Hat 9.2.1-1)
REM options -cpp -mtune=generic -march=x86-64 -g -O0 -fpre-include=/usr/include/finclude/math-vector-fortran.h
REM seed -1905387619 -842764999 -2021027472 1203475857 -1789889184 377256065 -41885816 615312895 -1486667473 245396492 -1463760271 -1045563194 -1858620865 -1300450322 458354308 -1883992654 -1399499816 -78278002 1908345832 -285957110 2049056852 -859461397 1605194197 653810257 -1582065072 -358976625 1151955727 -954938755 1000697917 -670854630 1253576925 -245564068 1474616148
REM
CELL 1.54180   50.00000   50.00000   50.00000   90.00000   90.00000   90.00000
LATT -1
SFAC C  
C      1  0.4643530000000  0.5143370000000  0.4788900000000 1.0
C      1  0.5172380000000  0.4737230000000  0.4638750000000 1.0
C      1  0.4856850000000  0.4539060000000  0.5115490000000 1.0
C      1  0.4760320000000  0.4829380000000  0.5192060000000 1.0
C      1  0.5408450000000  0.5077150000000  0.5224130000000 1.0
C      1  0.5415380000000  0.4866440000000  0.4802230000000 1.0
C      1  0.5165460000000  0.5234440000000  0.5368490000000 1.0
C      1  0.5015180000000  0.4709600000000  0.5341840000000 1.0
C      1  0.4896570000000  0.5295320000000  0.4672670000000 1.0
C      1  0.4699590000000  0.5467130000000  0.4880030000000 1.0
C      1  0.5271470000000  0.4598060000000  0.4918230000000 1.0
C      1  0.5282270000000  0.5344780000000  0.5089760000000 1.0
C      1  0.5239490000000  0.4424470000000  0.5130190000000 1.0
C      1  0.4563560000000  0.5012710000000  0.5171960000000 1.0
C      1  0.5096520000000  0.5242510000000  0.4498520000000 1.0
C      1  0.5226110000000  0.5520380000000  0.4888140000000 1.0
C      1  0.4811950000000  0.4320890000000  0.4954470000000 1.0
C      1  0.4741190000000  0.5636430000000  0.5121930000000 1.0
C      1  0.4544180000000  0.4900710000000  0.4789230000000 1.0
C      1  0.5573290000000  0.5084180000000  0.4847630000000 1.0
C      1  0.5560140000000  0.4854760000000  0.5174910000000 1.0
C      1  0.5195360000000  0.4773860000000  0.5534990000000 1.0
C      1  0.4944400000000  0.5281460000000  0.5522830000000 1.0
C      1  0.4974680000000  0.4775910000000  0.4451170000000 1.0
C      1  0.4746680000000  0.4351890000000  0.4681450000000 1.0
C      1  0.4563050000000  0.4589460000000  0.4647180000000 1.0
C      1  0.4692790000000  0.4790630000000  0.4436150000000 1.0
C      1  0.4767810000000  0.5614250000000  0.5391290000000 1.0
C      1  0.5102110000000  0.4319410000000  0.5342000000000 1.0
C      1  0.5086990000000  0.5646250000000  0.4694940000000 1.0
C      1  0.4468530000000  0.5265340000000  0.5240090000000 1.0
C      1  0.5651270000000  0.4642840000000  0.5035280000000 1.0
C      1  0.5662230000000  0.5305400000000  0.4971400000000 1.0
C      1  0.4623610000000  0.5352000000000  0.5508100000000 1.0
C      1  0.5344930000000  0.4927150000000  0.5696370000000 1.0
C      1  0.5260980000000  0.5096480000000  0.4345230000000 1.0
C      1  0.5539170000000  0.5575000000000  0.5403760000000 1.0
C      1  0.5459110000000  0.5429240000000  0.5680230000000 1.0
C      1  0.5267220000000  0.5660300000000  0.5560700000000 1.0
C      1  0.5503090000000  0.4420780000000  0.4588440000000 1.0
C      1  0.4392510000000  0.5456610000000  0.4735210000000 1.0
C      1  0.4421870000000  0.4618920000000  0.5220310000000 1.0
C      1  0.5397600000000  0.4596840000000  0.4339490000000 1.0
C      1  0.4470750000000  0.5280310000000  0.4455170000000 1.0
C      1  0.4475550000000  0.4792790000000  0.5494070000000 1.0
C      1  0.5216460000000  0.4351770000000  0.4446670000000 1.0
C      1  0.4615760000000  0.5562260000000  0.4501040000000 1.0
C      1  0.4628870000000  0.4506600000000  0.5449540000000 1.0
C      1  0.5640220000000  0.4478130000000  0.4820860000000 1.0
C      1  0.4488390000000  0.5056670000000  0.5579740000000 1.0
C      1  0.4865280000000  0.5671810000000  0.4541700000000 1.0
C      1  0.5650620000000  0.5489670000000  0.5167470000000 1.0
C      1  0.4418360000000  0.4659740000000  0.4947930000000 1.0
C      1  0.4341770000000  0.5407530000000  0.5047920000000 1.0
C      1  0.4550410000000  0.5027100000000  0.4383910000000 1.0
C      1  0.5370880000000  0.4861880000000  0.4272480000000 1.0
C      1  0.5444270000000  0.5167900000000  0.5765450000000 1.0
C      1  0.4862710000000  0.4357150000000  0.5471160000000 1.0
C      1  0.4998630000000  0.5705240000000  0.5521130000000 1.0
C      1  0.4951170000000  0.4294450000000  0.4497570000000 1.0
END
