TITL C-2782234-8014-698 0.00136354686310602 125000 -953.990958165142 0 0 161 (C1) n - 1
REM
REM in /home/nfs/bkarasulu/CARBON/AIRSS/Generating-Clusters/REBO/Higher-Symm/SD-CG/HFTN-CG
REM
REM
REM
REM
REM
REM ./C.cell (12c818d87b63d06a65506943cc24bca4)
REM
REM compiler GCC version 9.2.1 20190827 (Red Hat 9.2.1-1)
REM options -cpp -mtune=generic -march=x86-64 -g -O0 -fpre-include=/usr/include/finclude/math-vector-fortran.h
REM seed -1306942083 -752072600 -1332100557 -1159216646 -1072145949 339475511 -1803863412 1952384179 241066882 285827419 -1050986909 -175354805 -2039896918 -768897257 -861766408 -2065786314 -1061792880 1811918765 -1616021022 1996316131 -1079071643 -663654032 -1468735689 795117094 -1779218519 -1894432653 -574518569 -897071903 -1052847426 -1495469215 -808779884 -1686614496 475596265
REM
CELL 1.54180   50.00000   50.00000   50.00000   90.00000   90.00000   90.00000
LATT -1
SFAC C  
C      1  0.5505760000000  0.5331150000000  0.5136770000000 1.0
C      1  0.4461070000000  0.4723820000000  0.5117370000000 1.0
C      1  0.5525270000000  0.4665130000000  0.4839450000000 1.0
C      1  0.4453390000000  0.5330470000000  0.4825240000000 1.0
C      1  0.5254770000000  0.5511950000000  0.5153360000000 1.0
C      1  0.4641210000000  0.4452290000000  0.5092550000000 1.0
C      1  0.4726600000000  0.5508470000000  0.4860500000000 1.0
C      1  0.5271120000000  0.4456310000000  0.4829650000000 1.0
C      1  0.5777220000000  0.4480090000000  0.4729840000000 1.0
C      1  0.4217760000000  0.5532580000000  0.4724500000000 1.0
C      1  0.5749940000000  0.5501910000000  0.5281790000000 1.0
C      1  0.4278650000000  0.4487480000000  0.5254920000000 1.0
C      1  0.4490300000000  0.5722150000000  0.4758240000000 1.0
C      1  0.5533000000000  0.4273180000000  0.4764660000000 1.0
C      1  0.5496450000000  0.5713630000000  0.5253400000000 1.0
C      1  0.4478950000000  0.4223080000000  0.5257520000000 1.0
C      1  0.4310570000000  0.4802870000000  0.4550460000000 1.0
C      1  0.5710860000000  0.5234540000000  0.4525300000000 1.0
C      1  0.4310920000000  0.5220420000000  0.5466700000000 1.0
C      1  0.5734440000000  0.4774000000000  0.5485210000000 1.0
C      1  0.4849810000000  0.4365070000000  0.4596350000000 1.0
C      1  0.5170970000000  0.5669750000000  0.4559870000000 1.0
C      1  0.5179500000000  0.4301150000000  0.5419510000000 1.0
C      1  0.4842570000000  0.5668190000000  0.5440750000000 1.0
C      1  0.5686930000000  0.5489960000000  0.5773130000000 1.0
C      1  0.4312810000000  0.4519530000000  0.5752180000000 1.0
C      1  0.5675020000000  0.4522750000000  0.4247200000000 1.0
C      1  0.4299720000000  0.5472660000000  0.4242040000000 1.0
C      1  0.5487480000000  0.5731960000000  0.5747000000000 1.0
C      1  0.4505240000000  0.4270030000000  0.5742180000000 1.0
C      1  0.4502940000000  0.5713690000000  0.4266710000000 1.0
C      1  0.5474680000000  0.4280880000000  0.4277080000000 1.0
C      1  0.5882470000000  0.5073370000000  0.5526390000000 1.0
C      1  0.4127130000000  0.4938350000000  0.5496280000000 1.0
C      1  0.5883450000000  0.4942600000000  0.4491340000000 1.0
C      1  0.4099280000000  0.5064140000000  0.4504410000000 1.0
C      1  0.5073620000000  0.5897730000000  0.5493160000000 1.0
C      1  0.4914240000000  0.4101720000000  0.5489220000000 1.0
C      1  0.4924790000000  0.5888820000000  0.4510260000000 1.0
C      1  0.5064820000000  0.4119020000000  0.4544470000000 1.0
C      1  0.4930010000000  0.5527290000000  0.4052950000000 1.0
C      1  0.5038710000000  0.4456620000000  0.4072500000000 1.0
C      1  0.4925810000000  0.4469340000000  0.5957130000000 1.0
C      1  0.5060900000000  0.5538980000000  0.5961470000000 1.0
C      1  0.5495450000000  0.4966860000000  0.4048910000000 1.0
C      1  0.4471230000000  0.5019440000000  0.4049050000000 1.0
C      1  0.4482780000000  0.4959900000000  0.5970820000000 1.0
C      1  0.5509190000000  0.5058080000000  0.5995800000000 1.0
C      1  0.4883940000000  0.4232600000000  0.4277880000000 1.0
C      1  0.5092180000000  0.5762020000000  0.4239240000000 1.0
C      1  0.4903910000000  0.5762850000000  0.5759090000000 1.0
C      1  0.5081010000000  0.4251020000000  0.5745570000000 1.0
C      1  0.4211710000000  0.4890790000000  0.4231410000000 1.0
C      1  0.5765160000000  0.5101010000000  0.4211700000000 1.0
C      1  0.5747360000000  0.4914010000000  0.5797930000000 1.0
C      1  0.4238900000000  0.5100310000000  0.5777710000000 1.0
C      1  0.6084620000000  0.5269450000000  0.4990170000000 1.0
C      1  0.3942690000000  0.4725560000000  0.4972150000000 1.0
C      1  0.6045850000000  0.4742200000000  0.5025470000000 1.0
C      1  0.3902540000000  0.5271420000000  0.5023940000000 1.0
C      1  0.5279080000000  0.6078590000000  0.4972050000000 1.0
C      1  0.4720290000000  0.3875600000000  0.4981630000000 1.0
C      1  0.4733440000000  0.6072820000000  0.5026840000000 1.0
C      1  0.5260830000000  0.3973210000000  0.5036060000000 1.0
C      1  0.3998940000000  0.5793470000000  0.5067680000000 1.0
C      1  0.6000340000000  0.4218710000000  0.5073840000000 1.0
C      1  0.4006700000000  0.4196610000000  0.4964800000000 1.0
C      1  0.6006440000000  0.5790710000000  0.4982320000000 1.0
C      1  0.5795410000000  0.4035330000000  0.5096760000000 1.0
C      1  0.4210570000000  0.5968850000000  0.5075790000000 1.0
C      1  0.4185340000000  0.3986820000000  0.4956670000000 1.0
C      1  0.5800260000000  0.5969940000000  0.4961630000000 1.0
C      1  0.5540570000000  0.5304620000000  0.4043110000000 1.0
C      1  0.4431260000000  0.4680180000000  0.4064180000000 1.0
C      1  0.5491160000000  0.4727650000000  0.5935740000000 1.0
C      1  0.4465770000000  0.5299780000000  0.5946570000000 1.0
C      1  0.5272840000000  0.5511880000000  0.4080440000000 1.0
C      1  0.4695840000000  0.4469780000000  0.4108580000000 1.0
C      1  0.4721610000000  0.5509340000000  0.5906170000000 1.0
C      1  0.5255420000000  0.4513630000000  0.5879020000000 1.0
C      1  0.5987280000000  0.5545010000000  0.5094770000000 1.0
C      1  0.4031840000000  0.4446730000000  0.5067700000000 1.0
C      1  0.5997780000000  0.4455010000000  0.4939190000000 1.0
C      1  0.3997880000000  0.5557120000000  0.4932920000000 1.0
C      1  0.5547650000000  0.5943560000000  0.5053950000000 1.0
C      1  0.4433960000000  0.3988090000000  0.5067360000000 1.0
C      1  0.4455220000000  0.5950350000000  0.4960950000000 1.0
C      1  0.5551320000000  0.4052060000000  0.4978900000000 1.0
C      1  0.5146990000000  0.4740000000000  0.4738140000000 1.0
C      1  0.4958210000000  0.5267360000000  0.4841980000000 1.0
C      1  0.5023590000000  0.5364350000000  0.5254610000000 1.0
C      1  0.4859470000000  0.4702190000000  0.5113230000000 1.0
C      1  0.4660780000000  0.5119100000000  0.4739850000000 1.0
C      1  0.5381810000000  0.4959360000000  0.4795250000000 1.0
C      1  0.5433970000000  0.5013610000000  0.5169820000000 1.0
C      1  0.4655220000000  0.4941070000000  0.5223180000000 1.0
C      1  0.4539170000000  0.5228680000000  0.5251780000000 1.0
C      1  0.5538250000000  0.4720690000000  0.5234720000000 1.0
C      1  0.4574320000000  0.4814630000000  0.4745300000000 1.0
C      1  0.5470790000000  0.5258630000000  0.4745200000000 1.0
C      1  0.5388020000000  0.4490080000000  0.5245370000000 1.0
C      1  0.4727700000000  0.5436350000000  0.5250690000000 1.0
C      1  0.4829830000000  0.4631680000000  0.4789530000000 1.0
C      1  0.5244500000000  0.5433320000000  0.4763010000000 1.0
C      1  0.4430830000000  0.5315110000000  0.4011630000000 1.0
C      1  0.5537190000000  0.4672090000000  0.4015590000000 1.0
C      1  0.4435980000000  0.4668730000000  0.5994370000000 1.0
C      1  0.5555990000000  0.5347530000000  0.6016120000000 1.0
C      1  0.5337400000000  0.4435480000000  0.4054070000000 1.0
C      1  0.4633050000000  0.5553410000000  0.4040360000000 1.0
C      1  0.4631880000000  0.4429080000000  0.5971560000000 1.0
C      1  0.5355890000000  0.5578370000000  0.5976250000000 1.0
C      1  0.5746130000000  0.4870120000000  0.4930590000000 1.0
C      1  0.4210100000000  0.5180100000000  0.4912170000000 1.0
C      1  0.5757350000000  0.5185210000000  0.5014440000000 1.0
C      1  0.4245700000000  0.4870140000000  0.4985580000000 1.0
C      1  0.4852140000000  0.5768830000000  0.4929880000000 1.0
C      1  0.5093850000000  0.4247890000000  0.4921930000000 1.0
C      1  0.5163960000000  0.5762450000000  0.5010200000000 1.0
C      1  0.4786170000000  0.4207320000000  0.4997120000000 1.0
C      1  0.4207550000000  0.4634830000000  0.5520550000000 1.0
C      1  0.5808900000000  0.5372540000000  0.5549580000000 1.0
C      1  0.4167780000000  0.5367910000000  0.4466190000000 1.0
C      1  0.5815210000000  0.4635530000000  0.4464020000000 1.0
C      1  0.4615440000000  0.4155980000000  0.5516170000000 1.0
C      1  0.5373000000000  0.5824390000000  0.5513450000000 1.0
C      1  0.5366450000000  0.4185290000000  0.4513310000000 1.0
C      1  0.4622560000000  0.5816570000000  0.4495110000000 1.0
C      1  0.4828940000000  0.4606260000000  0.4390390000000 1.0
C      1  0.5152570000000  0.5396650000000  0.4376950000000 1.0
C      1  0.4869670000000  0.5391790000000  0.5621350000000 1.0
C      1  0.5160360000000  0.4591380000000  0.5557540000000 1.0
C      1  0.4561550000000  0.4755440000000  0.4351950000000 1.0
C      1  0.5433450000000  0.5263910000000  0.4348380000000 1.0
C      1  0.5433910000000  0.4752640000000  0.5617230000000 1.0
C      1  0.4587400000000  0.5236940000000  0.5647870000000 1.0
C      1  0.5023600000000  0.6015920000000  0.5193260000000 1.0
C      1  0.4962070000000  0.3990930000000  0.5197710000000 1.0
C      1  0.5007190000000  0.3933950000000  0.4806950000000 1.0
C      1  0.4988570000000  0.6051820000000  0.4797310000000 1.0
C      1  0.5987760000000  0.5022570000000  0.5209490000000 1.0
C      1  0.3995620000000  0.4987850000000  0.5188480000000 1.0
C      1  0.3928940000000  0.5016880000000  0.4795180000000 1.0
C      1  0.6030910000000  0.4996460000000  0.4793580000000 1.0
C      1  0.4749650000000  0.4994140000000  0.4435570000000 1.0
C      1  0.5265880000000  0.5030540000000  0.4490430000000 1.0
C      1  0.4771750000000  0.5018750000000  0.5521400000000 1.0
C      1  0.5273630000000  0.4949940000000  0.5427560000000 1.0
C      1  0.5040440000000  0.4809360000000  0.4440110000000 1.0
C      1  0.4978460000000  0.5194820000000  0.4512810000000 1.0
C      1  0.4978710000000  0.4788100000000  0.5396880000000 1.0
C      1  0.5069580000000  0.5164030000000  0.5495010000000 1.0
C      1  0.4994450000000  0.5225030000000  0.4039390000000 1.0
C      1  0.4971920000000  0.4757850000000  0.4047580000000 1.0
C      1  0.4985940000000  0.4772910000000  0.6013330000000 1.0
C      1  0.4995820000000  0.5237860000000  0.6005390000000 1.0
C      1  0.5182270000000  0.4988060000000  0.4045810000000 1.0
C      1  0.4784740000000  0.4994840000000  0.4037590000000 1.0
C      1  0.4794790000000  0.5012610000000  0.6003710000000 1.0
C      1  0.5193000000000  0.4998060000000  0.6015850000000 1.0
C      1  0.5036350000000  0.5035650000000  0.5056070000000 1.0
END
