TITL C-2782225-7408-1358 -0.00291889569171991 125000 -827.018066193287 0 0 149 (C1) n - 1
REM
REM in /home/nfs/bkarasulu/CARBON/AIRSS/Generating-Clusters/REBO/Higher-Symm/SD-CG/HFTN-CG
REM
REM
REM
REM
REM
REM ./C.cell (12c818d87b63d06a65506943cc24bca4)
REM
REM compiler GCC version 9.2.1 20190827 (Red Hat 9.2.1-1)
REM options -cpp -mtune=generic -march=x86-64 -g -O0 -fpre-include=/usr/include/finclude/math-vector-fortran.h
REM seed -1485407250 -852641090 45543221 -1175053278 1509108171 -1750799833 1407413086 -1582961569 1959295067 1643724378 -541752077 157168455 1149535973 1763338073 1502560627 1360813302 -1205808773 -742174082 -1103878797 2096861299 916162110 122763011 -871454031 2147257477 490687209 -2030425364 -1596017151 -1425984312 2104910461 -1912242617 -1841927150 541694442 -464972019
REM
CELL 1.54180   50.00000   50.00000   50.00000   90.00000   90.00000   90.00000
LATT -1
SFAC C  
C      1  0.5571420000000  0.4624030000000  0.4327240000000 1.0
C      1  0.5556670000000  0.4615680000000  0.5639970000000 1.0
C      1  0.5503940000000  0.5766780000000  0.5038300000000 1.0
C      1  0.5620310000000  0.5670520000000  0.4479310000000 1.0
C      1  0.5607570000000  0.4183220000000  0.4644200000000 1.0
C      1  0.5602200000000  0.5137850000000  0.5778930000000 1.0
C      1  0.5180000000000  0.5593260000000  0.5332940000000 1.0
C      1  0.5264460000000  0.5011500000000  0.4367600000000 1.0
C      1  0.5258390000000  0.4425100000000  0.5333780000000 1.0
C      1  0.4069100000000  0.5690000000000  0.4844280000000 1.0
C      1  0.4092350000000  0.4533990000000  0.4544120000000 1.0
C      1  0.4213320000000  0.4813950000000  0.5674990000000 1.0
C      1  0.4050570000000  0.4801900000000  0.5437470000000 1.0
C      1  0.3935480000000  0.5450550000000  0.4937300000000 1.0
C      1  0.3991400000000  0.4753290000000  0.4679310000000 1.0
C      1  0.4679950000000  0.5959210000000  0.5331670000000 1.0
C      1  0.4685020000000  0.4833610000000  0.4105650000000 1.0
C      1  0.4646700000000  0.4233050000000  0.5590370000000 1.0
C      1  0.4090660000000  0.5039540000000  0.4578670000000 1.0
C      1  0.4110320000000  0.4591240000000  0.5189470000000 1.0
C      1  0.4001000000000  0.5341440000000  0.5238350000000 1.0
C      1  0.6010020000000  0.5130310000000  0.5043530000000 1.0
C      1  0.6033200000000  0.4969290000000  0.4742550000000 1.0
C      1  0.5873330000000  0.4759480000000  0.5036930000000 1.0
C      1  0.5812440000000  0.4345970000000  0.4739130000000 1.0
C      1  0.5788290000000  0.5131680000000  0.5577940000000 1.0
C      1  0.5849850000000  0.5479140000000  0.4561070000000 1.0
C      1  0.4466920000000  0.4660590000000  0.5845370000000 1.0
C      1  0.4362470000000  0.5846230000000  0.4917980000000 1.0
C      1  0.4326080000000  0.4458610000000  0.4347180000000 1.0
C      1  0.5221150000000  0.5170670000000  0.4788160000000 1.0
C      1  0.5203760000000  0.4633030000000  0.4989880000000 1.0
C      1  0.5200770000000  0.5206710000000  0.5232120000000 1.0
C      1  0.4489110000000  0.5185700000000  0.5290970000000 1.0
C      1  0.4461800000000  0.5155200000000  0.4746590000000 1.0
C      1  0.4518240000000  0.4685150000000  0.5017730000000 1.0
C      1  0.4315530000000  0.5593750000000  0.5549180000000 1.0
C      1  0.4454630000000  0.5290100000000  0.4263740000000 1.0
C      1  0.4444600000000  0.4163920000000  0.5132910000000 1.0
C      1  0.5150270000000  0.5733310000000  0.5698760000000 1.0
C      1  0.5216850000000  0.5199270000000  0.4095770000000 1.0
C      1  0.5190610000000  0.4099320000000  0.5254280000000 1.0
C      1  0.4804190000000  0.5257260000000  0.4917390000000 1.0
C      1  0.4875480000000  0.4793590000000  0.4878900000000 1.0
C      1  0.4847310000000  0.4991070000000  0.5301260000000 1.0
C      1  0.5006680000000  0.4940930000000  0.4150660000000 1.0
C      1  0.4936410000000  0.4169020000000  0.5420650000000 1.0
C      1  0.4959200000000  0.5826660000000  0.5449700000000 1.0
C      1  0.4783100000000  0.5575770000000  0.5298790000000 1.0
C      1  0.4847890000000  0.4950350000000  0.4448640000000 1.0
C      1  0.4862010000000  0.4475320000000  0.5347890000000 1.0
C      1  0.3918470000000  0.5254370000000  0.4746720000000 1.0
C      1  0.3946390000000  0.4713850000000  0.4945650000000 1.0
C      1  0.3947800000000  0.5043280000000  0.5352770000000 1.0
C      1  0.5275580000000  0.4110130000000  0.4696720000000 1.0
C      1  0.5287350000000  0.5199660000000  0.5895500000000 1.0
C      1  0.5298290000000  0.5632300000000  0.4358760000000 1.0
C      1  0.5227540000000  0.4549300000000  0.5712670000000 1.0
C      1  0.5169250000000  0.5860600000000  0.5038960000000 1.0
C      1  0.5237160000000  0.4631290000000  0.4253860000000 1.0
C      1  0.4245150000000  0.5302060000000  0.5469220000000 1.0
C      1  0.4286340000000  0.5313490000000  0.4525290000000 1.0
C      1  0.4331700000000  0.4416780000000  0.4997820000000 1.0
C      1  0.5240720000000  0.4113180000000  0.4291650000000 1.0
C      1  0.5288300000000  0.4854720000000  0.6100150000000 1.0
C      1  0.5281290000000  0.6022360000000  0.4617410000000 1.0
C      1  0.4760550000000  0.5210640000000  0.4591300000000 1.0
C      1  0.4799770000000  0.4511610000000  0.5054040000000 1.0
C      1  0.4770850000000  0.5296770000000  0.5429330000000 1.0
C      1  0.5939780000000  0.5443300000000  0.5077160000000 1.0
C      1  0.6063140000000  0.4844340000000  0.4448810000000 1.0
C      1  0.6001330000000  0.4584230000000  0.5271230000000 1.0
C      1  0.4879180000000  0.5971930000000  0.4900810000000 1.0
C      1  0.4950550000000  0.4509820000000  0.4198090000000 1.0
C      1  0.5012210000000  0.4632460000000  0.5896670000000 1.0
C      1  0.5711480000000  0.4678410000000  0.5391000000000 1.0
C      1  0.5634060000000  0.5466740000000  0.5069120000000 1.0
C      1  0.5745770000000  0.4812570000000  0.4501130000000 1.0
C      1  0.5554450000000  0.5215550000000  0.4849850000000 1.0
C      1  0.5507910000000  0.4718510000000  0.4879650000000 1.0
C      1  0.5471400000000  0.5026980000000  0.5286530000000 1.0
C      1  0.4811990000000  0.5478630000000  0.6072970000000 1.0
C      1  0.4870880000000  0.5629140000000  0.4069490000000 1.0
C      1  0.4852660000000  0.3851380000000  0.4908250000000 1.0
C      1  0.4638020000000  0.5990980000000  0.5054240000000 1.0
C      1  0.4466050000000  0.4691650000000  0.4222470000000 1.0
C      1  0.4469060000000  0.4441280000000  0.5629390000000 1.0
C      1  0.4355140000000  0.4398870000000  0.4687490000000 1.0
C      1  0.4314590000000  0.5104540000000  0.5695520000000 1.0
C      1  0.4305060000000  0.5595990000000  0.4651520000000 1.0
C      1  0.4625250000000  0.4084520000000  0.5312300000000 1.0
C      1  0.4521340000000  0.5731400000000  0.5453590000000 1.0
C      1  0.4662500000000  0.5127300000000  0.4213520000000 1.0
C      1  0.5435950000000  0.5625990000000  0.5546400000000 1.0
C      1  0.5533070000000  0.5116890000000  0.4197550000000 1.0
C      1  0.5512630000000  0.4205020000000  0.5289060000000 1.0
C      1  0.5592000000000  0.4496010000000  0.5129520000000 1.0
C      1  0.5542840000000  0.5359610000000  0.5361240000000 1.0
C      1  0.5617360000000  0.5101990000000  0.4531150000000 1.0
C      1  0.5484260000000  0.4840460000000  0.5864630000000 1.0
C      1  0.5488250000000  0.5852520000000  0.4725000000000 1.0
C      1  0.5467910000000  0.4303730000000  0.4372890000000 1.0
C      1  0.4643090000000  0.4522060000000  0.4581100000000 1.0
C      1  0.4589660000000  0.4934940000000  0.5644370000000 1.0
C      1  0.4597150000000  0.5636790000000  0.4800440000000 1.0
C      1  0.5113150000000  0.4029510000000  0.4983100000000 1.0
C      1  0.5013060000000  0.5557880000000  0.5867250000000 1.0
C      1  0.5108920000000  0.5460860000000  0.4160040000000 1.0
C      1  0.5357310000000  0.4490630000000  0.4614370000000 1.0
C      1  0.5307940000000  0.4927300000000  0.5614510000000 1.0
C      1  0.5355830000000  0.5543370000000  0.4747920000000 1.0
C      1  0.5436930000000  0.4307770000000  0.5605010000000 1.0
C      1  0.5367960000000  0.5874710000000  0.5319520000000 1.0
C      1  0.5462580000000  0.4815140000000  0.4082220000000 1.0
C      1  0.5097100000000  0.5851950000000  0.4470770000000 1.0
C      1  0.4995190000000  0.4134340000000  0.4502240000000 1.0
C      1  0.5024570000000  0.5015180000000  0.6010930000000 1.0
C      1  0.4752900000000  0.5194420000000  0.6047300000000 1.0
C      1  0.4798360000000  0.5778160000000  0.4324500000000 1.0
C      1  0.4749530000000  0.4000040000000  0.4668770000000 1.0
C      1  0.4772820000000  0.4817040000000  0.5893450000000 1.0
C      1  0.4821320000000  0.5789870000000  0.4656380000000 1.0
C      1  0.4830710000000  0.4388420000000  0.4413500000000 1.0
C      1  0.4880890000000  0.5270400000000  0.5739220000000 1.0
C      1  0.4899870000000  0.5467800000000  0.4433230000000 1.0
C      1  0.4878150000000  0.4247840000000  0.4866430000000 1.0
C      1  0.4941570000000  0.5596290000000  0.5012820000000 1.0
C      1  0.5047450000000  0.4719020000000  0.4523570000000 1.0
C      1  0.5014460000000  0.4688380000000  0.5500980000000 1.0
C      1  0.5890120000000  0.4964680000000  0.5317560000000 1.0
C      1  0.5963020000000  0.5293170000000  0.4743270000000 1.0
C      1  0.5893400000000  0.4649770000000  0.4751840000000 1.0
C      1  0.4981000000000  0.5003600000000  0.5598180000000 1.0
C      1  0.5048480000000  0.5458790000000  0.4709440000000 1.0
C      1  0.5042830000000  0.4480010000000  0.4739620000000 1.0
C      1  0.5307960000000  0.4882970000000  0.4658290000000 1.0
C      1  0.5263620000000  0.4752680000000  0.5278400000000 1.0
C      1  0.5238930000000  0.5463370000000  0.5057130000000 1.0
C      1  0.5289230000000  0.5254110000000  0.5558700000000 1.0
C      1  0.5470290000000  0.5373400000000  0.4494540000000 1.0
C      1  0.5372210000000  0.4345840000000  0.4922080000000 1.0
C      1  0.4371380000000  0.4570950000000  0.5393990000000 1.0
C      1  0.4270420000000  0.5524630000000  0.5140480000000 1.0
C      1  0.4341050000000  0.4838350000000  0.4470420000000 1.0
C      1  0.4509760000000  0.5371600000000  0.5006810000000 1.0
C      1  0.4575540000000  0.4832800000000  0.4716830000000 1.0
C      1  0.4544170000000  0.4849750000000  0.5314810000000 1.0
C      1  0.5621390000000  0.4974620000000  0.5025370000000 1.0
C      1  0.5004850000000  0.5043150000000  0.5025650000000 1.0
END
