TITL C-2782228-2999-1348 -0.00194560349316848 125000 -788.758543451117 0 0 135 (C1) n - 1
REM
REM in /home/nfs/bkarasulu/CARBON/AIRSS/Generating-Clusters/REBO/Higher-Symm/SD-CG/HFTN-CG
REM
REM
REM
REM
REM
REM ./C.cell (12c818d87b63d06a65506943cc24bca4)
REM
REM compiler GCC version 9.2.1 20190827 (Red Hat 9.2.1-1)
REM options -cpp -mtune=generic -march=x86-64 -g -O0 -fpre-include=/usr/include/finclude/math-vector-fortran.h
REM seed -1884918178 -184346968 -274583001 837954739 -780705429 -1001946347 1426575860 -102910760 -343559092 982761218 728413554 1035994256 1275515763 -1670900041 1637788594 1758522855 -2106188301 -1026845543 -156879289 1287927942 -231594153 -1258207294 172916216 -374974819 -560744675 1963192220 1750956911 -1764637246 803039454 2027328576 -1183419348 -58317014 -527091284
REM
CELL 1.54180   50.00000   50.00000   50.00000   90.00000   90.00000   90.00000
LATT -1
SFAC C  
C      1  0.4158620000000  0.4647850000000  0.4822040000000 1.0
C      1  0.5100440000000  0.5904520000000  0.4808350000000 1.0
C      1  0.5720110000000  0.4444870000000  0.4815310000000 1.0
C      1  0.5268570000000  0.4911050000000  0.4355450000000 1.0
C      1  0.4780280000000  0.4780600000000  0.4306310000000 1.0
C      1  0.4942640000000  0.5302500000000  0.4334430000000 1.0
C      1  0.5556340000000  0.5064050000000  0.4377040000000 1.0
C      1  0.4826320000000  0.4457150000000  0.4328940000000 1.0
C      1  0.4694450000000  0.5515560000000  0.4368710000000 1.0
C      1  0.5092630000000  0.5505350000000  0.4809570000000 1.0
C      1  0.5431560000000  0.4712430000000  0.4767450000000 1.0
C      1  0.4529240000000  0.4786430000000  0.4776840000000 1.0
C      1  0.4430010000000  0.4589900000000  0.5732410000000 1.0
C      1  0.4926260000000  0.5702490000000  0.5727240000000 1.0
C      1  0.5640290000000  0.4723100000000  0.5723800000000 1.0
C      1  0.5634910000000  0.4334720000000  0.4504500000000 1.0
C      1  0.4144420000000  0.4721410000000  0.4506390000000 1.0
C      1  0.5159950000000  0.5876150000000  0.4491090000000 1.0
C      1  0.4438720000000  0.5478380000000  0.4294820000000 1.0
C      1  0.5631240000000  0.5311720000000  0.4283460000000 1.0
C      1  0.5011100000000  0.4300740000000  0.4216210000000 1.0
C      1  0.5339530000000  0.5951970000000  0.5833620000000 1.0
C      1  0.5669740000000  0.4239530000000  0.5818960000000 1.0
C      1  0.3992170000000  0.4797160000000  0.5827090000000 1.0
C      1  0.4807860000000  0.5869810000000  0.4979380000000 1.0
C      1  0.5841110000000  0.4727520000000  0.4968250000000 1.0
C      1  0.4324530000000  0.4397570000000  0.4983600000000 1.0
C      1  0.5614300000000  0.4813700000000  0.4530040000000 1.0
C      1  0.4632160000000  0.4534990000000  0.4582680000000 1.0
C      1  0.4893720000000  0.5597730000000  0.4598250000000 1.0
C      1  0.5448880000000  0.4880020000000  0.5406370000000 1.0
C      1  0.4660570000000  0.4675600000000  0.5417150000000 1.0
C      1  0.4880290000000  0.5458160000000  0.5410550000000 1.0
C      1  0.4110090000000  0.4495060000000  0.5188360000000 1.0
C      1  0.4971510000000  0.6015360000000  0.5207740000000 1.0
C      1  0.5873640000000  0.4500640000000  0.5179940000000 1.0
C      1  0.5850870000000  0.5056460000000  0.4741010000000 1.0
C      1  0.4597910000000  0.4186730000000  0.4766140000000 1.0
C      1  0.4527030000000  0.5664280000000  0.4740520000000 1.0
C      1  0.5290670000000  0.5544410000000  0.4048030000000 1.0
C      1  0.5344330000000  0.4566060000000  0.3941230000000 1.0
C      1  0.4407080000000  0.5017310000000  0.4091820000000 1.0
C      1  0.4317170000000  0.5195560000000  0.4331330000000 1.0
C      1  0.5498400000000  0.5557950000000  0.4245930000000 1.0
C      1  0.5271960000000  0.4314330000000  0.4108260000000 1.0
C      1  0.5188780000000  0.4488970000000  0.4679240000000 1.0
C      1  0.4485340000000  0.5078380000000  0.4605190000000 1.0
C      1  0.5378980000000  0.5391160000000  0.4659290000000 1.0
C      1  0.5155500000000  0.5696270000000  0.5068130000000 1.0
C      1  0.5500600000000  0.4543410000000  0.5055700000000 1.0
C      1  0.4345840000000  0.4787240000000  0.5064850000000 1.0
C      1  0.4696720000000  0.5311640000000  0.5872400000000 1.0
C      1  0.5417750000000  0.5118150000000  0.5865080000000 1.0
C      1  0.4886680000000  0.4587260000000  0.5866800000000 1.0
C      1  0.4841090000000  0.4335650000000  0.5718140000000 1.0
C      1  0.4500010000000  0.5475710000000  0.5726390000000 1.0
C      1  0.5653620000000  0.5206350000000  0.5708730000000 1.0
C      1  0.4935820000000  0.4694930000000  0.5486170000000 1.0
C      1  0.4758940000000  0.5212500000000  0.5491240000000 1.0
C      1  0.5295150000000  0.5108310000000  0.5486030000000 1.0
C      1  0.4393050000000  0.4311870000000  0.4593770000000 1.0
C      1  0.4708960000000  0.5847620000000  0.4589640000000 1.0
C      1  0.5907300000000  0.4805220000000  0.4583900000000 1.0
C      1  0.5150510000000  0.5102550000000  0.4807640000000 1.0
C      1  0.4991650000000  0.4811930000000  0.4797430000000 1.0
C      1  0.4822170000000  0.5090010000000  0.4814130000000 1.0
C      1  0.5482230000000  0.5496240000000  0.4973180000000 1.0
C      1  0.5174140000000  0.4330690000000  0.4983540000000 1.0
C      1  0.4320960000000  0.5178750000000  0.5004890000000 1.0
C      1  0.4697460000000  0.5029840000000  0.5759480000000 1.0
C      1  0.5170640000000  0.5254150000000  0.5755340000000 1.0
C      1  0.5129240000000  0.4731290000000  0.5753140000000 1.0
C      1  0.4146600000000  0.4990380000000  0.4797520000000 1.0
C      1  0.5411730000000  0.5765110000000  0.4775950000000 1.0
C      1  0.5457490000000  0.4221220000000  0.4839050000000 1.0
C      1  0.4670310000000  0.5673800000000  0.5295140000000 1.0
C      1  0.5750160000000  0.4942820000000  0.5290600000000 1.0
C      1  0.4568410000000  0.4387920000000  0.5297800000000 1.0
C      1  0.4800950000000  0.5528530000000  0.5005820000000 1.0
C      1  0.5565820000000  0.4930940000000  0.4998670000000 1.0
C      1  0.4639180000000  0.4531670000000  0.4990100000000 1.0
C      1  0.5112910000000  0.5476320000000  0.5276050000000 1.0
C      1  0.5335440000000  0.4679310000000  0.5265160000000 1.0
C      1  0.4539210000000  0.4872200000000  0.5277880000000 1.0
C      1  0.5074420000000  0.4631430000000  0.5256840000000 1.0
C      1  0.4622670000000  0.5123330000000  0.5268140000000 1.0
C      1  0.5279350000000  0.5268910000000  0.5263030000000 1.0
C      1  0.4157480000000  0.4789150000000  0.5353450000000 1.0
C      1  0.5231570000000  0.5848770000000  0.5355050000000 1.0
C      1  0.5598070000000  0.4390990000000  0.5347110000000 1.0
C      1  0.4940880000000  0.4579600000000  0.4979110000000 1.0
C      1  0.4652750000000  0.5255140000000  0.4987980000000 1.0
C      1  0.5380110000000  0.5169700000000  0.4989790000000 1.0
C      1  0.5193340000000  0.5188910000000  0.4488430000000 1.0
C      1  0.5058910000000  0.4738490000000  0.4487740000000 1.0
C      1  0.4790860000000  0.5052940000000  0.4477250000000 1.0
C      1  0.4905930000000  0.4307280000000  0.4688270000000 1.0
C      1  0.4410930000000  0.5400550000000  0.4685560000000 1.0
C      1  0.5696790000000  0.5303750000000  0.4676430000000 1.0
C      1  0.5942800000000  0.5047750000000  0.5050650000000 1.0
C      1  0.4548010000000  0.4153440000000  0.5078740000000 1.0
C      1  0.4483650000000  0.5765990000000  0.5043730000000 1.0
C      1  0.4104850000000  0.5029620000000  0.4496920000000 1.0
C      1  0.5439140000000  0.5735890000000  0.4466000000000 1.0
C      1  0.5502100000000  0.4059650000000  0.4590090000000 1.0
C      1  0.5008590000000  0.4087120000000  0.5279730000000 1.0
C      1  0.4173340000000  0.5458570000000  0.5314470000000 1.0
C      1  0.5790080000000  0.5479020000000  0.5278570000000 1.0
C      1  0.5456380000000  0.4743620000000  0.4165520000000 1.0
C      1  0.4504120000000  0.4772300000000  0.4170100000000 1.0
C      1  0.5025990000000  0.5559400000000  0.4151730000000 1.0
C      1  0.5937760000000  0.5370930000000  0.5075580000000 1.0
C      1  0.4840250000000  0.4017090000000  0.5076630000000 1.0
C      1  0.4205720000000  0.5610910000000  0.5082880000000 1.0
C      1  0.5782120000000  0.4958580000000  0.5607320000000 1.0
C      1  0.4562090000000  0.4347250000000  0.5616720000000 1.0
C      1  0.4648370000000  0.5707330000000  0.5614520000000 1.0
C      1  0.5620210000000  0.5429390000000  0.5533490000000 1.0
C      1  0.5046650000000  0.4249600000000  0.5542370000000 1.0
C      1  0.4316530000000  0.5336920000000  0.5561020000000 1.0
C      1  0.4646830000000  0.4757710000000  0.5842570000000 1.0
C      1  0.4962740000000  0.5433430000000  0.5842850000000 1.0
C      1  0.5389330000000  0.4825280000000  0.5839190000000 1.0
C      1  0.4187480000000  0.4716980000000  0.5648090000000 1.0
C      1  0.5162170000000  0.5844820000000  0.5650410000000 1.0
C      1  0.5646620000000  0.4449580000000  0.5640370000000 1.0
C      1  0.4957510000000  0.4028860000000  0.4824580000000 1.0
C      1  0.4161990000000  0.5427350000000  0.4856250000000 1.0
C      1  0.5873610000000  0.5484690000000  0.4820810000000 1.0
C      1  0.4982310000000  0.5815010000000  0.4276050000000 1.0
C      1  0.5521800000000  0.4452120000000  0.4278910000000 1.0
C      1  0.4309360000000  0.4610870000000  0.4303190000000 1.0
C      1  0.5287000000000  0.4283910000000  0.5299410000000 1.0
C      1  0.4225240000000  0.5117380000000  0.5312930000000 1.0
C      1  0.5482300000000  0.5627480000000  0.5287620000000 1.0
END
