TITL C-2782229-3092-1209 -0.00330664531543883 125000 -1193.83071516846 0 0 198 (C1) n - 1
REM
REM in /home/nfs/bkarasulu/CARBON/AIRSS/Generating-Clusters/REBO/Higher-Symm/SD-CG/HFTN-CG
REM
REM
REM
REM
REM
REM ./C.cell (12c818d87b63d06a65506943cc24bca4)
REM
REM compiler GCC version 9.2.1 20190827 (Red Hat 9.2.1-1)
REM options -cpp -mtune=generic -march=x86-64 -g -O0 -fpre-include=/usr/include/finclude/math-vector-fortran.h
REM seed 2017956935 1824988328 -1063877899 -1644230674 1243654622 444688300 1780734119 -359122538 2089547601 -2046079641 -1807430421 -228492133 -640043942 1475097596 461874013 371043183 625188004 -1427201513 -76141369 1270220787 -1426105655 -1610546438 1847237088 1345561962 -107460340 424775663 1877360371 828184339 -634213751 -1774839319 -1262330917 -1451347293 -2117714324
REM
CELL 1.54180   50.00000   50.00000   50.00000   90.00000   90.00000   90.00000
LATT -1
SFAC C  
C      1  0.4394800000000  0.5431970000000  0.4212220000000 1.0
C      1  0.4956080000000  0.4283880000000  0.4261840000000 1.0
C      1  0.5677040000000  0.5307920000000  0.4202670000000 1.0
C      1  0.4383380000000  0.5387160000000  0.5752050000000 1.0
C      1  0.4889330000000  0.4251400000000  0.5755260000000 1.0
C      1  0.5679700000000  0.5307390000000  0.5754250000000 1.0
C      1  0.4392750000000  0.4592500000000  0.4241460000000 1.0
C      1  0.4922130000000  0.5718610000000  0.4255110000000 1.0
C      1  0.5692730000000  0.4691560000000  0.4266330000000 1.0
C      1  0.4388710000000  0.4556240000000  0.5801020000000 1.0
C      1  0.4939920000000  0.5720690000000  0.5758450000000 1.0
C      1  0.5667220000000  0.4686040000000  0.5745450000000 1.0
C      1  0.4789300000000  0.6243120000000  0.4825000000000 1.0
C      1  0.4058760000000  0.4210240000000  0.4853530000000 1.0
C      1  0.6161920000000  0.4619150000000  0.4891700000000 1.0
C      1  0.4785090000000  0.6189440000000  0.5117710000000 1.0
C      1  0.4044440000000  0.4161640000000  0.5154540000000 1.0
C      1  0.6189610000000  0.4578480000000  0.5190090000000 1.0
C      1  0.4782520000000  0.3809320000000  0.4880600000000 1.0
C      1  0.4056580000000  0.5839250000000  0.4854960000000 1.0
C      1  0.6174410000000  0.5443230000000  0.4801580000000 1.0
C      1  0.4784690000000  0.3760800000000  0.5182770000000 1.0
C      1  0.4076170000000  0.5808360000000  0.5156460000000 1.0
C      1  0.6138230000000  0.5407900000000  0.5106940000000 1.0
C      1  0.5513430000000  0.4402880000000  0.5196090000000 1.0
C      1  0.5209770000000  0.5710680000000  0.5131270000000 1.0
C      1  0.4305060000000  0.4848460000000  0.5194620000000 1.0
C      1  0.5514390000000  0.4428090000000  0.4814650000000 1.0
C      1  0.5250960000000  0.5749600000000  0.4827900000000 1.0
C      1  0.4256450000000  0.4807740000000  0.4801840000000 1.0
C      1  0.5488030000000  0.5560550000000  0.5221220000000 1.0
C      1  0.5212690000000  0.4270340000000  0.5260970000000 1.0
C      1  0.4237230000000  0.5161670000000  0.5205910000000 1.0
C      1  0.5518350000000  0.5573230000000  0.4747560000000 1.0
C      1  0.5220540000000  0.4284810000000  0.4739550000000 1.0
C      1  0.4282390000000  0.5134140000000  0.4800820000000 1.0
C      1  0.4088140000000  0.5131200000000  0.5572290000000 1.0
C      1  0.5280850000000  0.4193850000000  0.5645150000000 1.0
C      1  0.5547280000000  0.5676980000000  0.5590870000000 1.0
C      1  0.4123510000000  0.5179330000000  0.4441810000000 1.0
C      1  0.5316840000000  0.4155070000000  0.4366960000000 1.0
C      1  0.5551830000000  0.5687710000000  0.4371440000000 1.0
C      1  0.4122420000000  0.4799850000000  0.5544470000000 1.0
C      1  0.5333390000000  0.5915770000000  0.5532130000000 1.0
C      1  0.5590400000000  0.4255400000000  0.5557800000000 1.0
C      1  0.4061870000000  0.4857060000000  0.4379790000000 1.0
C      1  0.5345540000000  0.5920190000000  0.4460250000000 1.0
C      1  0.5613860000000  0.4271550000000  0.4463200000000 1.0
C      1  0.3918350000000  0.5202800000000  0.5284990000000 1.0
C      1  0.5397230000000  0.4024150000000  0.5154570000000 1.0
C      1  0.5608230000000  0.5843320000000  0.5150780000000 1.0
C      1  0.3950840000000  0.5168140000000  0.4734900000000 1.0
C      1  0.5411110000000  0.4044820000000  0.4839580000000 1.0
C      1  0.5636090000000  0.5856540000000  0.4836580000000 1.0
C      1  0.3965020000000  0.4870500000000  0.5235880000000 1.0
C      1  0.5452960000000  0.6054780000000  0.5285930000000 1.0
C      1  0.5675630000000  0.4112380000000  0.5273200000000 1.0
C      1  0.3969750000000  0.4902430000000  0.4892270000000 1.0
C      1  0.5466450000000  0.6061940000000  0.4702600000000 1.0
C      1  0.5693140000000  0.4142320000000  0.4753280000000 1.0
C      1  0.5194530000000  0.5600250000000  0.5858650000000 1.0
C      1  0.4358710000000  0.4837630000000  0.5871140000000 1.0
C      1  0.5463170000000  0.4537500000000  0.5880610000000 1.0
C      1  0.5177360000000  0.5612740000000  0.4122690000000 1.0
C      1  0.4356840000000  0.4867550000000  0.4113380000000 1.0
C      1  0.5503360000000  0.4541500000000  0.4120780000000 1.0
C      1  0.5173820000000  0.4376650000000  0.5900410000000 1.0
C      1  0.4345720000000  0.5126300000000  0.5877830000000 1.0
C      1  0.5446030000000  0.5443040000000  0.5890050000000 1.0
C      1  0.5270450000000  0.4361840000000  0.4138620000000 1.0
C      1  0.4362200000000  0.5157970000000  0.4122600000000 1.0
C      1  0.5424790000000  0.5450600000000  0.4084720000000 1.0
C      1  0.5002620000000  0.4733520000000  0.4766420000000 1.0
C      1  0.5240250000000  0.5147170000000  0.4763900000000 1.0
C      1  0.4759250000000  0.5146850000000  0.4778090000000 1.0
C      1  0.4994470000000  0.4719330000000  0.5229050000000 1.0
C      1  0.5232130000000  0.5128640000000  0.5219080000000 1.0
C      1  0.4742760000000  0.5123450000000  0.5234150000000 1.0
C      1  0.5000040000000  0.5286340000000  0.4781190000000 1.0
C      1  0.5242450000000  0.4870780000000  0.4766940000000 1.0
C      1  0.4759540000000  0.4866780000000  0.4751680000000 1.0
C      1  0.4984130000000  0.5259180000000  0.5215350000000 1.0
C      1  0.5238220000000  0.4851110000000  0.5228130000000 1.0
C      1  0.4750210000000  0.4847240000000  0.5220590000000 1.0
C      1  0.5816450000000  0.5492320000000  0.5499340000000 1.0
C      1  0.4141690000000  0.5459400000000  0.5519860000000 1.0
C      1  0.5013630000000  0.4032210000000  0.5523650000000 1.0
C      1  0.5818790000000  0.5503920000000  0.4447600000000 1.0
C      1  0.4202400000000  0.5508220000000  0.4484630000000 1.0
C      1  0.5029840000000  0.4036400000000  0.4492640000000 1.0
C      1  0.5830740000000  0.4487540000000  0.5522870000000 1.0
C      1  0.4206190000000  0.4470660000000  0.5524760000000 1.0
C      1  0.5001940000000  0.5970150000000  0.5532880000000 1.0
C      1  0.5849690000000  0.4512290000000  0.4509700000000 1.0
C      1  0.4145120000000  0.4550470000000  0.4477910000000 1.0
C      1  0.5017620000000  0.5972370000000  0.4461730000000 1.0
C      1  0.4430240000000  0.4449440000000  0.4609730000000 1.0
C      1  0.5755970000000  0.4805650000000  0.4642570000000 1.0
C      1  0.4805560000000  0.5771260000000  0.4632620000000 1.0
C      1  0.4454030000000  0.4407730000000  0.5301520000000 1.0
C      1  0.5748710000000  0.4769500000000  0.5364030000000 1.0
C      1  0.4793020000000  0.5743770000000  0.5388730000000 1.0
C      1  0.4462350000000  0.5575650000000  0.4691820000000 1.0
C      1  0.5750570000000  0.5235930000000  0.4628560000000 1.0
C      1  0.4806830000000  0.4250650000000  0.4629640000000 1.0
C      1  0.4432840000000  0.5540710000000  0.5389310000000 1.0
C      1  0.5742520000000  0.5207620000000  0.5346080000000 1.0
C      1  0.4806970000000  0.4235300000000  0.5366360000000 1.0
C      1  0.4374640000000  0.4875880000000  0.4511350000000 1.0
C      1  0.5415230000000  0.4545160000000  0.4510210000000 1.0
C      1  0.5192470000000  0.5620040000000  0.4522030000000 1.0
C      1  0.4458770000000  0.4775190000000  0.5483730000000 1.0
C      1  0.5409570000000  0.4536070000000  0.5485070000000 1.0
C      1  0.5176680000000  0.5621590000000  0.5459970000000 1.0
C      1  0.4462260000000  0.5181780000000  0.4509030000000 1.0
C      1  0.5414360000000  0.5391130000000  0.4478500000000 1.0
C      1  0.5103180000000  0.4472680000000  0.4481140000000 1.0
C      1  0.4419580000000  0.5092910000000  0.5488270000000 1.0
C      1  0.5391130000000  0.5384570000000  0.5499680000000 1.0
C      1  0.5098420000000  0.4466380000000  0.5519740000000 1.0
C      1  0.4638680000000  0.5924070000000  0.5165630000000 1.0
C      1  0.4361900000000  0.4166150000000  0.5108670000000 1.0
C      1  0.5997670000000  0.4831860000000  0.5185760000000 1.0
C      1  0.4644860000000  0.5959340000000  0.4822800000000 1.0
C      1  0.4358280000000  0.4198180000000  0.4768620000000 1.0
C      1  0.5989850000000  0.4879920000000  0.4844770000000 1.0
C      1  0.4649760000000  0.4049140000000  0.5170340000000 1.0
C      1  0.4375120000000  0.5789750000000  0.5230620000000 1.0
C      1  0.5980310000000  0.5136510000000  0.5150520000000 1.0
C      1  0.4631660000000  0.4077980000000  0.4828220000000 1.0
C      1  0.4372440000000  0.5816840000000  0.4889070000000 1.0
C      1  0.5995270000000  0.5184320000000  0.4810320000000 1.0
C      1  0.5919750000000  0.5824230000000  0.5114180000000 1.0
C      1  0.3792090000000  0.5424320000000  0.5115710000000 1.0
C      1  0.5250640000000  0.3745360000000  0.5189720000000 1.0
C      1  0.5952190000000  0.5852470000000  0.4802050000000 1.0
C      1  0.3836330000000  0.5420700000000  0.4833730000000 1.0
C      1  0.5251180000000  0.3778820000000  0.4876930000000 1.0
C      1  0.5953630000000  0.4163320000000  0.5165710000000 1.0
C      1  0.3817360000000  0.4569690000000  0.5215860000000 1.0
C      1  0.5262040000000  0.6202630000000  0.5138970000000 1.0
C      1  0.5960590000000  0.4183750000000  0.4879570000000 1.0
C      1  0.3835870000000  0.4622810000000  0.4916310000000 1.0
C      1  0.5270490000000  0.6210510000000  0.4843770000000 1.0
C      1  0.4962940000000  0.4429070000000  0.5148090000000 1.0
C      1  0.5501050000000  0.5254900000000  0.5141510000000 1.0
C      1  0.4510690000000  0.5322220000000  0.5177350000000 1.0
C      1  0.4965170000000  0.4439330000000  0.4851160000000 1.0
C      1  0.5509230000000  0.5266360000000  0.4842410000000 1.0
C      1  0.4522240000000  0.5327950000000  0.4871910000000 1.0
C      1  0.4925020000000  0.5555340000000  0.5162080000000 1.0
C      1  0.5511340000000  0.4725620000000  0.5151070000000 1.0
C      1  0.4529080000000  0.4646760000000  0.5115590000000 1.0
C      1  0.4961040000000  0.5589980000000  0.4843010000000 1.0
C      1  0.5513560000000  0.4750760000000  0.4836940000000 1.0
C      1  0.4536090000000  0.4666600000000  0.4810220000000 1.0
C      1  0.3945290000000  0.5601370000000  0.5299520000000 1.0
C      1  0.5017690000000  0.3774480000000  0.5345610000000 1.0
C      1  0.6018640000000  0.5609300000000  0.5268350000000 1.0
C      1  0.3966650000000  0.5629820000000  0.4688960000000 1.0
C      1  0.5016960000000  0.3802640000000  0.4720190000000 1.0
C      1  0.6042520000000  0.5638520000000  0.4641180000000 1.0
C      1  0.3964050000000  0.4360850000000  0.5338540000000 1.0
C      1  0.5011870000000  0.6195020000000  0.5280520000000 1.0
C      1  0.6059540000000  0.4371930000000  0.5331410000000 1.0
C      1  0.3947670000000  0.4440230000000  0.4728850000000 1.0
C      1  0.5029720000000  0.6219200000000  0.4682730000000 1.0
C      1  0.6060360000000  0.4410130000000  0.4732470000000 1.0
C      1  0.5006310000000  0.5256790000000  0.4076070000000 1.0
C      1  0.4736380000000  0.4819930000000  0.4017250000000 1.0
C      1  0.5233480000000  0.4825010000000  0.4055970000000 1.0
C      1  0.4981630000000  0.5267500000000  0.5910840000000 1.0
C      1  0.4737770000000  0.4816000000000  0.5992830000000 1.0
C      1  0.5230480000000  0.4851020000000  0.5945180000000 1.0
C      1  0.4988980000000  0.4669630000000  0.3984710000000 1.0
C      1  0.4748940000000  0.5116840000000  0.4039300000000 1.0
C      1  0.5250050000000  0.5111050000000  0.3988160000000 1.0
C      1  0.4999300000000  0.4684300000000  0.6043630000000 1.0
C      1  0.4734980000000  0.5114150000000  0.5957250000000 1.0
C      1  0.5230340000000  0.5137620000000  0.6006450000000 1.0
C      1  0.5290000000000  0.5142020000000  0.4332540000000 1.0
C      1  0.4733730000000  0.5219170000000  0.4364620000000 1.0
C      1  0.4961530000000  0.4718730000000  0.4328750000000 1.0
C      1  0.5266590000000  0.5142900000000  0.5659450000000 1.0
C      1  0.4710940000000  0.5195320000000  0.5626220000000 1.0
C      1  0.4966330000000  0.4695130000000  0.5689650000000 1.0
C      1  0.5288960000000  0.4808520000000  0.4375560000000 1.0
C      1  0.4675860000000  0.4882590000000  0.4353320000000 1.0
C      1  0.5028330000000  0.5358130000000  0.4390340000000 1.0
C      1  0.5282270000000  0.4805200000000  0.5622610000000 1.0
C      1  0.4697020000000  0.4858070000000  0.5654660000000 1.0
C      1  0.5006720000000  0.5361430000000  0.5599340000000 1.0
C      1  0.4612780000000  0.4385910000000  0.5605240000000 1.0
C      1  0.4630010000000  0.5603470000000  0.4392750000000 1.0
C      1  0.4652510000000  0.4404450000000  0.4363710000000 1.0
C      1  0.5699430000000  0.5013510000000  0.4376530000000 1.0
C      1  0.4645610000000  0.5583390000000  0.5651500000000 1.0
C      1  0.5687690000000  0.4998040000000  0.5609560000000 1.0
END
