TITL C-2782235-7892-663 -1.6821794775547e-07 125000 -45.181836879921 0 0 8 (D8h) n - 1
REM
REM in /home/nfs/bkarasulu/CARBON/AIRSS/Generating-Clusters/REBO/Higher-Symm/SD-CG/HFTN-CG
REM
REM
REM
REM
REM
REM ./C.cell (12c818d87b63d06a65506943cc24bca4)
REM
REM compiler GCC version 9.2.1 20190827 (Red Hat 9.2.1-1)
REM options -cpp -mtune=generic -march=x86-64 -g -O0 -fpre-include=/usr/include/finclude/math-vector-fortran.h
REM seed -711903736 1073257827 -1072836188 66367679 -1444192305 -694265848 -777778336 -1396188853 1010008884 2101936308 457214452 622675092 1407065315 -2104429764 1608255483 -831481634 -368653728 -1336073562 -635295499 936265560 1905433681 -122237542 314659996 -969117933 270108649 -525935994 -1810429609 -2106916467 -1028183263 1449467401 -1188813122 -1131544937 -1256809937
REM
CELL 1.54180   50.00000   50.00000   50.00000   90.00000   90.00000   90.00000
LATT -1
SFAC C  
C      1  0.5000000000000  0.5136390000000  0.5329280000000 1.0
C      1  0.5000000000000  0.4863610000000  0.4670720000000 1.0
C      1  0.5000000000000  0.4863610000000  0.5329280000000 1.0
C      1  0.5000000000000  0.5136390000000  0.4670720000000 1.0
C      1  0.5000000000000  0.4670720000000  0.4863610000000 1.0
C      1  0.5000000000000  0.5329280000000  0.5136390000000 1.0
C      1  0.5000000000000  0.5329280000000  0.4863610000000 1.0
C      1  0.5000000000000  0.4670720000000  0.5136390000000 1.0
END
