TITL C-2782230-7391-1371 0.00117153579671375 125000 -1169.64074648204 0 0 197 (C1) n - 1
REM
REM in /home/nfs/bkarasulu/CARBON/AIRSS/Generating-Clusters/REBO/Higher-Symm/SD-CG/HFTN-CG
REM
REM
REM
REM
REM
REM ./C.cell (12c818d87b63d06a65506943cc24bca4)
REM
REM compiler GCC version 9.2.1 20190827 (Red Hat 9.2.1-1)
REM options -cpp -mtune=generic -march=x86-64 -g -O0 -fpre-include=/usr/include/finclude/math-vector-fortran.h
REM seed -436634624 -264003015 444790243 236925008 581297512 -1349518979 1285235762 1098792370 -1292452507 -493402436 -243904987 750238222 440378470 -1511233984 -724307284 1992596884 -348001235 252389839 -891901699 -1171768960 317627112 679449234 -917473975 -1038705911 -44823372 -1542771051 451900308 -1980808179 1118363189 607610003 229291596 -1405015306 1590781308
REM
CELL 1.54180   50.00000   50.00000   50.00000   90.00000   90.00000   90.00000
LATT -1
SFAC C  
C      1  0.4723780000000  0.4925920000000  0.4059240000000 1.0
C      1  0.4938210000000  0.4661240000000  0.4084780000000 1.0
C      1  0.5232160000000  0.4832310000000  0.4057440000000 1.0
C      1  0.5200970000000  0.5171180000000  0.4045130000000 1.0
C      1  0.4868730000000  0.5229490000000  0.4000400000000 1.0
C      1  0.5297480000000  0.4969710000000  0.5964810000000 1.0
C      1  0.5064180000000  0.4725820000000  0.5961880000000 1.0
C      1  0.4760410000000  0.4878650000000  0.5953310000000 1.0
C      1  0.4801980000000  0.5216210000000  0.5951250000000 1.0
C      1  0.5137090000000  0.5269450000000  0.5958930000000 1.0
C      1  0.5272880000000  0.4522810000000  0.4320170000000 1.0
C      1  0.5482400000000  0.5086530000000  0.4316080000000 1.0
C      1  0.4964100000000  0.5496480000000  0.4408520000000 1.0
C      1  0.4486380000000  0.5220590000000  0.4351200000000 1.0
C      1  0.4693750000000  0.4625040000000  0.4398500000000 1.0
C      1  0.4720430000000  0.4507600000000  0.5655010000000 1.0
C      1  0.4519710000000  0.5131350000000  0.5682410000000 1.0
C      1  0.4980630000000  0.5537690000000  0.5707370000000 1.0
C      1  0.5496400000000  0.5213100000000  0.5694230000000 1.0
C      1  0.5344630000000  0.4630910000000  0.5688430000000 1.0
C      1  0.5590470000000  0.5605280000000  0.4366360000000 1.0
C      1  0.4634910000000  0.5761590000000  0.4318700000000 1.0
C      1  0.4164450000000  0.4797040000000  0.4313220000000 1.0
C      1  0.4864010000000  0.4095690000000  0.4363790000000 1.0
C      1  0.5782940000000  0.4621330000000  0.4324550000000 1.0
C      1  0.4402810000000  0.5632700000000  0.5615770000000 1.0
C      1  0.5439560000000  0.5789180000000  0.5699350000000 1.0
C      1  0.5868140000000  0.4834770000000  0.5683080000000 1.0
C      1  0.5163670000000  0.4133000000000  0.5700270000000 1.0
C      1  0.4229480000000  0.4627260000000  0.5724840000000 1.0
C      1  0.4042860000000  0.5716490000000  0.4808760000000 1.0
C      1  0.4141450000000  0.4210130000000  0.4817710000000 1.0
C      1  0.5436450000000  0.3885550000000  0.4790400000000 1.0
C      1  0.6128510000000  0.5128430000000  0.4837870000000 1.0
C      1  0.5227060000000  0.6129710000000  0.4809290000000 1.0
C      1  0.5963450000000  0.5654570000000  0.5204220000000 1.0
C      1  0.5843850000000  0.4211740000000  0.5198170000000 1.0
C      1  0.4583290000000  0.3884720000000  0.5197260000000 1.0
C      1  0.3915740000000  0.5145610000000  0.5130610000000 1.0
C      1  0.4718540000000  0.6143780000000  0.5231020000000 1.0
C      1  0.5489200000000  0.4708680000000  0.4185030000000 1.0
C      1  0.5404860000000  0.5379690000000  0.4188980000000 1.0
C      1  0.4742120000000  0.5484920000000  0.4148930000000 1.0
C      1  0.4462330000000  0.4944550000000  0.4223910000000 1.0
C      1  0.4946850000000  0.4357930000000  0.4162010000000 1.0
C      1  0.4543340000000  0.4730400000000  0.5806050000000 1.0
C      1  0.4590680000000  0.5422590000000  0.5808420000000 1.0
C      1  0.5276980000000  0.5524240000000  0.5837200000000 1.0
C      1  0.5573040000000  0.4934180000000  0.5823000000000 1.0
C      1  0.5133760000000  0.4449440000000  0.5825120000000 1.0
C      1  0.5302040000000  0.4332230000000  0.4601360000000 1.0
C      1  0.5661460000000  0.5072800000000  0.4599600000000 1.0
C      1  0.5028680000000  0.5680590000000  0.4682340000000 1.0
C      1  0.4331370000000  0.5351430000000  0.4624360000000 1.0
C      1  0.4524980000000  0.4500930000000  0.4635710000000 1.0
C      1  0.4644670000000  0.4362100000000  0.5356710000000 1.0
C      1  0.4372920000000  0.5164790000000  0.5383750000000 1.0
C      1  0.4896030000000  0.5707130000000  0.5431790000000 1.0
C      1  0.5621640000000  0.5354050000000  0.5410730000000 1.0
C      1  0.5474260000000  0.4519250000000  0.5411950000000 1.0
C      1  0.5959980000000  0.5194850000000  0.4571930000000 1.0
C      1  0.5077390000000  0.5978180000000  0.4570320000000 1.0
C      1  0.4144460000000  0.5547370000000  0.4550230000000 1.0
C      1  0.4341500000000  0.4246530000000  0.4560560000000 1.0
C      1  0.5413860000000  0.4083530000000  0.4543880000000 1.0
C      1  0.4047660000000  0.5225370000000  0.5431570000000 1.0
C      1  0.4815730000000  0.5974190000000  0.5486540000000 1.0
C      1  0.5840210000000  0.5517650000000  0.5464330000000 1.0
C      1  0.5646560000000  0.4248150000000  0.5446980000000 1.0
C      1  0.4578590000000  0.4081390000000  0.5443410000000 1.0
C      1  0.4199600000000  0.5934990000000  0.4627340000000 1.0
C      1  0.3974990000000  0.4396700000000  0.4611670000000 1.0
C      1  0.5197660000000  0.3753900000000  0.4603970000000 1.0
C      1  0.6144330000000  0.4854510000000  0.4671130000000 1.0
C      1  0.5466620000000  0.6061720000000  0.4602530000000 1.0
C      1  0.5865630000000  0.5907670000000  0.5384470000000 1.0
C      1  0.6016010000000  0.4393020000000  0.5401590000000 1.0
C      1  0.4859400000000  0.3812130000000  0.5353640000000 1.0
C      1  0.3992240000000  0.4856370000000  0.5290840000000 1.0
C      1  0.4448820000000  0.6109900000000  0.5408990000000 1.0
C      1  0.5365720000000  0.4010150000000  0.5094050000000 1.0
C      1  0.5985190000000  0.5098470000000  0.5143970000000 1.0
C      1  0.5234760000000  0.5995900000000  0.5120510000000 1.0
C      1  0.4148630000000  0.5624980000000  0.5118710000000 1.0
C      1  0.4209300000000  0.4314920000000  0.5135110000000 1.0
C      1  0.4631890000000  0.4024350000000  0.4904570000000 1.0
C      1  0.4018420000000  0.5135870000000  0.4803030000000 1.0
C      1  0.4716390000000  0.6022170000000  0.4915950000000 1.0
C      1  0.5831640000000  0.5572650000000  0.4901700000000 1.0
C      1  0.5760320000000  0.4338210000000  0.4894650000000 1.0
C      1  0.5146710000000  0.5227430000000  0.3713070000000 1.0
C      1  0.4845510000000  0.5256980000000  0.3660610000000 1.0
C      1  0.4727590000000  0.4979890000000  0.3723160000000 1.0
C      1  0.4957250000000  0.4779240000000  0.3772830000000 1.0
C      1  0.5220170000000  0.4927950000000  0.3731280000000 1.0
C      1  0.4895930000000  0.5254350000000  0.6276290000000 1.0
C      1  0.5198240000000  0.5189870000000  0.6282750000000 1.0
C      1  0.5232960000000  0.4883640000000  0.6287220000000 1.0
C      1  0.4951460000000  0.4756620000000  0.6281520000000 1.0
C      1  0.4744240000000  0.4986410000000  0.6272770000000 1.0
C      1  0.4811100000000  0.4297890000000  0.4896960000000 1.0
C      1  0.5542290000000  0.4579660000000  0.4927780000000 1.0
C      1  0.5528880000000  0.5474610000000  0.4907190000000 1.0
C      1  0.4772120000000  0.5705670000000  0.4901200000000 1.0
C      1  0.4296670000000  0.4998470000000  0.4917460000000 1.0
C      1  0.5199790000000  0.4284090000000  0.5077440000000 1.0
C      1  0.4449400000000  0.4532810000000  0.5127110000000 1.0
C      1  0.4435960000000  0.5473060000000  0.5118980000000 1.0
C      1  0.5178000000000  0.5675160000000  0.5153080000000 1.0
C      1  0.5676150000000  0.5016410000000  0.5095530000000 1.0
C      1  0.5335350000000  0.5923200000000  0.5415560000000 1.0
C      1  0.4201440000000  0.5504490000000  0.5413630000000 1.0
C      1  0.4237590000000  0.4457360000000  0.5443070000000 1.0
C      1  0.5357090000000  0.4110810000000  0.5419360000000 1.0
C      1  0.5838480000000  0.5010050000000  0.5433050000000 1.0
C      1  0.4746280000000  0.5944050000000  0.4585440000000 1.0
C      1  0.5782810000000  0.5453730000000  0.4601810000000 1.0
C      1  0.5706280000000  0.4497400000000  0.4606660000000 1.0
C      1  0.4621160000000  0.4114490000000  0.4598500000000 1.0
C      1  0.4190210000000  0.4996370000000  0.4544870000000 1.0
C      1  0.4466810000000  0.5356570000000  0.4868830000000 1.0
C      1  0.4563020000000  0.4616810000000  0.4869970000000 1.0
C      1  0.5183930000000  0.4429160000000  0.4837390000000 1.0
C      1  0.5556120000000  0.5020960000000  0.4845540000000 1.0
C      1  0.5204640000000  0.5514880000000  0.4885570000000 1.0
C      1  0.5458270000000  0.5339460000000  0.5181820000000 1.0
C      1  0.5423660000000  0.4638550000000  0.5177350000000 1.0
C      1  0.4838860000000  0.4453540000000  0.5108410000000 1.0
C      1  0.4262160000000  0.4955830000000  0.5190250000000 1.0
C      1  0.4873190000000  0.5571250000000  0.5148270000000 1.0
C      1  0.4864150000000  0.4247130000000  0.5814120000000 1.0
C      1  0.5653140000000  0.4603370000000  0.5795590000000 1.0
C      1  0.5612160000000  0.5470810000000  0.5864920000000 1.0
C      1  0.4750490000000  0.5717620000000  0.5865150000000 1.0
C      1  0.4272790000000  0.4948200000000  0.5784360000000 1.0
C      1  0.5240960000000  0.4243150000000  0.4141550000000 1.0
C      1  0.4416600000000  0.4604150000000  0.4224930000000 1.0
C      1  0.4402510000000  0.5476180000000  0.4165430000000 1.0
C      1  0.5207440000000  0.5642690000000  0.4231980000000 1.0
C      1  0.5749120000000  0.4929180000000  0.4205850000000 1.0
C      1  0.5063130000000  0.4728520000000  0.4799680000000 1.0
C      1  0.5263470000000  0.4972630000000  0.4869560000000 1.0
C      1  0.5118890000000  0.5218450000000  0.4804730000000 1.0
C      1  0.4809250000000  0.5156330000000  0.4819750000000 1.0
C      1  0.4774500000000  0.4827060000000  0.4895900000000 1.0
C      1  0.4949190000000  0.4746170000000  0.5242720000000 1.0
C      1  0.4756630000000  0.4997180000000  0.5181740000000 1.0
C      1  0.4892790000000  0.5276570000000  0.5126840000000 1.0
C      1  0.5188070000000  0.5173580000000  0.5205910000000 1.0
C      1  0.5211110000000  0.4851030000000  0.5152320000000 1.0
C      1  0.4742010000000  0.5974620000000  0.5763380000000 1.0
C      1  0.4034630000000  0.5094900000000  0.5700570000000 1.0
C      1  0.4647570000000  0.4041000000000  0.5710430000000 1.0
C      1  0.5740750000000  0.4338670000000  0.5734520000000 1.0
C      1  0.5834540000000  0.5580100000000  0.5742190000000 1.0
C      1  0.5202320000000  0.5916490000000  0.4289130000000 1.0
C      1  0.5979650000000  0.5083620000000  0.4276350000000 1.0
C      1  0.5384080000000  0.4030620000000  0.4266110000000 1.0
C      1  0.4308860000000  0.4337450000000  0.4260760000000 1.0
C      1  0.4186390000000  0.5609550000000  0.4274240000000 1.0
C      1  0.4643120000000  0.5612280000000  0.4616840000000 1.0
C      1  0.4487600000000  0.4977540000000  0.4665560000000 1.0
C      1  0.4884490000000  0.4331770000000  0.4591320000000 1.0
C      1  0.5440770000000  0.4703520000000  0.4633760000000 1.0
C      1  0.5443100000000  0.5405340000000  0.4585300000000 1.0
C      1  0.5277020000000  0.5587470000000  0.5443620000000 1.0
C      1  0.5518220000000  0.4971460000000  0.5376790000000 1.0
C      1  0.5123750000000  0.4334750000000  0.5361150000000 1.0
C      1  0.4469160000000  0.4706220000000  0.5417490000000 1.0
C      1  0.4588460000000  0.5404040000000  0.5397800000000 1.0
C      1  0.4722070000000  0.5308530000000  0.4565860000000 1.0
C      1  0.4739650000000  0.4913830000000  0.4509370000000 1.0
C      1  0.5017210000000  0.4592640000000  0.4499730000000 1.0
C      1  0.5294360000000  0.4891460000000  0.4480810000000 1.0
C      1  0.5179950000000  0.5274170000000  0.4500860000000 1.0
C      1  0.5242280000000  0.5290030000000  0.5514510000000 1.0
C      1  0.5296640000000  0.4896240000000  0.5538020000000 1.0
C      1  0.4979190000000  0.4546700000000  0.5469830000000 1.0
C      1  0.4681360000000  0.4935280000000  0.5491530000000 1.0
C      1  0.4846680000000  0.5321940000000  0.5520660000000 1.0
C      1  0.3971070000000  0.4737700000000  0.5532950000000 1.0
C      1  0.5030830000000  0.3898220000000  0.5507640000000 1.0
C      1  0.6019590000000  0.4572990000000  0.5569390000000 1.0
C      1  0.5702500000000  0.5917370000000  0.5572540000000 1.0
C      1  0.4397110000000  0.5924130000000  0.5567770000000 1.0
C      1  0.6038820000000  0.4698610000000  0.4513830000000 1.0
C      1  0.5042200000000  0.3849650000000  0.4434440000000 1.0
C      1  0.3979970000000  0.4571060000000  0.4437040000000 1.0
C      1  0.4371790000000  0.5921490000000  0.4449980000000 1.0
C      1  0.5569960000000  0.5903160000000  0.4444620000000 1.0
C      1  0.4980650000000  0.6184300000000  0.5030320000000 1.0
C      1  0.5673390000000  0.4029720000000  0.4977980000000 1.0
C      1  0.4323920000000  0.4021850000000  0.5028130000000 1.0
C      1  0.3937790000000  0.5426270000000  0.4948180000000 1.0
C      1  0.6078010000000  0.5394410000000  0.5033760000000 1.0
C      1  0.5004430000000  0.5037430000000  0.5531720000000 1.0
C      1  0.5006730000000  0.4991660000000  0.4495630000000 1.0
END
