TITL C-2782234-8014-521 0.00421231705947157 125000 -685.289669105275 0 0 121 (C1) n - 1
REM
REM in /home/nfs/bkarasulu/CARBON/AIRSS/Generating-Clusters/REBO/Higher-Symm/SD-CG/HFTN-CG
REM
REM
REM
REM
REM
REM ./C.cell (12c818d87b63d06a65506943cc24bca4)
REM
REM compiler GCC version 9.2.1 20190827 (Red Hat 9.2.1-1)
REM options -cpp -mtune=generic -march=x86-64 -g -O0 -fpre-include=/usr/include/finclude/math-vector-fortran.h
REM seed -418247103 -325383706 -79192963 -1816849242 -1455055388 1063730847 1993501168 815217498 -1633572905 -1884529598 -860618689 -1626609886 1893628034 1168269913 1924788912 66785925 406456397 1498306636 1497394380 -1734886299 -922740111 541979401 -126316369 1167366166 872938835 2069974835 -369699249 -277460711 1123008491 -992837064 1641456587 1861607519 -1708802873
REM
CELL 1.54180   50.00000   50.00000   50.00000   90.00000   90.00000   90.00000
LATT -1
SFAC C  
C      1  0.5941550000000  0.4608350000000  0.4858710000000 1.0
C      1  0.5709160000000  0.5716860000000  0.4861280000000 1.0
C      1  0.4581100000000  0.5913870000000  0.4824180000000 1.0
C      1  0.4007650000000  0.4909610000000  0.4858670000000 1.0
C      1  0.4754110000000  0.4061060000000  0.4834850000000 1.0
C      1  0.5020490000000  0.5353270000000  0.5165610000000 1.0
C      1  0.4575010000000  0.5083030000000  0.5176810000000 1.0
C      1  0.4762720000000  0.4541490000000  0.5144600000000 1.0
C      1  0.5210280000000  0.4725990000000  0.5160100000000 1.0
C      1  0.5379880000000  0.4997930000000  0.5159680000000 1.0
C      1  0.5584380000000  0.4852850000000  0.4162150000000 1.0
C      1  0.5325210000000  0.5460860000000  0.4232390000000 1.0
C      1  0.4688820000000  0.5460420000000  0.4233380000000 1.0
C      1  0.4474060000000  0.4773150000000  0.4257680000000 1.0
C      1  0.5011340000000  0.4389430000000  0.4175330000000 1.0
C      1  0.4607550000000  0.5290890000000  0.4765320000000 1.0
C      1  0.4558870000000  0.4649560000000  0.4793310000000 1.0
C      1  0.5158370000000  0.4448850000000  0.4670540000000 1.0
C      1  0.5497920000000  0.4994670000000  0.4660490000000 1.0
C      1  0.5166370000000  0.5402560000000  0.4751380000000 1.0
C      1  0.5117300000000  0.4249240000000  0.4444230000000 1.0
C      1  0.5698090000000  0.4992200000000  0.4425350000000 1.0
C      1  0.5266770000000  0.5591760000000  0.4515750000000 1.0
C      1  0.4610850000000  0.5492520000000  0.4534110000000 1.0
C      1  0.4394910000000  0.4614090000000  0.4520170000000 1.0
C      1  0.5162490000000  0.5933570000000  0.5323290000000 1.0
C      1  0.4137410000000  0.5531960000000  0.5402600000000 1.0
C      1  0.4309030000000  0.4338270000000  0.5368740000000 1.0
C      1  0.5430270000000  0.4212700000000  0.5278590000000 1.0
C      1  0.5969470000000  0.5274730000000  0.5339800000000 1.0
C      1  0.4854300000000  0.5278470000000  0.4967710000000 1.0
C      1  0.4695540000000  0.4893290000000  0.4966820000000 1.0
C      1  0.4945040000000  0.4583610000000  0.4898690000000 1.0
C      1  0.5311110000000  0.4777930000000  0.4834460000000 1.0
C      1  0.5317530000000  0.5218200000000  0.4938350000000 1.0
C      1  0.4329890000000  0.5324110000000  0.4904140000000 1.0
C      1  0.4468880000000  0.4338950000000  0.4800930000000 1.0
C      1  0.5470210000000  0.4493550000000  0.4735950000000 1.0
C      1  0.5653720000000  0.5157510000000  0.4915760000000 1.0
C      1  0.5108160000000  0.5721830000000  0.4859120000000 1.0
C      1  0.5150450000000  0.5212320000000  0.4192770000000 1.0
C      1  0.4822180000000  0.5183310000000  0.4206110000000 1.0
C      1  0.4769020000000  0.4863980000000  0.4237640000000 1.0
C      1  0.5043560000000  0.4696220000000  0.4189590000000 1.0
C      1  0.5286130000000  0.4912990000000  0.4157240000000 1.0
C      1  0.5173280000000  0.5162840000000  0.5758080000000 1.0
C      1  0.4848580000000  0.5219670000000  0.5753600000000 1.0
C      1  0.4701780000000  0.4932160000000  0.5705030000000 1.0
C      1  0.4937920000000  0.4701690000000  0.5736740000000 1.0
C      1  0.5216410000000  0.4839540000000  0.5744440000000 1.0
C      1  0.4642680000000  0.4161010000000  0.4573230000000 1.0
C      1  0.5766820000000  0.4557010000000  0.4627610000000 1.0
C      1  0.5750850000000  0.5708710000000  0.4579830000000 1.0
C      1  0.4585940000000  0.5976280000000  0.4543140000000 1.0
C      1  0.3994330000000  0.4921360000000  0.4574890000000 1.0
C      1  0.5506520000000  0.4441320000000  0.5495780000000 1.0
C      1  0.5692580000000  0.5363930000000  0.5485800000000 1.0
C      1  0.4971900000000  0.5709000000000  0.5434910000000 1.0
C      1  0.4247390000000  0.5255540000000  0.5531320000000 1.0
C      1  0.4549280000000  0.4343070000000  0.5595940000000 1.0
C      1  0.4187110000000  0.4769590000000  0.5450090000000 1.0
C      1  0.5014650000000  0.4170610000000  0.5465110000000 1.0
C      1  0.5699590000000  0.4771380000000  0.5609370000000 1.0
C      1  0.5472710000000  0.5665910000000  0.5563310000000 1.0
C      1  0.4578190000000  0.5687480000000  0.5476800000000 1.0
C      1  0.5437770000000  0.5363870000000  0.5717650000000 1.0
C      1  0.4807120000000  0.5546400000000  0.5686760000000 1.0
C      1  0.4371010000000  0.4965730000000  0.5662180000000 1.0
C      1  0.4864670000000  0.4384170000000  0.5685920000000 1.0
C      1  0.5463290000000  0.4647460000000  0.5756190000000 1.0
C      1  0.5497540000000  0.5525890000000  0.5254730000000 1.0
C      1  0.4749580000000  0.5662600000000  0.5196340000000 1.0
C      1  0.4258380000000  0.5032530000000  0.5285360000000 1.0
C      1  0.4734570000000  0.4257990000000  0.5330450000000 1.0
C      1  0.5731070000000  0.4631310000000  0.5322490000000 1.0
C      1  0.5272090000000  0.4440230000000  0.5076720000000 1.0
C      1  0.5690880000000  0.4911830000000  0.5158310000000 1.0
C      1  0.5213970000000  0.5558420000000  0.5115730000000 1.0
C      1  0.4535920000000  0.5421560000000  0.5157620000000 1.0
C      1  0.4442330000000  0.4529410000000  0.5151080000000 1.0
C      1  0.5077050000000  0.5204040000000  0.5431980000000 1.0
C      1  0.4746090000000  0.5201420000000  0.5417070000000 1.0
C      1  0.4729360000000  0.4760270000000  0.5404900000000 1.0
C      1  0.5055010000000  0.4696580000000  0.5407660000000 1.0
C      1  0.5380130000000  0.4972650000000  0.5479220000000 1.0
C      1  0.5207270000000  0.4108010000000  0.5043130000000 1.0
C      1  0.5977520000000  0.5058140000000  0.5173590000000 1.0
C      1  0.5369650000000  0.5986830000000  0.5159500000000 1.0
C      1  0.4296450000000  0.5633640000000  0.5198610000000 1.0
C      1  0.4124790000000  0.4506830000000  0.5158260000000 1.0
C      1  0.5019900000000  0.3992550000000  0.4897500000000 1.0
C      1  0.6065740000000  0.4867080000000  0.4917250000000 1.0
C      1  0.5573150000000  0.5935470000000  0.4986010000000 1.0
C      1  0.4325420000000  0.5828200000000  0.4948390000000 1.0
C      1  0.3967360000000  0.4659940000000  0.4988600000000 1.0
C      1  0.4180290000000  0.4814350000000  0.4396040000000 1.0
C      1  0.4815650000000  0.4198590000000  0.4360300000000 1.0
C      1  0.5782530000000  0.4693830000000  0.4379620000000 1.0
C      1  0.5556430000000  0.5633570000000  0.4392650000000 1.0
C      1  0.4614900000000  0.5756380000000  0.4367860000000 1.0
C      1  0.4739740000000  0.4806300000000  0.4580080000000 1.0
C      1  0.5033840000000  0.4706400000000  0.4528700000000 1.0
C      1  0.5226080000000  0.4957480000000  0.4488950000000 1.0
C      1  0.5054610000000  0.5218220000000  0.4526060000000 1.0
C      1  0.4752140000000  0.5120320000000  0.4541830000000 1.0
C      1  0.4161170000000  0.5096540000000  0.4998170000000 1.0
C      1  0.4604130000000  0.4179000000000  0.5060540000000 1.0
C      1  0.5828430000000  0.4467990000000  0.5080930000000 1.0
C      1  0.5679400000000  0.5477410000000  0.5008280000000 1.0
C      1  0.4814040000000  0.5795100000000  0.4938470000000 1.0
C      1  0.4526470000000  0.5379780000000  0.5583430000000 1.0
C      1  0.4462970000000  0.4646280000000  0.5569620000000 1.0
C      1  0.5183120000000  0.4440260000000  0.5560400000000 1.0
C      1  0.5657190000000  0.5063450000000  0.5577760000000 1.0
C      1  0.5176410000000  0.5498290000000  0.5542030000000 1.0
C      1  0.5256470000000  0.5923880000000  0.4738400000000 1.0
C      1  0.4188510000000  0.5588700000000  0.4817110000000 1.0
C      1  0.4189360000000  0.4306170000000  0.4781030000000 1.0
C      1  0.5578980000000  0.4313960000000  0.4990030000000 1.0
C      1  0.5950110000000  0.5112520000000  0.4779800000000 1.0
C      1  0.4993910000000  0.4897640000000  0.4877040000000 1.0
END
