TITL C-2782234-8014-1257 0.00266769901987628 125000 -242.640240093629 0 0 40 (C1) n - 1
REM
REM in /home/nfs/bkarasulu/CARBON/AIRSS/Generating-Clusters/REBO/Higher-Symm/SD-CG/HFTN-CG
REM
REM
REM
REM
REM
REM ./C.cell (12c818d87b63d06a65506943cc24bca4)
REM
REM compiler GCC version 9.2.1 20190827 (Red Hat 9.2.1-1)
REM options -cpp -mtune=generic -march=x86-64 -g -O0 -fpre-include=/usr/include/finclude/math-vector-fortran.h
REM seed -1759852652 560053178 -1338958127 -183686176 -799322741 -320469539 -367375572 1155515725 1193489431 -655112708 1617916760 -1628762435 -540914887 1234417426 631432098 1591423409 1381499395 -1339884099 -1196056077 1552350113 -786539160 46828467 -1949556212 933804278 -2025180308 26720931 -958679127 512565934 1518435660 -1490474002 -1400728684 -18643523 2040875220
REM
CELL 1.54180   50.00000   50.00000   50.00000   90.00000   90.00000   90.00000
LATT -1
SFAC C  
C      1  0.4581940000000  0.5055500000000  0.4638310000000 1.0
C      1  0.5279930000000  0.5304670000000  0.4648700000000 1.0
C      1  0.5137150000000  0.4611270000000  0.4646400000000 1.0
C      1  0.4547860000000  0.5226890000000  0.5095830000000 1.0
C      1  0.5426670000000  0.5222440000000  0.5122820000000 1.0
C      1  0.4985570000000  0.4554850000000  0.5119980000000 1.0
C      1  0.5092150000000  0.4833730000000  0.4402220000000 1.0
C      1  0.4813440000000  0.5000790000000  0.4399020000000 1.0
C      1  0.5100670000000  0.5156270000000  0.4407520000000 1.0
C      1  0.4749310000000  0.4502030000000  0.4917680000000 1.0
C      1  0.4712020000000  0.5411850000000  0.4935570000000 1.0
C      1  0.5576560000000  0.5032100000000  0.4917830000000 1.0
C      1  0.5325040000000  0.5388590000000  0.5596700000000 1.0
C      1  0.5200350000000  0.4558920000000  0.5584600000000 1.0
C      1  0.4555800000000  0.5089110000000  0.5567030000000 1.0
C      1  0.4631190000000  0.4733670000000  0.5075810000000 1.0
C      1  0.4967840000000  0.5442410000000  0.5085930000000 1.0
C      1  0.5410940000000  0.4827400000000  0.5070870000000 1.0
C      1  0.5245750000000  0.4838010000000  0.5576670000000 1.0
C      1  0.4760750000000  0.4897180000000  0.5581290000000 1.0
C      1  0.5056180000000  0.5293840000000  0.5584520000000 1.0
C      1  0.5386130000000  0.4710640000000  0.4436310000000 1.0
C      1  0.4566630000000  0.4793880000000  0.4421640000000 1.0
C      1  0.5067860000000  0.5472940000000  0.4442430000000 1.0
C      1  0.4806740000000  0.5538110000000  0.4483710000000 1.0
C      1  0.5576550000000  0.4903520000000  0.4461960000000 1.0
C      1  0.4647840000000  0.4536180000000  0.4455360000000 1.0
C      1  0.5212940000000  0.5363520000000  0.4959500000000 1.0
C      1  0.5215820000000  0.4661270000000  0.4953900000000 1.0
C      1  0.4543810000000  0.4973090000000  0.4949230000000 1.0
C      1  0.5532490000000  0.5110010000000  0.4651490000000 1.0
C      1  0.4843840000000  0.4485150000000  0.4653780000000 1.0
C      1  0.4660690000000  0.5370790000000  0.4658130000000 1.0
C      1  0.5501320000000  0.5258700000000  0.5430740000000 1.0
C      1  0.4995890000000  0.4467740000000  0.5427580000000 1.0
C      1  0.4608290000000  0.5286650000000  0.5372600000000 1.0
C      1  0.4884740000000  0.5396950000000  0.5373790000000 1.0
C      1  0.5417970000000  0.4949230000000  0.5363590000000 1.0
C      1  0.4759200000000  0.4688640000000  0.5369500000000 1.0
C      1  0.5020950000000  0.5007030000000  0.5638300000000 1.0
END
