TITL C-2782235-7892-1353 -0.00137951103202506 125000 -276.83485047137 0 0 47 (C3) n - 1
REM
REM in /home/nfs/bkarasulu/CARBON/AIRSS/Generating-Clusters/REBO/Higher-Symm/SD-CG/HFTN-CG
REM
REM
REM
REM
REM
REM ./C.cell (12c818d87b63d06a65506943cc24bca4)
REM
REM compiler GCC version 9.2.1 20190827 (Red Hat 9.2.1-1)
REM options -cpp -mtune=generic -march=x86-64 -g -O0 -fpre-include=/usr/include/finclude/math-vector-fortran.h
REM seed 1719944122 1239482605 -1486021446 -1866584341 1736474427 92964621 1784374956 -64843425 -654515640 1512198168 1441499690 -754515686 1967362104 2092123195 1122040316 -392903844 -930428646 -285360396 545088953 -1530482742 -328347414 -1325037137 -497307602 -800125430 483693104 -2089443120 -67526040 -993284573 1063694478 -26687431 -3958293 1754954018 1313732366
REM
CELL 1.54180   50.00000   50.00000   50.00000   90.00000   90.00000   90.00000
LATT -1
SFAC C  
C      1  0.4554150000000  0.5222540000000  0.5127780000000 1.0
C      1  0.5034570000000  0.4474140000000  0.5127570000000 1.0
C      1  0.5442490000000  0.5264400000000  0.5127680000000 1.0
C      1  0.5674970000000  0.5417360000000  0.4724520000000 1.0
C      1  0.4305440000000  0.5347550000000  0.4724680000000 1.0
C      1  0.5050660000000  0.4196410000000  0.4724350000000 1.0
C      1  0.5451890000000  0.4945990000000  0.5365840000000 1.0
C      1  0.4825190000000  0.5389780000000  0.5366000000000 1.0
C      1  0.4754210000000  0.4625160000000  0.5365850000000 1.0
C      1  0.4382900000000  0.5138850000000  0.4899210000000 1.0
C      1  0.5192670000000  0.4367780000000  0.4898960000000 1.0
C      1  0.5455550000000  0.5454590000000  0.4899150000000 1.0
C      1  0.5379310000000  0.4765200000000  0.4541340000000 1.0
C      1  0.5018050000000  0.5417670000000  0.4541510000000 1.0
C      1  0.4633630000000  0.4778570000000  0.4541430000000 1.0
C      1  0.5434720000000  0.5074490000000  0.4461090000000 1.0
C      1  0.4722500000000  0.5311040000000  0.4461230000000 1.0
C      1  0.4873750000000  0.4575960000000  0.4461060000000 1.0
C      1  0.4587410000000  0.4629570000000  0.4846040000000 1.0
C      1  0.5531470000000  0.4799550000000  0.4845960000000 1.0
C      1  0.4912230000000  0.5532140000000  0.4846180000000 1.0
C      1  0.4961910000000  0.4804730000000  0.5167030000000 1.0
C      1  0.5192530000000  0.5036170000000  0.5167050000000 1.0
C      1  0.4876780000000  0.5120160000000  0.5167110000000 1.0
C      1  0.4890490000000  0.4534910000000  0.5619000000000 1.0
C      1  0.5461910000000  0.5109040000000  0.5619050000000 1.0
C      1  0.4678990000000  0.5316840000000  0.5619180000000 1.0
C      1  0.5060630000000  0.4375360000000  0.5426140000000 1.0
C      1  0.5515000000000  0.5336240000000  0.5426280000000 1.0
C      1  0.4455680000000  0.5249300000000  0.5426390000000 1.0
C      1  0.4741250000000  0.5035910000000  0.4387690000000 1.0
C      1  0.5102640000000  0.4729800000000  0.4387590000000 1.0
C      1  0.5187050000000  0.5195830000000  0.4387670000000 1.0
C      1  0.4703780000000  0.4520980000000  0.5063130000000 1.0
C      1  0.5567320000000  0.4954530000000  0.5063110000000 1.0
C      1  0.4760080000000  0.5485610000000  0.5063320000000 1.0
C      1  0.5660770000000  0.5223970000000  0.4530190000000 1.0
C      1  0.4480020000000  0.5432040000000  0.4530370000000 1.0
C      1  0.4890200000000  0.4305440000000  0.4530090000000 1.0
C      1  0.5380560000000  0.4534000000000  0.4787920000000 1.0
C      1  0.5217660000000  0.5534250000000  0.4788140000000 1.0
C      1  0.4432870000000  0.4893050000000  0.4788110000000 1.0
C      1  0.4811460000000  0.5184700000000  0.5827220000000 1.0
C      1  0.4938680000000  0.4715610000000  0.5827110000000 1.0
C      1  0.5281320000000  0.5060340000000  0.5827140000000 1.0
C      1  0.5010300000000  0.4987200000000  0.4305150000000 1.0
C      1  0.5010490000000  0.4986880000000  0.5869570000000 1.0
END
