TITL C-2782233-7966-143 0.000837554877550311 125000 -548.121250427162 0 0 96 (Ci) n - 1
REM
REM in /home/nfs/bkarasulu/CARBON/AIRSS/Generating-Clusters/REBO/Higher-Symm/SD-CG/HFTN-CG
REM
REM
REM
REM
REM
REM ./C.cell (12c818d87b63d06a65506943cc24bca4)
REM
REM compiler GCC version 9.2.1 20190827 (Red Hat 9.2.1-1)
REM options -cpp -mtune=generic -march=x86-64 -g -O0 -fpre-include=/usr/include/finclude/math-vector-fortran.h
REM seed 1890688667 100006050 -1787272579 -675100464 -1808596610 933774531 -65943860 -1085044435 1896223149 1457106364 -940658295 -266848029 163351418 359270796 627392476 -1155788106 1681454342 -1947116192 2104406568 36933791 -539397717 -267477957 315442943 1287067001 -1060495401 -1102505396 426936964 -2027726737 -286126088 -2064488562 -1237073543 -1289220086 -538391843
REM
CELL 1.54180   50.00000   50.00000   50.00000   90.00000   90.00000   90.00000
LATT -1
SFAC C  
C      1  0.5173190000000  0.4676610000000  0.4566050000000 1.0
C      1  0.4826810000000  0.5323390000000  0.5433950000000 1.0
C      1  0.5173130000000  0.4678960000000  0.5653490000000 1.0
C      1  0.4826870000000  0.5321040000000  0.4346510000000 1.0
C      1  0.5763630000000  0.4701010000000  0.4732530000000 1.0
C      1  0.4236370000000  0.5298990000000  0.5267470000000 1.0
C      1  0.5003150000000  0.5365420000000  0.5722720000000 1.0
C      1  0.4996850000000  0.4634580000000  0.4277280000000 1.0
C      1  0.4579030000000  0.4933180000000  0.4327350000000 1.0
C      1  0.5420970000000  0.5066820000000  0.5672650000000 1.0
C      1  0.5935880000000  0.5291100000000  0.5063270000000 1.0
C      1  0.4064120000000  0.4708900000000  0.4936730000000 1.0
C      1  0.4830620000000  0.4841620000000  0.5083390000000 1.0
C      1  0.5169380000000  0.5158380000000  0.4916610000000 1.0
C      1  0.5108510000000  0.4279760000000  0.4444290000000 1.0
C      1  0.4891490000000  0.5720240000000  0.5555710000000 1.0
C      1  0.5084760000000  0.5907340000000  0.4579750000000 1.0
C      1  0.4915240000000  0.4092660000000  0.5420250000000 1.0
C      1  0.4752700000000  0.4343590000000  0.5574650000000 1.0
C      1  0.5247300000000  0.5656410000000  0.4425350000000 1.0
C      1  0.5276760000000  0.5155560000000  0.4291050000000 1.0
C      1  0.4723240000000  0.4844440000000  0.5708950000000 1.0
C      1  0.4860900000000  0.5425550000000  0.4996530000000 1.0
C      1  0.5139100000000  0.4574450000000  0.5003470000000 1.0
C      1  0.6037930000000  0.5037480000000  0.4986430000000 1.0
C      1  0.3962070000000  0.4962520000000  0.5013570000000 1.0
C      1  0.4527170000000  0.4929010000000  0.4953540000000 1.0
C      1  0.5472830000000  0.5070990000000  0.5046460000000 1.0
C      1  0.4582710000000  0.4324790000000  0.4697260000000 1.0
C      1  0.5417290000000  0.5675210000000  0.5302740000000 1.0
C      1  0.4735850000000  0.4969110000000  0.4707470000000 1.0
C      1  0.5264150000000  0.5030890000000  0.5292530000000 1.0
C      1  0.4334680000000  0.5176370000000  0.4976970000000 1.0
C      1  0.5665320000000  0.4823630000000  0.5023030000000 1.0
C      1  0.4886730000000  0.5989000000000  0.4847810000000 1.0
C      1  0.5113270000000  0.4011000000000  0.5152190000000 1.0
C      1  0.5535220000000  0.4544810000000  0.5019640000000 1.0
C      1  0.4464780000000  0.5455190000000  0.4980360000000 1.0
C      1  0.5019100000000  0.4472400000000  0.5481180000000 1.0
C      1  0.4980900000000  0.5527600000000  0.4518820000000 1.0
C      1  0.4858780000000  0.4405850000000  0.4618950000000 1.0
C      1  0.5141220000000  0.5594150000000  0.5381050000000 1.0
C      1  0.5153630000000  0.4332370000000  0.4771820000000 1.0
C      1  0.4846370000000  0.5667630000000  0.5228180000000 1.0
C      1  0.4050460000000  0.5033600000000  0.5282140000000 1.0
C      1  0.5949540000000  0.4966400000000  0.4717860000000 1.0
C      1  0.4394860000000  0.4474310000000  0.4543280000000 1.0
C      1  0.5605140000000  0.5525690000000  0.5456720000000 1.0
C      1  0.5357330000000  0.5029670000000  0.4592850000000 1.0
C      1  0.4642670000000  0.4970330000000  0.5407150000000 1.0
C      1  0.5219990000000  0.4838860000000  0.4838930000000 1.0
C      1  0.4780010000000  0.5161140000000  0.5161070000000 1.0
C      1  0.5009020000000  0.5124740000000  0.4209060000000 1.0
C      1  0.4990980000000  0.4875260000000  0.5790940000000 1.0
C      1  0.5437060000000  0.5726430000000  0.5025350000000 1.0
C      1  0.4562940000000  0.4273570000000  0.4974650000000 1.0
C      1  0.4775100000000  0.5753920000000  0.4629810000000 1.0
C      1  0.5224900000000  0.4246080000000  0.5370190000000 1.0
C      1  0.4422860000000  0.4714830000000  0.5615640000000 1.0
C      1  0.5577140000000  0.5285170000000  0.4384360000000 1.0
C      1  0.5551900000000  0.4566900000000  0.4500790000000 1.0
C      1  0.4448100000000  0.5433100000000  0.5499210000000 1.0
C      1  0.4562230000000  0.5213340000000  0.4531370000000 1.0
C      1  0.5437770000000  0.4786660000000  0.5468630000000 1.0
C      1  0.5053570000000  0.4778580000000  0.5333090000000 1.0
C      1  0.4946430000000  0.5221420000000  0.4666910000000 1.0
C      1  0.4381350000000  0.5106340000000  0.5493350000000 1.0
C      1  0.5618650000000  0.4893660000000  0.4506650000000 1.0
C      1  0.5549420000000  0.5515170000000  0.4878380000000 1.0
C      1  0.4450580000000  0.4484830000000  0.5121620000000 1.0
C      1  0.4423010000000  0.4709470000000  0.4404370000000 1.0
C      1  0.5576990000000  0.5290530000000  0.5595630000000 1.0
C      1  0.4823380000000  0.4181970000000  0.5107390000000 1.0
C      1  0.5176620000000  0.5818030000000  0.4892610000000 1.0
C      1  0.4691130000000  0.5501120000000  0.5694550000000 1.0
C      1  0.5308870000000  0.4498880000000  0.4305450000000 1.0
C      1  0.5151460000000  0.5490790000000  0.4876730000000 1.0
C      1  0.4848540000000  0.4509210000000  0.5123270000000 1.0
C      1  0.4246200000000  0.5198250000000  0.4658120000000 1.0
C      1  0.5753800000000  0.4801750000000  0.5341880000000 1.0
C      1  0.3983070000000  0.5150020000000  0.4790390000000 1.0
C      1  0.6016930000000  0.4849980000000  0.5209610000000 1.0
C      1  0.5159770000000  0.5106500000000  0.5793180000000 1.0
C      1  0.4840230000000  0.4893500000000  0.4206820000000 1.0
C      1  0.4341890000000  0.4684120000000  0.4961470000000 1.0
C      1  0.5658110000000  0.5315880000000  0.5038530000000 1.0
C      1  0.4166480000000  0.4862230000000  0.5525720000000 1.0
C      1  0.5833520000000  0.5137770000000  0.4474280000000 1.0
C      1  0.4551010000000  0.5551880000000  0.5221980000000 1.0
C      1  0.5448990000000  0.4448120000000  0.4778020000000 1.0
C      1  0.4628650000000  0.4630710000000  0.5356330000000 1.0
C      1  0.5371350000000  0.5369290000000  0.4643670000000 1.0
C      1  0.5161540000000  0.5272210000000  0.5429340000000 1.0
C      1  0.4838460000000  0.4727790000000  0.4570660000000 1.0
C      1  0.4648450000000  0.5477770000000  0.4734180000000 1.0
C      1  0.5351550000000  0.4522230000000  0.5265820000000 1.0
END
