TITL C-2782236-320-52 -6.7571307629651e-05 125000 -236.619891211866 0 0 44 (C2) n - 1
REM
REM in /home/nfs/bkarasulu/CARBON/AIRSS/Generating-Clusters/REBO/Higher-Symm/SD-CG/HFTN-CG
REM
REM
REM
REM
REM
REM ./C.cell (12c818d87b63d06a65506943cc24bca4)
REM
REM compiler GCC version 9.2.1 20190827 (Red Hat 9.2.1-1)
REM options -cpp -mtune=generic -march=x86-64 -g -O0 -fpre-include=/usr/include/finclude/math-vector-fortran.h
REM seed 112886162 -1722758300 1490120307 -640667213 -1033813216 -796762888 -926964669 441709652 705859892 948460543 1738992453 1547531512 -1604024669 -2075626944 -1821364236 -322025024 1201188249 305705975 1596577581 -105807991 1909826443 -1237405998 828121609 -16510008 -734465531 -1090636136 -519740281 2012087017 2079579941 -541718198 -1745109682 1611558649 1146013115
REM
CELL 1.54180   50.00000   50.00000   50.00000   90.00000   90.00000   90.00000
LATT -1
SFAC C  
C      1  0.5187270000000  0.5506310000000  0.5430350000000 1.0
C      1  0.4817840000000  0.4505290000000  0.5446110000000 1.0
C      1  0.4851490000000  0.5476650000000  0.4542880000000 1.0
C      1  0.5143020000000  0.4510860000000  0.4554210000000 1.0
C      1  0.5245090000000  0.4816370000000  0.5160230000000 1.0
C      1  0.4756690000000  0.5187670000000  0.5158110000000 1.0
C      1  0.4986060000000  0.4759430000000  0.4956170000000 1.0
C      1  0.5013270000000  0.5239030000000  0.4949510000000 1.0
C      1  0.4639200000000  0.4858820000000  0.5684000000000 1.0
C      1  0.5368790000000  0.5159330000000  0.5675580000000 1.0
C      1  0.5393260000000  0.4974810000000  0.4381090000000 1.0
C      1  0.4599270000000  0.5008220000000  0.4385370000000 1.0
C      1  0.5331890000000  0.5350950000000  0.4926360000000 1.0
C      1  0.4667200000000  0.4646970000000  0.4939860000000 1.0
C      1  0.4698800000000  0.5473650000000  0.5018580000000 1.0
C      1  0.5301360000000  0.4526720000000  0.5027810000000 1.0
C      1  0.4895170000000  0.5532880000000  0.5293840000000 1.0
C      1  0.5108290000000  0.4474990000000  0.5306900000000 1.0
C      1  0.5156110000000  0.5490310000000  0.4676370000000 1.0
C      1  0.4840010000000  0.4500870000000  0.4691650000000 1.0
C      1  0.4707640000000  0.4886520000000  0.5410380000000 1.0
C      1  0.5297090000000  0.5124240000000  0.5403650000000 1.0
C      1  0.5320800000000  0.4938230000000  0.4654810000000 1.0
C      1  0.4674980000000  0.5052190000000  0.4657110000000 1.0
C      1  0.4963490000000  0.5296830000000  0.5539300000000 1.0
C      1  0.5042870000000  0.4717610000000  0.5546670000000 1.0
C      1  0.5059200000000  0.5257400000000  0.4441700000000 1.0
C      1  0.4934080000000  0.4727320000000  0.4449630000000 1.0
C      1  0.4653390000000  0.5365590000000  0.4724380000000 1.0
C      1  0.5343240000000  0.4626760000000  0.4730280000000 1.0
C      1  0.5381130000000  0.5394790000000  0.5226120000000 1.0
C      1  0.4621540000000  0.4611280000000  0.5241250000000 1.0
C      1  0.5520600000000  0.4939560000000  0.5239380000000 1.0
C      1  0.4482170000000  0.5066720000000  0.5243850000000 1.0
C      1  0.4496540000000  0.4872580000000  0.4833660000000 1.0
C      1  0.5501300000000  0.5122520000000  0.4824290000000 1.0
C      1  0.4996110000000  0.4991160000000  0.4357090000000 1.0
C      1  0.5003890000000  0.5008850000000  0.5663050000000 1.0
C      1  0.4339080000000  0.4984090000000  0.5027810000000 1.0
C      1  0.5661090000000  0.5016290000000  0.5019490000000 1.0
C      1  0.5012480000000  0.5583480000000  0.4972960000000 1.0
C      1  0.4987180000000  0.4415740000000  0.4988930000000 1.0
C      1  0.4998480000000  0.4996550000000  0.4755100000000 1.0
C      1  0.5001570000000  0.5003560000000  0.5272380000000 1.0
END
