TITL C-2782227-3064-399 0.000663549062173244 125000 -406.090827022613 0 0 71 (C1) n - 1
REM
REM in /home/nfs/bkarasulu/CARBON/AIRSS/Generating-Clusters/REBO/Higher-Symm/SD-CG/HFTN-CG
REM
REM
REM
REM
REM
REM ./C.cell (12c818d87b63d06a65506943cc24bca4)
REM
REM compiler GCC version 9.2.1 20190827 (Red Hat 9.2.1-1)
REM options -cpp -mtune=generic -march=x86-64 -g -O0 -fpre-include=/usr/include/finclude/math-vector-fortran.h
REM seed -798196606 -899130002 -1654199010 -357778584 -394223053 -2109781666 -1484886165 -1352084564 -1661077843 -428426025 1134987148 733955432 2140928707 481080022 1709335218 -1622490972 -1107609639 777493056 -1021891490 2002600313 -1236003255 1912724970 -1458687313 861530042 -545361559 1123700144 -345311999 -1362316031 319060136 -1552916815 1271459998 1858372612 1559093611
REM
CELL 1.54180   50.00000   50.00000   50.00000   90.00000   90.00000   90.00000
LATT -1
SFAC C  
C      1  0.4521130000000  0.5110890000000  0.5559850000000 1.0
C      1  0.5045260000000  0.5071550000000  0.5288650000000 1.0
C      1  0.4596190000000  0.4451120000000  0.5206810000000 1.0
C      1  0.5011980000000  0.4710880000000  0.5038190000000 1.0
C      1  0.5480860000000  0.5386700000000  0.4842190000000 1.0
C      1  0.5595300000000  0.4965900000000  0.4588740000000 1.0
C      1  0.4493410000000  0.4750060000000  0.5210590000000 1.0
C      1  0.5335300000000  0.4892320000000  0.5494750000000 1.0
C      1  0.4334520000000  0.5409860000000  0.5083530000000 1.0
C      1  0.4788550000000  0.4726870000000  0.4377840000000 1.0
C      1  0.4564700000000  0.4848550000000  0.5505740000000 1.0
C      1  0.4730190000000  0.4520320000000  0.4596010000000 1.0
C      1  0.5502400000000  0.5234650000000  0.4570380000000 1.0
C      1  0.4230650000000  0.4858180000000  0.5109800000000 1.0
C      1  0.4666460000000  0.5376040000000  0.5456470000000 1.0
C      1  0.5728580000000  0.4920940000000  0.5472840000000 1.0
C      1  0.5068780000000  0.5772320000000  0.4424570000000 1.0
C      1  0.4971980000000  0.5032130000000  0.4620210000000 1.0
C      1  0.4386440000000  0.5377800000000  0.4764110000000 1.0
C      1  0.4697390000000  0.5437250000000  0.4529200000000 1.0
C      1  0.4448260000000  0.4514070000000  0.4660020000000 1.0
C      1  0.5165650000000  0.5565170000000  0.5580250000000 1.0
C      1  0.4559550000000  0.4920970000000  0.4855250000000 1.0
C      1  0.4687650000000  0.5747740000000  0.5126870000000 1.0
C      1  0.4280890000000  0.5085640000000  0.4625260000000 1.0
C      1  0.5336770000000  0.4993380000000  0.5168180000000 1.0
C      1  0.4714980000000  0.5237050000000  0.5145850000000 1.0
C      1  0.5059880000000  0.4289270000000  0.5371610000000 1.0
C      1  0.5748720000000  0.4598700000000  0.4856920000000 1.0
C      1  0.5387100000000  0.4757330000000  0.4558750000000 1.0
C      1  0.4006250000000  0.4720820000000  0.5153300000000 1.0
C      1  0.5183310000000  0.4404460000000  0.4257080000000 1.0
C      1  0.4940530000000  0.5389920000000  0.5619680000000 1.0
C      1  0.4708940000000  0.5406840000000  0.4868580000000 1.0
C      1  0.5549400000000  0.4647540000000  0.5520020000000 1.0
C      1  0.5219500000000  0.5233070000000  0.4968690000000 1.0
C      1  0.4530240000000  0.5177590000000  0.4411750000000 1.0
C      1  0.4511070000000  0.5564070000000  0.5243030000000 1.0
C      1  0.5064640000000  0.5122740000000  0.4340920000000 1.0
C      1  0.5135960000000  0.4812570000000  0.4758910000000 1.0
C      1  0.5413810000000  0.5431040000000  0.5488730000000 1.0
C      1  0.5690390000000  0.5307340000000  0.5091220000000 1.0
C      1  0.5298390000000  0.5620380000000  0.5015720000000 1.0
C      1  0.4227220000000  0.5110070000000  0.4963320000000 1.0
C      1  0.5510510000000  0.5170420000000  0.5559540000000 1.0
C      1  0.5306820000000  0.4408530000000  0.4744980000000 1.0
C      1  0.4761490000000  0.4416690000000  0.5467490000000 1.0
C      1  0.5501340000000  0.5511490000000  0.5220390000000 1.0
C      1  0.5397940000000  0.4433770000000  0.4458680000000 1.0
C      1  0.5537950000000  0.4415450000000  0.4917100000000 1.0
C      1  0.5024680000000  0.5114800000000  0.5604780000000 1.0
C      1  0.5378480000000  0.4408550000000  0.5391000000000 1.0
C      1  0.5646760000000  0.5049230000000  0.5204090000000 1.0
C      1  0.5100680000000  0.5799760000000  0.5428260000000 1.0
C      1  0.5125370000000  0.5531360000000  0.4533960000000 1.0
C      1  0.5004760000000  0.5705410000000  0.5142690000000 1.0
C      1  0.5803040000000  0.4844230000000  0.4741710000000 1.0
C      1  0.5120040000000  0.4613090000000  0.5309690000000 1.0
C      1  0.5042070000000  0.4794880000000  0.5577110000000 1.0
C      1  0.5009570000000  0.5387800000000  0.5165520000000 1.0
C      1  0.5280680000000  0.5318570000000  0.4397100000000 1.0
C      1  0.5075000000000  0.4662810000000  0.4452800000000 1.0
C      1  0.4706330000000  0.5062480000000  0.4667160000000 1.0
C      1  0.4767250000000  0.4670020000000  0.5601200000000 1.0
C      1  0.5538110000000  0.4282980000000  0.5164680000000 1.0
C      1  0.5014340000000  0.5419190000000  0.4770510000000 1.0
C      1  0.4778260000000  0.4911720000000  0.5167040000000 1.0
C      1  0.4868980000000  0.4341840000000  0.5094330000000 1.0
C      1  0.4976340000000  0.4453020000000  0.4813680000000 1.0
C      1  0.4334350000000  0.4765570000000  0.4735250000000 1.0
C      1  0.4769730000000  0.4994220000000  0.4278860000000 1.0
END
