TITL C-2782232-2968-960 1.2223096913334e-07 125000 -106.699959784569 0 0 18 (D3h) n - 1
REM
REM in /home/nfs/bkarasulu/CARBON/AIRSS/Generating-Clusters/REBO/Higher-Symm/SD-CG/HFTN-CG
REM
REM
REM
REM
REM
REM ./C.cell (12c818d87b63d06a65506943cc24bca4)
REM
REM compiler GCC version 9.2.1 20190827 (Red Hat 9.2.1-1)
REM options -cpp -mtune=generic -march=x86-64 -g -O0 -fpre-include=/usr/include/finclude/math-vector-fortran.h
REM seed 338398883 -250274299 245126353 967778874 1246354253 2038668166 746033684 -1237886048 1791252455 -866890030 1833732980 -1055838199 -1362296632 726357579 97177929 -1124605302 -910636056 620965509 1808810051 -225203913 -892474767 1239435801 -2096505703 1487264182 -575335434 1706418027 -2137580620 821041644 -1357896937 -507663587 -500578590 1959885479 -590766515
REM
CELL 1.54180   50.00000   50.00000   50.00000   90.00000   90.00000   90.00000
LATT -1
SFAC C  
C      1  0.4996660000000  0.5252480000000  0.5716250000000 1.0
C      1  0.5007110000000  0.4253490000000  0.4860540000000 1.0
C      1  0.4996230000000  0.5494030000000  0.4423200000000 1.0
C      1  0.4998640000000  0.5254310000000  0.4284390000000 1.0
C      1  0.5006730000000  0.4253140000000  0.5137570000000 1.0
C      1  0.4994630000000  0.5492560000000  0.5578040000000 1.0
C      1  0.4999040000000  0.5017700000000  0.5570230000000 1.0
C      1  0.5005030000000  0.4497340000000  0.4730220000000 1.0
C      1  0.4995930000000  0.5484960000000  0.4699550000000 1.0
C      1  0.5000620000000  0.5019160000000  0.4429820000000 1.0
C      1  0.5004290000000  0.4496650000000  0.5268510000000 1.0
C      1  0.4995100000000  0.5484190000000  0.5301680000000 1.0
C      1  0.5000410000000  0.4998630000000  0.4714470000000 1.0
C      1  0.4997510000000  0.5247950000000  0.5141580000000 1.0
C      1  0.5002080000000  0.4753410000000  0.5143960000000 1.0
C      1  0.4999620000000  0.4997900000000  0.5285530000000 1.0
C      1  0.4997900000000  0.5248320000000  0.4859050000000 1.0
C      1  0.5002480000000  0.4753780000000  0.4855420000000 1.0
END
