TITL C-2782226-7400-1234 -0.0028448101913284 125000 -975.445973276214 0 0 172 (C1) n - 1
REM
REM in /home/nfs/bkarasulu/CARBON/AIRSS/Generating-Clusters/REBO/Higher-Symm/SD-CG/HFTN-CG
REM
REM
REM
REM
REM
REM ./C.cell (12c818d87b63d06a65506943cc24bca4)
REM
REM compiler GCC version 9.2.1 20190827 (Red Hat 9.2.1-1)
REM options -cpp -mtune=generic -march=x86-64 -g -O0 -fpre-include=/usr/include/finclude/math-vector-fortran.h
REM seed 1946328088 -559410849 -1930702510 -785951106 850567477 -2018745875 -79509465 -726781048 496971015 792190428 1625939261 316892334 -1711982659 1806193593 926991105 403625370 920537864 2132455545 2135527367 1759461238 623986805 -1343836029 -491468312 -782121830 -1758167992 -920480491 -791666474 1122178162 -553502740 452076024 -160839926 1034073355 438014811
REM
CELL 1.54180   50.00000   50.00000   50.00000   90.00000   90.00000   90.00000
LATT -1
SFAC C  
C      1  0.4729330000000  0.5829690000000  0.4913370000000 1.0
C      1  0.5257350000000  0.5814430000000  0.4895420000000 1.0
C      1  0.5442070000000  0.4814140000000  0.5553780000000 1.0
C      1  0.4619310000000  0.4818940000000  0.5528730000000 1.0
C      1  0.4584020000000  0.5550500000000  0.5908410000000 1.0
C      1  0.5325630000000  0.5521890000000  0.5877190000000 1.0
C      1  0.5161390000000  0.4807930000000  0.3987910000000 1.0
C      1  0.4828710000000  0.4883420000000  0.3974770000000 1.0
C      1  0.4553630000000  0.5084510000000  0.3935560000000 1.0
C      1  0.5407150000000  0.5038690000000  0.3916860000000 1.0
C      1  0.4056020000000  0.5533580000000  0.4864990000000 1.0
C      1  0.5946540000000  0.5561960000000  0.4845140000000 1.0
C      1  0.5384800000000  0.5019890000000  0.5991870000000 1.0
C      1  0.4543770000000  0.5056460000000  0.5997970000000 1.0
C      1  0.4853010000000  0.4295130000000  0.5436850000000 1.0
C      1  0.5191640000000  0.4261220000000  0.5428310000000 1.0
C      1  0.5249840000000  0.4531530000000  0.5141520000000 1.0
C      1  0.4923390000000  0.4582330000000  0.5171870000000 1.0
C      1  0.4831520000000  0.5092800000000  0.5725210000000 1.0
C      1  0.5132270000000  0.5022630000000  0.5686190000000 1.0
C      1  0.5558560000000  0.5649280000000  0.5655590000000 1.0
C      1  0.4409760000000  0.5725990000000  0.5672350000000 1.0
C      1  0.4283700000000  0.5534800000000  0.5073430000000 1.0
C      1  0.5704390000000  0.5535130000000  0.5049800000000 1.0
C      1  0.4100640000000  0.4943990000000  0.4440810000000 1.0
C      1  0.5928030000000  0.4905170000000  0.4462470000000 1.0
C      1  0.5166960000000  0.4729890000000  0.5830210000000 1.0
C      1  0.4861330000000  0.4776020000000  0.5843730000000 1.0
C      1  0.5828750000000  0.4308960000000  0.4664820000000 1.0
C      1  0.4202410000000  0.4323090000000  0.4644150000000 1.0
C      1  0.5296970000000  0.3982340000000  0.5155880000000 1.0
C      1  0.4708030000000  0.4085980000000  0.5128680000000 1.0
C      1  0.5127250000000  0.4278920000000  0.4749990000000 1.0
C      1  0.4874390000000  0.4426630000000  0.4783230000000 1.0
C      1  0.4358810000000  0.4281940000000  0.4893080000000 1.0
C      1  0.5641880000000  0.4266620000000  0.4900030000000 1.0
C      1  0.3940740000000  0.5252630000000  0.4808800000000 1.0
C      1  0.6089760000000  0.5284730000000  0.4833210000000 1.0
C      1  0.4598530000000  0.4286120000000  0.4670070000000 1.0
C      1  0.5441760000000  0.4226730000000  0.4628560000000 1.0
C      1  0.4531060000000  0.4420190000000  0.5365890000000 1.0
C      1  0.5511920000000  0.4383510000000  0.5376950000000 1.0
C      1  0.4389860000000  0.4519170000000  0.5654180000000 1.0
C      1  0.5642700000000  0.4490720000000  0.5672630000000 1.0
C      1  0.4541080000000  0.5245570000000  0.4725620000000 1.0
C      1  0.5487460000000  0.5237060000000  0.4696050000000 1.0
C      1  0.4367470000000  0.4982660000000  0.4642230000000 1.0
C      1  0.5655690000000  0.4972660000000  0.4643780000000 1.0
C      1  0.4263510000000  0.4443540000000  0.5148250000000 1.0
C      1  0.5749730000000  0.4427390000000  0.5136200000000 1.0
C      1  0.4683090000000  0.4446000000000  0.4403480000000 1.0
C      1  0.5320730000000  0.4447100000000  0.4433110000000 1.0
C      1  0.4572690000000  0.5385770000000  0.4443200000000 1.0
C      1  0.5475970000000  0.5349110000000  0.4408180000000 1.0
C      1  0.4540090000000  0.4711570000000  0.4665440000000 1.0
C      1  0.5474660000000  0.4715240000000  0.4681200000000 1.0
C      1  0.4132780000000  0.5139540000000  0.5580460000000 1.0
C      1  0.5948400000000  0.5078830000000  0.5587290000000 1.0
C      1  0.5688160000000  0.5825730000000  0.5176210000000 1.0
C      1  0.4282820000000  0.5828120000000  0.5196690000000 1.0
C      1  0.5565760000000  0.5016440000000  0.5328260000000 1.0
C      1  0.4454350000000  0.5022720000000  0.5362430000000 1.0
C      1  0.4561070000000  0.4225110000000  0.5698680000000 1.0
C      1  0.5473500000000  0.4189610000000  0.5702070000000 1.0
C      1  0.5136830000000  0.6008230000000  0.5114310000000 1.0
C      1  0.4853360000000  0.6043740000000  0.5096100000000 1.0
C      1  0.5759500000000  0.4721680000000  0.4241980000000 1.0
C      1  0.4238070000000  0.4711320000000  0.4254070000000 1.0
C      1  0.5281390000000  0.4987590000000  0.4462100000000 1.0
C      1  0.4719890000000  0.5004980000000  0.4462720000000 1.0
C      1  0.4682390000000  0.6027200000000  0.5353250000000 1.0
C      1  0.5236600000000  0.5928000000000  0.5383570000000 1.0
C      1  0.4789240000000  0.5227430000000  0.5436810000000 1.0
C      1  0.5213900000000  0.5178220000000  0.5426750000000 1.0
C      1  0.4860850000000  0.5790710000000  0.4632740000000 1.0
C      1  0.5116970000000  0.5781280000000  0.4618650000000 1.0
C      1  0.4392670000000  0.5043270000000  0.5035570000000 1.0
C      1  0.5645970000000  0.5087340000000  0.5026770000000 1.0
C      1  0.4312210000000  0.4742460000000  0.5284770000000 1.0
C      1  0.5704570000000  0.4715670000000  0.5271040000000 1.0
C      1  0.4073290000000  0.5397620000000  0.5438300000000 1.0
C      1  0.5916210000000  0.5377260000000  0.5422680000000 1.0
C      1  0.4091930000000  0.5018800000000  0.4929850000000 1.0
C      1  0.5937660000000  0.5091800000000  0.4965490000000 1.0
C      1  0.4791650000000  0.5290710000000  0.5974730000000 1.0
C      1  0.5130290000000  0.5247790000000  0.5941200000000 1.0
C      1  0.5559150000000  0.5522990000000  0.4757750000000 1.0
C      1  0.4449370000000  0.5527850000000  0.4793650000000 1.0
C      1  0.5147460000000  0.5428940000000  0.4389630000000 1.0
C      1  0.4875650000000  0.5496090000000  0.4366020000000 1.0
C      1  0.5326820000000  0.5844510000000  0.5641780000000 1.0
C      1  0.4586620000000  0.5984400000000  0.5623280000000 1.0
C      1  0.5166640000000  0.4207250000000  0.4292640000000 1.0
C      1  0.4857120000000  0.4252730000000  0.4212940000000 1.0
C      1  0.4841640000000  0.5134400000000  0.5113550000000 1.0
C      1  0.5150680000000  0.5138830000000  0.5110820000000 1.0
C      1  0.4533430000000  0.4762490000000  0.5843780000000 1.0
C      1  0.5488750000000  0.4713580000000  0.5880530000000 1.0
C      1  0.5516260000000  0.4796020000000  0.4998660000000 1.0
C      1  0.4501020000000  0.4723300000000  0.4994010000000 1.0
C      1  0.5382650000000  0.3987830000000  0.5451940000000 1.0
C      1  0.4636940000000  0.4040870000000  0.5427150000000 1.0
C      1  0.5155640000000  0.4694630000000  0.4558050000000 1.0
C      1  0.4842660000000  0.4705420000000  0.4503030000000 1.0
C      1  0.5566980000000  0.5851720000000  0.4856260000000 1.0
C      1  0.4412840000000  0.5857960000000  0.4882250000000 1.0
C      1  0.5464590000000  0.4574770000000  0.4179510000000 1.0
C      1  0.4528610000000  0.4596010000000  0.4163120000000 1.0
C      1  0.4747000000000  0.5719010000000  0.5300390000000 1.0
C      1  0.5071610000000  0.5668200000000  0.5314520000000 1.0
C      1  0.3922610000000  0.4960190000000  0.5192990000000 1.0
C      1  0.6078130000000  0.4881060000000  0.5126480000000 1.0
C      1  0.4834320000000  0.5138090000000  0.4201170000000 1.0
C      1  0.5134840000000  0.5089200000000  0.4183680000000 1.0
C      1  0.4502370000000  0.4918920000000  0.4213900000000 1.0
C      1  0.5484650000000  0.4900850000000  0.4202910000000 1.0
C      1  0.4533240000000  0.5651950000000  0.4247470000000 1.0
C      1  0.5444500000000  0.5616960000000  0.4223580000000 1.0
C      1  0.4552220000000  0.5334590000000  0.5134000000000 1.0
C      1  0.5436730000000  0.5340920000000  0.5134060000000 1.0
C      1  0.5249350000000  0.4446000000000  0.5704250000000 1.0
C      1  0.4782390000000  0.4484270000000  0.5704530000000 1.0
C      1  0.4059380000000  0.5419460000000  0.4565600000000 1.0
C      1  0.5976490000000  0.5411630000000  0.4562390000000 1.0
C      1  0.5500230000000  0.3961330000000  0.4480890000000 1.0
C      1  0.4696570000000  0.3998730000000  0.4649210000000 1.0
C      1  0.4815600000000  0.3936410000000  0.4906870000000 1.0
C      1  0.5126980000000  0.3957590000000  0.4862200000000 1.0
C      1  0.4648460000000  0.4415160000000  0.5045340000000 1.0
C      1  0.5334190000000  0.4266060000000  0.5008850000000 1.0
C      1  0.5167210000000  0.5539180000000  0.5045640000000 1.0
C      1  0.4822120000000  0.5532230000000  0.5036250000000 1.0
C      1  0.4234810000000  0.5647030000000  0.5454210000000 1.0
C      1  0.5749860000000  0.5617010000000  0.5437870000000 1.0
C      1  0.5720210000000  0.4572810000000  0.4525110000000 1.0
C      1  0.4241390000000  0.4591150000000  0.4555940000000 1.0
C      1  0.5074090000000  0.5704770000000  0.5788350000000 1.0
C      1  0.4778830000000  0.5785900000000  0.5805690000000 1.0
C      1  0.5135090000000  0.5625620000000  0.4092360000000 1.0
C      1  0.4827120000000  0.5676780000000  0.4077500000000 1.0
C      1  0.4867950000000  0.3980420000000  0.4416400000000 1.0
C      1  0.5170740000000  0.3953530000000  0.4523050000000 1.0
C      1  0.5833040000000  0.4757020000000  0.5578100000000 1.0
C      1  0.4218720000000  0.4809960000000  0.5604390000000 1.0
C      1  0.4267570000000  0.5240250000000  0.4436130000000 1.0
C      1  0.5788120000000  0.5215420000000  0.4435370000000 1.0
C      1  0.5502640000000  0.5275940000000  0.5799210000000 1.0
C      1  0.4437140000000  0.5301090000000  0.5780710000000 1.0
C      1  0.5439570000000  0.5747060000000  0.4540570000000 1.0
C      1  0.4537310000000  0.5767610000000  0.4568330000000 1.0
C      1  0.5666020000000  0.5022490000000  0.5712830000000 1.0
C      1  0.4242690000000  0.5031410000000  0.5863370000000 1.0
C      1  0.4650760000000  0.5387080000000  0.4055250000000 1.0
C      1  0.5318390000000  0.5342800000000  0.4043770000000 1.0
C      1  0.4833010000000  0.4550910000000  0.4047050000000 1.0
C      1  0.5157770000000  0.4475940000000  0.4072850000000 1.0
C      1  0.5254840000000  0.5056720000000  0.4796490000000 1.0
C      1  0.4756470000000  0.5017420000000  0.4804140000000 1.0
C      1  0.6115450000000  0.5120620000000  0.5320080000000 1.0
C      1  0.3853730000000  0.5205760000000  0.5307730000000 1.0
C      1  0.5510740000000  0.5298850000000  0.5469390000000 1.0
C      1  0.4476710000000  0.5311830000000  0.5474540000000 1.0
C      1  0.5969360000000  0.4678890000000  0.4716740000000 1.0
C      1  0.4042310000000  0.4770790000000  0.4730690000000 1.0
C      1  0.5208750000000  0.4657920000000  0.5439880000000 1.0
C      1  0.4888180000000  0.4692010000000  0.5455220000000 1.0
C      1  0.4884270000000  0.4748890000000  0.4894140000000 1.0
C      1  0.5187390000000  0.4779680000000  0.4947380000000 1.0
C      1  0.4020500000000  0.4664200000000  0.5053290000000 1.0
C      1  0.5987180000000  0.4633900000000  0.5002110000000 1.0
C      1  0.4786100000000  0.5545310000000  0.5563490000000 1.0
C      1  0.5108410000000  0.5453570000000  0.5550050000000 1.0
END
