TITL C-2782234-8014-649 -0.000756461723988173 125000 -755.730537367584 0 0 130 (C1) n - 1
REM
REM in /home/nfs/bkarasulu/CARBON/AIRSS/Generating-Clusters/REBO/Higher-Symm/SD-CG/HFTN-CG
REM
REM
REM
REM
REM
REM ./C.cell (12c818d87b63d06a65506943cc24bca4)
REM
REM compiler GCC version 9.2.1 20190827 (Red Hat 9.2.1-1)
REM options -cpp -mtune=generic -march=x86-64 -g -O0 -fpre-include=/usr/include/finclude/math-vector-fortran.h
REM seed 1995696355 -1340406158 -1518039257 1277171760 1733061483 1089032429 -55249074 853133565 -1610208355 1412031149 -1864546001 -2147273197 -1280784486 -1295587 -1032879705 768231375 -883476742 -161040149 -1279024774 806463509 378269686 -1542944914 1430965894 597607190 -620829780 1081348234 -175573249 855040957 1111164537 -1293542964 24281231 1125533192 -1323735433
REM
CELL 1.54180   50.00000   50.00000   50.00000   90.00000   90.00000   90.00000
LATT -1
SFAC C  
C      1  0.4848420000000  0.4816650000000  0.4830360000000 1.0
C      1  0.5136060000000  0.4759970000000  0.4737260000000 1.0
C      1  0.5309470000000  0.4816750000000  0.4985370000000 1.0
C      1  0.5133440000000  0.4850020000000  0.5239080000000 1.0
C      1  0.4833220000000  0.4870170000000  0.5142270000000 1.0
C      1  0.4821130000000  0.5134470000000  0.4843190000000 1.0
C      1  0.5128230000000  0.5091270000000  0.4758700000000 1.0
C      1  0.5286680000000  0.5148260000000  0.5023480000000 1.0
C      1  0.5076690000000  0.5167330000000  0.5250350000000 1.0
C      1  0.4800070000000  0.5193420000000  0.5140020000000 1.0
C      1  0.4249900000000  0.5732400000000  0.4937350000000 1.0
C      1  0.4858450000000  0.5707760000000  0.4282850000000 1.0
C      1  0.5634920000000  0.5665320000000  0.4633700000000 1.0
C      1  0.5461160000000  0.5651180000000  0.5491930000000 1.0
C      1  0.4638190000000  0.5669360000000  0.5667190000000 1.0
C      1  0.4310510000000  0.4343550000000  0.4925710000000 1.0
C      1  0.4855910000000  0.4323430000000  0.4286050000000 1.0
C      1  0.5650350000000  0.4285300000000  0.4686140000000 1.0
C      1  0.5539190000000  0.4316920000000  0.5504090000000 1.0
C      1  0.4714400000000  0.4318170000000  0.5636080000000 1.0
C      1  0.4080490000000  0.5182020000000  0.4866780000000 1.0
C      1  0.4810680000000  0.5187310000000  0.4072290000000 1.0
C      1  0.5871640000000  0.5124770000000  0.4543320000000 1.0
C      1  0.5692150000000  0.5152590000000  0.5647250000000 1.0
C      1  0.4520410000000  0.5103700000000  0.5876470000000 1.0
C      1  0.4094190000000  0.4878740000000  0.4846980000000 1.0
C      1  0.4826890000000  0.4886470000000  0.4022540000000 1.0
C      1  0.5816520000000  0.4823170000000  0.4508850000000 1.0
C      1  0.5721820000000  0.4851060000000  0.5681210000000 1.0
C      1  0.4559430000000  0.4797590000000  0.5900210000000 1.0
C      1  0.5632790000000  0.4774000000000  0.4304100000000 1.0
C      1  0.5858430000000  0.4724280000000  0.5452150000000 1.0
C      1  0.4829540000000  0.4696380000000  0.5959070000000 1.0
C      1  0.4085130000000  0.4756570000000  0.5120790000000 1.0
C      1  0.4571080000000  0.4728280000000  0.4101140000000 1.0
C      1  0.5667940000000  0.5245000000000  0.4355870000000 1.0
C      1  0.5829950000000  0.5252610000000  0.5402680000000 1.0
C      1  0.4778770000000  0.5250620000000  0.5924350000000 1.0
C      1  0.4083070000000  0.5293200000000  0.5140150000000 1.0
C      1  0.4545770000000  0.5335260000000  0.4120750000000 1.0
C      1  0.4886230000000  0.4229530000000  0.5425140000000 1.0
C      1  0.4557550000000  0.4246000000000  0.5033710000000 1.0
C      1  0.4864490000000  0.4214780000000  0.4550770000000 1.0
C      1  0.5405630000000  0.4154730000000  0.4787430000000 1.0
C      1  0.5383690000000  0.4210080000000  0.5288570000000 1.0
C      1  0.4787320000000  0.5757430000000  0.5441300000000 1.0
C      1  0.4495150000000  0.5851070000000  0.5031120000000 1.0
C      1  0.4854570000000  0.5802760000000  0.4552940000000 1.0
C      1  0.5383810000000  0.5766460000000  0.4727800000000 1.0
C      1  0.5301920000000  0.5787840000000  0.5300500000000 1.0
C      1  0.5366190000000  0.5446860000000  0.4192600000000 1.0
C      1  0.5920780000000  0.5452240000000  0.5070670000000 1.0
C      1  0.5112490000000  0.5466700000000  0.5897730000000 1.0
C      1  0.4135720000000  0.5502280000000  0.5472620000000 1.0
C      1  0.4341940000000  0.5522510000000  0.4406220000000 1.0
C      1  0.5381240000000  0.4498090000000  0.4163370000000 1.0
C      1  0.5924140000000  0.4502230000000  0.5129550000000 1.0
C      1  0.5172230000000  0.4506290000000  0.5892810000000 1.0
C      1  0.4229680000000  0.4551010000000  0.5428670000000 1.0
C      1  0.4364760000000  0.4552840000000  0.4394100000000 1.0
C      1  0.5453270000000  0.5122950000000  0.4115660000000 1.0
C      1  0.6063330000000  0.5159560000000  0.5172590000000 1.0
C      1  0.5094170000000  0.5144850000000  0.6015100000000 1.0
C      1  0.4013410000000  0.5184650000000  0.5456450000000 1.0
C      1  0.4275510000000  0.5208870000000  0.4285110000000 1.0
C      1  0.5470950000000  0.4795400000000  0.4024360000000 1.0
C      1  0.6046790000000  0.4819400000000  0.5181140000000 1.0
C      1  0.5139460000000  0.4809320000000  0.6049310000000 1.0
C      1  0.4082110000000  0.4860630000000  0.5447240000000 1.0
C      1  0.4317580000000  0.4873630000000  0.4281940000000 1.0
C      1  0.5105890000000  0.4402290000000  0.4163940000000 1.0
C      1  0.5841850000000  0.4363220000000  0.4890330000000 1.0
C      1  0.5387230000000  0.4408090000000  0.5732960000000 1.0
C      1  0.4452700000000  0.4425540000000  0.5561770000000 1.0
C      1  0.4305770000000  0.4438940000000  0.4651140000000 1.0
C      1  0.5117550000000  0.5601190000000  0.4189680000000 1.0
C      1  0.5839130000000  0.5570690000000  0.4818640000000 1.0
C      1  0.5328900000000  0.5575870000000  0.5738130000000 1.0
C      1  0.4363450000000  0.5597050000000  0.5620680000000 1.0
C      1  0.4260470000000  0.5631900000000  0.4660670000000 1.0
C      1  0.5541210000000  0.4411270000000  0.4435270000000 1.0
C      1  0.5788840000000  0.4417510000000  0.5408830000000 1.0
C      1  0.4872980000000  0.4400570000000  0.5858740000000 1.0
C      1  0.4150810000000  0.4451400000000  0.5134210000000 1.0
C      1  0.4603710000000  0.4435800000000  0.4226850000000 1.0
C      1  0.5607930000000  0.5552050000000  0.4374930000000 1.0
C      1  0.5672790000000  0.5508820000000  0.5298780000000 1.0
C      1  0.4807010000000  0.5560750000000  0.5867750000000 1.0
C      1  0.4106560000000  0.5609820000000  0.5154250000000 1.0
C      1  0.4588600000000  0.5629530000000  0.4215810000000 1.0
C      1  0.4772070000000  0.4476050000000  0.5135550000000 1.0
C      1  0.4824250000000  0.4420730000000  0.4803360000000 1.0
C      1  0.5146520000000  0.4364240000000  0.4786140000000 1.0
C      1  0.5300160000000  0.4424180000000  0.5061020000000 1.0
C      1  0.5072890000000  0.4459660000000  0.5288990000000 1.0
C      1  0.4721210000000  0.5644210000000  0.5065830000000 1.0
C      1  0.4794420000000  0.5574960000000  0.4776070000000 1.0
C      1  0.5117180000000  0.5571110000000  0.4740010000000 1.0
C      1  0.5219620000000  0.5593830000000  0.5045230000000 1.0
C      1  0.4980790000000  0.5554450000000  0.5276470000000 1.0
C      1  0.5075700000000  0.4929250000000  0.4214740000000 1.0
C      1  0.5754050000000  0.4739490000000  0.4793650000000 1.0
C      1  0.5414540000000  0.4870550000000  0.5651650000000 1.0
C      1  0.4508770000000  0.4819590000000  0.5599000000000 1.0
C      1  0.4359680000000  0.4832590000000  0.4696740000000 1.0
C      1  0.5019680000000  0.5227420000000  0.4286850000000 1.0
C      1  0.5806610000000  0.5041610000000  0.4841850000000 1.0
C      1  0.5379900000000  0.5191510000000  0.5641220000000 1.0
C      1  0.4401090000000  0.5113310000000  0.5585970000000 1.0
C      1  0.4350860000000  0.5153940000000  0.4721110000000 1.0
C      1  0.5026280000000  0.4842390000000  0.5732690000000 1.0
C      1  0.4350050000000  0.4907900000000  0.5247020000000 1.0
C      1  0.4636300000000  0.4843840000000  0.4409360000000 1.0
C      1  0.5310060000000  0.4821330000000  0.4385260000000 1.0
C      1  0.5713480000000  0.4838430000000  0.5177090000000 1.0
C      1  0.4986330000000  0.5147480000000  0.5694510000000 1.0
C      1  0.4371120000000  0.5232610000000  0.5295300000000 1.0
C      1  0.4589370000000  0.5152230000000  0.4403190000000 1.0
C      1  0.5373480000000  0.5133780000000  0.4445630000000 1.0
C      1  0.5671940000000  0.5148070000000  0.5118080000000 1.0
C      1  0.5179580000000  0.4701960000000  0.5502410000000 1.0
C      1  0.4606070000000  0.4724000000000  0.5295570000000 1.0
C      1  0.4635790000000  0.4672840000000  0.4672050000000 1.0
C      1  0.5257920000000  0.4548140000000  0.4539840000000 1.0
C      1  0.5549390000000  0.4628790000000  0.5005960000000 1.0
C      1  0.5126340000000  0.5334250000000  0.5493170000000 1.0
C      1  0.4603990000000  0.5390230000000  0.5210350000000 1.0
C      1  0.4639390000000  0.5304490000000  0.4674430000000 1.0
C      1  0.5153460000000  0.5327290000000  0.4556250000000 1.0
C      1  0.5467090000000  0.5398670000000  0.5062410000000 1.0
END
