TITL C-2782239-8622-218 -0.000790726553936552 125000 -176.352925916439 0 0 33 (C1) n - 1
REM
REM in /home/nfs/bkarasulu/CARBON/AIRSS/Generating-Clusters/REBO/Higher-Symm/SD-CG/HFTN-CG
REM
REM
REM
REM
REM
REM ./C.cell (12c818d87b63d06a65506943cc24bca4)
REM
REM compiler GCC version 9.2.1 20190827 (Red Hat 9.2.1-1)
REM options -cpp -mtune=generic -march=x86-64 -g -O0 -fpre-include=/usr/include/finclude/math-vector-fortran.h
REM seed -268056950 -665784837 -1810503248 17973276 -305615809 1451353773 -1285667193 468120035 -219921052 -443754362 -672631999 -885804436 -570937835 -143131557 1888835968 2128689420 633892957 1067930416 -1948466844 -1592524252 977430321 2123076045 -409241859 -1348719468 1482185898 -420447484 -601240343 1015466298 2112257794 1813120586 272332548 706450705 -1174635735
REM
CELL 1.54180   50.00000   50.00000   50.00000   90.00000   90.00000   90.00000
LATT -1
SFAC C  
C      1  0.4613180000000  0.5002800000000  0.5018280000000 1.0
C      1  0.5366490000000  0.5089560000000  0.5274290000000 1.0
C      1  0.5159160000000  0.5142440000000  0.4452200000000 1.0
C      1  0.4947910000000  0.5301890000000  0.4634250000000 1.0
C      1  0.4817500000000  0.5160050000000  0.5185090000000 1.0
C      1  0.5251960000000  0.5223380000000  0.5009990000000 1.0
C      1  0.4292720000000  0.4947580000000  0.4962330000000 1.0
C      1  0.5239690000000  0.4993300000000  0.5562930000000 1.0
C      1  0.5429510000000  0.4960670000000  0.4506370000000 1.0
C      1  0.5493890000000  0.5369240000000  0.4727520000000 1.0
C      1  0.4493460000000  0.5380410000000  0.4818540000000 1.0
C      1  0.4997370000000  0.5361320000000  0.5479850000000 1.0
C      1  0.4428980000000  0.4655510000000  0.4951490000000 1.0
C      1  0.5195780000000  0.4674200000000  0.5522100000000 1.0
C      1  0.5311320000000  0.4692310000000  0.4649450000000 1.0
C      1  0.5630090000000  0.5097000000000  0.4744790000000 1.0
C      1  0.4398660000000  0.5124350000000  0.4706070000000 1.0
C      1  0.4933560000000  0.5112740000000  0.5648050000000 1.0
C      1  0.4532390000000  0.4810900000000  0.4678140000000 1.0
C      1  0.4901010000000  0.4785330000000  0.5568720000000 1.0
C      1  0.5519810000000  0.4799680000000  0.4858820000000 1.0
C      1  0.5039460000000  0.5019730000000  0.5277240000000 1.0
C      1  0.5235990000000  0.5068030000000  0.4776250000000 1.0
C      1  0.4789910000000  0.5115500000000  0.4788720000000 1.0
C      1  0.4666490000000  0.5397580000000  0.5043120000000 1.0
C      1  0.5127630000000  0.5406920000000  0.5234620000000 1.0
C      1  0.5227530000000  0.5456990000000  0.4686690000000 1.0
C      1  0.5041210000000  0.4641920000000  0.4608750000000 1.0
C      1  0.4560420000000  0.4582900000000  0.5191720000000 1.0
C      1  0.5370150000000  0.4572830000000  0.5326700000000 1.0
C      1  0.4782950000000  0.4719140000000  0.4585950000000 1.0
C      1  0.4698920000000  0.4663670000000  0.5411180000000 1.0
C      1  0.5504880000000  0.4670120000000  0.5109800000000 1.0
END
