TITL C-2782228-2999-1155 -0.00032096518410592 125000 -512.820394856574 0 0 87 (C1) n - 1
REM
REM in /home/nfs/bkarasulu/CARBON/AIRSS/Generating-Clusters/REBO/Higher-Symm/SD-CG/HFTN-CG
REM
REM
REM
REM
REM
REM ./C.cell (12c818d87b63d06a65506943cc24bca4)
REM
REM compiler GCC version 9.2.1 20190827 (Red Hat 9.2.1-1)
REM options -cpp -mtune=generic -march=x86-64 -g -O0 -fpre-include=/usr/include/finclude/math-vector-fortran.h
REM seed -292114165 -1243011598 1101757308 -1900459301 927062040 -750101995 -318003244 -202723932 830998785 -1825030021 1499902165 1171448175 2146738184 -1514766643 1102040420 187382114 -1481507509 1238390748 503252023 -1801534194 -194400341 1897142061 -2034629235 1654928827 1408177444 -72652929 -240344375 1693263242 518128625 -1749833375 684856455 1975322282 -884444452
REM
CELL 1.54180   50.00000   50.00000   50.00000   90.00000   90.00000   90.00000
LATT -1
SFAC C  
C      1  0.5858150000000  0.5036040000000  0.5037890000000 1.0
C      1  0.5409290000000  0.4290770000000  0.5074330000000 1.0
C      1  0.4675680000000  0.4197000000000  0.5090620000000 1.0
C      1  0.4232640000000  0.4636770000000  0.4961380000000 1.0
C      1  0.4328550000000  0.5464420000000  0.5065540000000 1.0
C      1  0.5000230000000  0.5832950000000  0.5027680000000 1.0
C      1  0.5575300000000  0.5639080000000  0.4879910000000 1.0
C      1  0.5537690000000  0.4771490000000  0.4509930000000 1.0
C      1  0.5138890000000  0.4423240000000  0.4479930000000 1.0
C      1  0.4637330000000  0.4540600000000  0.4415650000000 1.0
C      1  0.4420540000000  0.5040660000000  0.4508490000000 1.0
C      1  0.4667860000000  0.5543500000000  0.4469370000000 1.0
C      1  0.5166860000000  0.5640210000000  0.4312650000000 1.0
C      1  0.5568650000000  0.5282910000000  0.4373100000000 1.0
C      1  0.4700890000000  0.5863050000000  0.5408230000000 1.0
C      1  0.5237370000000  0.5744230000000  0.5211240000000 1.0
C      1  0.5773670000000  0.5127160000000  0.5354150000000 1.0
C      1  0.5577740000000  0.4407530000000  0.5519590000000 1.0
C      1  0.4892540000000  0.3741170000000  0.5316280000000 1.0
C      1  0.4476050000000  0.4354420000000  0.5263160000000 1.0
C      1  0.4282530000000  0.5252750000000  0.5502620000000 1.0
C      1  0.4817220000000  0.5988810000000  0.5224560000000 1.0
C      1  0.5495780000000  0.5766170000000  0.5120520000000 1.0
C      1  0.6076250000000  0.5165700000000  0.5264580000000 1.0
C      1  0.5349210000000  0.4309900000000  0.5356150000000 1.0
C      1  0.4792420000000  0.3951620000000  0.5212100000000 1.0
C      1  0.4229240000000  0.4424160000000  0.5152790000000 1.0
C      1  0.4358840000000  0.5482000000000  0.5351010000000 1.0
C      1  0.5151230000000  0.4667530000000  0.5706110000000 1.0
C      1  0.4842250000000  0.4577710000000  0.5648610000000 1.0
C      1  0.4613450000000  0.4830720000000  0.5651200000000 1.0
C      1  0.4842370000000  0.5054650000000  0.5571830000000 1.0
C      1  0.4897010000000  0.5372810000000  0.5557570000000 1.0
C      1  0.5218550000000  0.5253130000000  0.5579370000000 1.0
C      1  0.5328250000000  0.4952800000000  0.5681880000000 1.0
C      1  0.4651400000000  0.5561420000000  0.5434460000000 1.0
C      1  0.5156440000000  0.5522420000000  0.5388160000000 1.0
C      1  0.5497370000000  0.5117060000000  0.5436260000000 1.0
C      1  0.5410120000000  0.4685490000000  0.5488140000000 1.0
C      1  0.5085530000000  0.4459950000000  0.5439580000000 1.0
C      1  0.4605700000000  0.4581470000000  0.5418460000000 1.0
C      1  0.4455570000000  0.5044960000000  0.5476980000000 1.0
C      1  0.5650330000000  0.5095440000000  0.4803270000000 1.0
C      1  0.5453690000000  0.4572670000000  0.4964940000000 1.0
C      1  0.4920950000000  0.4405920000000  0.4922100000000 1.0
C      1  0.4524400000000  0.4661910000000  0.4883470000000 1.0
C      1  0.4438770000000  0.5202210000000  0.4963020000000 1.0
C      1  0.4833060000000  0.5583850000000  0.4934290000000 1.0
C      1  0.5339620000000  0.5537880000000  0.4739980000000 1.0
C      1  0.4690540000000  0.4761690000000  0.5163330000000 1.0
C      1  0.4609720000000  0.5058010000000  0.5206190000000 1.0
C      1  0.4756240000000  0.5364440000000  0.5183770000000 1.0
C      1  0.5060330000000  0.5268790000000  0.5208480000000 1.0
C      1  0.5318430000000  0.5050330000000  0.5190480000000 1.0
C      1  0.5292500000000  0.4726670000000  0.5197440000000 1.0
C      1  0.4978890000000  0.4610830000000  0.5172440000000 1.0
C      1  0.4757130000000  0.4849720000000  0.4780960000000 1.0
C      1  0.4724830000000  0.5119580000000  0.4828110000000 1.0
C      1  0.4930660000000  0.5304400000000  0.4829830000000 1.0
C      1  0.5206150000000  0.5283290000000  0.4779610000000 1.0
C      1  0.5365800000000  0.5043860000000  0.4793350000000 1.0
C      1  0.5260440000000  0.4779650000000  0.4802880000000 1.0
C      1  0.4992550000000  0.4694940000000  0.4782250000000 1.0
C      1  0.5310410000000  0.4871910000000  0.4365880000000 1.0
C      1  0.5089990000000  0.4684390000000  0.4364510000000 1.0
C      1  0.4814610000000  0.4746930000000  0.4338590000000 1.0
C      1  0.4709500000000  0.5040980000000  0.4393230000000 1.0
C      1  0.4805560000000  0.5335220000000  0.4328290000000 1.0
C      1  0.5088410000000  0.5363730000000  0.4281220000000 1.0
C      1  0.5308850000000  0.5164350000000  0.4313550000000 1.0
C      1  0.5884890000000  0.4776780000000  0.4856490000000 1.0
C      1  0.5303830000000  0.4129730000000  0.4864600000000 1.0
C      1  0.4609080000000  0.4198090000000  0.4784450000000 1.0
C      1  0.4101770000000  0.4857520000000  0.4841240000000 1.0
C      1  0.4363830000000  0.5664950000000  0.4865950000000 1.0
C      1  0.5090270000000  0.5937780000000  0.4742790000000 1.0
C      1  0.5801730000000  0.5537140000000  0.4738390000000 1.0
C      1  0.5102720000000  0.4267380000000  0.4715770000000 1.0
C      1  0.4575460000000  0.4442730000000  0.4670740000000 1.0
C      1  0.4278580000000  0.5059290000000  0.4741590000000 1.0
C      1  0.4613650000000  0.5649250000000  0.4728720000000 1.0
C      1  0.5207890000000  0.5737620000000  0.4575990000000 1.0
C      1  0.5734380000000  0.5288830000000  0.4608270000000 1.0
C      1  0.5653310000000  0.4677710000000  0.4749920000000 1.0
C      1  0.4993450000000  0.5048530000000  0.4529670000000 1.0
C      1  0.5027220000000  0.4986590000000  0.5051610000000 1.0
C      1  0.5025030000000  0.4918750000000  0.5423450000000 1.0
END
