TITL C-2782238-9940-926 -0.00202154970122347 125000 -295.355194274501 0 0 53 (C1) n - 1
REM
REM in /home/nfs/bkarasulu/CARBON/AIRSS/Generating-Clusters/REBO/Higher-Symm/SD-CG/HFTN-CG
REM
REM
REM
REM
REM
REM ./C.cell (12c818d87b63d06a65506943cc24bca4)
REM
REM compiler GCC version 9.2.1 20190827 (Red Hat 9.2.1-1)
REM options -cpp -mtune=generic -march=x86-64 -g -O0 -fpre-include=/usr/include/finclude/math-vector-fortran.h
REM seed -594886800 822834695 1458951268 288590662 -1724950085 -1715072096 916536752 -541114190 -817408876 -171271892 -1198879835 -1352776152 -1983241795 -632750560 1029264416 -822897299 1774034259 1906611348 846376617 842769252 -1490826012 -845090930 -142991140 6524024 1354107540 -1970691596 1496352333 -627726702 2059296619 -655990322 -795628365 -315207974 1480511239
REM
CELL 1.54180   50.00000   50.00000   50.00000   90.00000   90.00000   90.00000
LATT -1
SFAC C  
C      1  0.5136790000000  0.5666030000000  0.4611420000000 1.0
C      1  0.4867050000000  0.4389950000000  0.4634990000000 1.0
C      1  0.5166550000000  0.5610750000000  0.5345050000000 1.0
C      1  0.4860490000000  0.4375290000000  0.5382760000000 1.0
C      1  0.5140590000000  0.4388660000000  0.4631340000000 1.0
C      1  0.4864600000000  0.5652540000000  0.4622730000000 1.0
C      1  0.5133120000000  0.4389980000000  0.5376120000000 1.0
C      1  0.4898790000000  0.5613020000000  0.5367590000000 1.0
C      1  0.5394650000000  0.4585150000000  0.5472270000000 1.0
C      1  0.4645390000000  0.5419670000000  0.5461430000000 1.0
C      1  0.5367490000000  0.4619930000000  0.4545990000000 1.0
C      1  0.4636480000000  0.5420390000000  0.4552490000000 1.0
C      1  0.5431260000000  0.5416360000000  0.5420160000000 1.0
C      1  0.4627820000000  0.4600740000000  0.5466560000000 1.0
C      1  0.5359430000000  0.5437810000000  0.4518380000000 1.0
C      1  0.4615630000000  0.4596410000000  0.4546850000000 1.0
C      1  0.4407420000000  0.5094350000000  0.4832270000000 1.0
C      1  0.5623060000000  0.4850350000000  0.4910990000000 1.0
C      1  0.4355760000000  0.5135020000000  0.5126620000000 1.0
C      1  0.5565790000000  0.4806160000000  0.5208110000000 1.0
C      1  0.4375930000000  0.4777780000000  0.4792960000000 1.0
C      1  0.5558920000000  0.5175310000000  0.4900500000000 1.0
C      1  0.4319180000000  0.4808960000000  0.5093780000000 1.0
C      1  0.5493440000000  0.5108890000000  0.5183060000000 1.0
C      1  0.5306870000000  0.5207630000000  0.4720910000000 1.0
C      1  0.4707720000000  0.4850770000000  0.4742450000000 1.0
C      1  0.5209620000000  0.5174750000000  0.5339700000000 1.0
C      1  0.4600870000000  0.4846770000000  0.5249920000000 1.0
C      1  0.5343040000000  0.4878250000000  0.4748040000000 1.0
C      1  0.4703770000000  0.5180580000000  0.4746090000000 1.0
C      1  0.5235240000000  0.4836290000000  0.5314140000000 1.0
C      1  0.4634630000000  0.5178010000000  0.5263910000000 1.0
C      1  0.5414090000000  0.5150810000000  0.4341860000000 1.0
C      1  0.4546740000000  0.4886350000000  0.4380070000000 1.0
C      1  0.5524280000000  0.5130030000000  0.5580480000000 1.0
C      1  0.4625640000000  0.4891380000000  0.5645040000000 1.0
C      1  0.5411940000000  0.4900040000000  0.4356460000000 1.0
C      1  0.4553350000000  0.5137640000000  0.4380030000000 1.0
C      1  0.5512250000000  0.4880380000000  0.5597030000000 1.0
C      1  0.4628890000000  0.5142230000000  0.5660110000000 1.0
C      1  0.4661240000000  0.4475420000000  0.4869700000000 1.0
C      1  0.5355050000000  0.5585130000000  0.4835790000000 1.0
C      1  0.4661170000000  0.4466930000000  0.5144950000000 1.0
C      1  0.5375740000000  0.5556230000000  0.5108640000000 1.0
C      1  0.4678450000000  0.5559040000000  0.4868790000000 1.0
C      1  0.5328370000000  0.4498260000000  0.4870110000000 1.0
C      1  0.4682800000000  0.5553530000000  0.5141070000000 1.0
C      1  0.5332960000000  0.4489000000000  0.5143620000000 1.0
C      1  0.4926120000000  0.4743460000000  0.5247660000000 1.0
C      1  0.5014730000000  0.5105490000000  0.4738130000000 1.0
C      1  0.4926330000000  0.5079050000000  0.5245090000000 1.0
C      1  0.5026100000000  0.4765320000000  0.4688900000000 1.0
C      1  0.5018890000000  0.4906310000000  0.4986290000000 1.0
END
