TITL C-2782240-8521-194 0.000610570660187269 125000 -507.082954494038 0 0 90 (C1) n - 1
REM
REM in /home/nfs/bkarasulu/CARBON/AIRSS/Generating-Clusters/REBO/Higher-Symm/SD-CG/HFTN-CG
REM
REM
REM
REM
REM
REM ./C.cell (12c818d87b63d06a65506943cc24bca4)
REM
REM compiler GCC version 9.2.1 20190827 (Red Hat 9.2.1-1)
REM options -cpp -mtune=generic -march=x86-64 -g -O0 -fpre-include=/usr/include/finclude/math-vector-fortran.h
REM seed -1653589839 -679747322 1857652730 932672820 -859057816 1714640406 -472813592 -936161032 1194596837 -1251395998 -1069284275 -2123038494 -129538732 -748228832 -593053572 -528844461 -647760973 -1450434925 1720995254 240898402 -972384593 -1104831969 1724196243 -544540915 1908847104 657983484 -1713182867 -2118748359 1397870636 1166037284 -1651021810 -1733772502 990173724
REM
CELL 1.54180   50.00000   50.00000   50.00000   90.00000   90.00000   90.00000
LATT -1
SFAC C  
C      1  0.5136740000000  0.5511170000000  0.4379250000000 1.0
C      1  0.5531180000000  0.4851680000000  0.5618180000000 1.0
C      1  0.4861010000000  0.4471000000000  0.4387660000000 1.0
C      1  0.4497170000000  0.5142590000000  0.5608940000000 1.0
C      1  0.4449510000000  0.5005750000000  0.4373800000000 1.0
C      1  0.4960200000000  0.5532200000000  0.5630950000000 1.0
C      1  0.5535340000000  0.5039340000000  0.4362610000000 1.0
C      1  0.5018280000000  0.4439310000000  0.5625280000000 1.0
C      1  0.5147400000000  0.4411450000000  0.4211580000000 1.0
C      1  0.4440720000000  0.4863660000000  0.5796820000000 1.0
C      1  0.4843100000000  0.5522570000000  0.4204460000000 1.0
C      1  0.5571810000000  0.5135530000000  0.5803240000000 1.0
C      1  0.5032770000000  0.4639400000000  0.5830920000000 1.0
C      1  0.4658950000000  0.5005740000000  0.4176990000000 1.0
C      1  0.4966440000000  0.5298750000000  0.5791050000000 1.0
C      1  0.5317120000000  0.5037290000000  0.4185750000000 1.0
C      1  0.5607350000000  0.5575100000000  0.4961460000000 1.0
C      1  0.5588970000000  0.4391340000000  0.5027880000000 1.0
C      1  0.4389780000000  0.4425240000000  0.4969980000000 1.0
C      1  0.4421690000000  0.5610460000000  0.5028100000000 1.0
C      1  0.4458620000000  0.5146330000000  0.4685370000000 1.0
C      1  0.5108520000000  0.5521500000000  0.5258490000000 1.0
C      1  0.5533680000000  0.4888460000000  0.4734380000000 1.0
C      1  0.4893480000000  0.4387800000000  0.5308310000000 1.0
C      1  0.5311100000000  0.4257600000000  0.5163510000000 1.0
C      1  0.4264870000000  0.4708070000000  0.4829020000000 1.0
C      1  0.4699960000000  0.5737040000000  0.5158360000000 1.0
C      1  0.5742660000000  0.5297490000000  0.4825670000000 1.0
C      1  0.5392970000000  0.4517190000000  0.4418620000000 1.0
C      1  0.4502830000000  0.4608720000000  0.5587370000000 1.0
C      1  0.4610480000000  0.5409710000000  0.4425670000000 1.0
C      1  0.5474920000000  0.5385950000000  0.5598270000000 1.0
C      1  0.4883120000000  0.5518990000000  0.4599470000000 1.0
C      1  0.5552340000000  0.5115150000000  0.5405830000000 1.0
C      1  0.5116090000000  0.4450850000000  0.4606820000000 1.0
C      1  0.4446010000000  0.4885060000000  0.5398950000000 1.0
C      1  0.4867780000000  0.5043470000000  0.4848650000000 1.0
C      1  0.5057090000000  0.5150120000000  0.5184000000000 1.0
C      1  0.5166740000000  0.4923510000000  0.4834030000000 1.0
C      1  0.4949970000000  0.4840680000000  0.5183140000000 1.0
C      1  0.4295530000000  0.5308660000000  0.4435920000000 1.0
C      1  0.5261300000000  0.5637190000000  0.5542440000000 1.0
C      1  0.5641910000000  0.4739050000000  0.4447220000000 1.0
C      1  0.4692800000000  0.4344500000000  0.5575270000000 1.0
C      1  0.4558570000000  0.4383840000000  0.5262110000000 1.0
C      1  0.4363360000000  0.5464540000000  0.4734010000000 1.0
C      1  0.5435330000000  0.5617990000000  0.5249110000000 1.0
C      1  0.5631560000000  0.4561740000000  0.4739080000000 1.0
C      1  0.4499130000000  0.4689220000000  0.5149800000000 1.0
C      1  0.4684110000000  0.5481220000000  0.4852490000000 1.0
C      1  0.5505940000000  0.5305630000000  0.5145660000000 1.0
C      1  0.5319990000000  0.4508870000000  0.4855320000000 1.0
C      1  0.5186550000000  0.5256200000000  0.5455960000000 1.0
C      1  0.5262660000000  0.4813210000000  0.4544130000000 1.0
C      1  0.4794200000000  0.4696860000000  0.5419600000000 1.0
C      1  0.4767440000000  0.5140610000000  0.4573390000000 1.0
C      1  0.4358710000000  0.5132660000000  0.5102110000000 1.0
C      1  0.5126770000000  0.5651060000000  0.4883590000000 1.0
C      1  0.5654560000000  0.4870830000000  0.5111420000000 1.0
C      1  0.4875150000000  0.4337010000000  0.4901030000000 1.0
C      1  0.4923150000000  0.5793270000000  0.5013540000000 1.0
C      1  0.5793070000000  0.5074520000000  0.4975040000000 1.0
C      1  0.5088330000000  0.4194940000000  0.5018240000000 1.0
C      1  0.4210300000000  0.4931420000000  0.4975450000000 1.0
C      1  0.5358990000000  0.5196740000000  0.4871110000000 1.0
C      1  0.5209840000000  0.4643670000000  0.5137060000000 1.0
C      1  0.4651680000000  0.4796650000000  0.4876480000000 1.0
C      1  0.4794500000000  0.5349940000000  0.5132580000000 1.0
C      1  0.4952660000000  0.4655750000000  0.4829320000000 1.0
C      1  0.4673710000000  0.5042440000000  0.5195380000000 1.0
C      1  0.5051660000000  0.5327690000000  0.4827360000000 1.0
C      1  0.5334020000000  0.4951020000000  0.5195420000000 1.0
C      1  0.4743770000000  0.5547000000000  0.5416010000000 1.0
C      1  0.5537210000000  0.5255470000000  0.4579040000000 1.0
C      1  0.5269310000000  0.4455350000000  0.5415280000000 1.0
C      1  0.4470860000000  0.4758660000000  0.4588870000000 1.0
C      1  0.5688920000000  0.4607020000000  0.5227410000000 1.0
C      1  0.4609000000000  0.4323230000000  0.4776210000000 1.0
C      1  0.4325020000000  0.5392760000000  0.5224890000000 1.0
C      1  0.5389690000000  0.5677380000000  0.4764340000000 1.0
C      1  0.4604000000000  0.4477180000000  0.4527520000000 1.0
C      1  0.4474620000000  0.5401960000000  0.5474790000000 1.0
C      1  0.5398530000000  0.5527530000000  0.4514150000000 1.0
C      1  0.5542290000000  0.4593090000000  0.5479950000000 1.0
C      1  0.4748270000000  0.4913530000000  0.5657670000000 1.0
C      1  0.4952070000000  0.5227090000000  0.4335050000000 1.0
C      1  0.5264430000000  0.5057190000000  0.5678270000000 1.0
C      1  0.5072240000000  0.4728240000000  0.4312430000000 1.0
C      1  0.5009460000000  0.4962420000000  0.5821060000000 1.0
C      1  0.4987250000000  0.4975200000000  0.4151520000000 1.0
END
