TITL C-2782225-7408-784 3.36291613398414e-05 125000 -399.661766709455 0 0 68 (C2) n - 1
REM
REM in /home/nfs/bkarasulu/CARBON/AIRSS/Generating-Clusters/REBO/Higher-Symm/SD-CG/HFTN-CG
REM
REM
REM
REM
REM
REM ./C.cell (12c818d87b63d06a65506943cc24bca4)
REM
REM compiler GCC version 9.2.1 20190827 (Red Hat 9.2.1-1)
REM options -cpp -mtune=generic -march=x86-64 -g -O0 -fpre-include=/usr/include/finclude/math-vector-fortran.h
REM seed 522170711 1360689727 -2063539959 677511307 -597675916 1568889547 1057827860 -715019624 -303841965 -1551657713 1900159248 -1666659542 -1568972383 -1023068644 -1381325201 1101417019 -1231230197 -2048931513 -1917188530 1664004989 1000952555 432966374 1353752984 -1871416161 960103522 98379303 -1929492056 -383982342 -1691759315 -39874246 -669685632 -154552499 -1983957797
REM
CELL 1.54180   50.00000   50.00000   50.00000   90.00000   90.00000   90.00000
LATT -1
SFAC C  
C      1  0.4457470000000  0.5020300000000  0.4628800000000 1.0
C      1  0.5330810000000  0.5509270000000  0.4641480000000 1.0
C      1  0.5252560000000  0.4518200000000  0.4616630000000 1.0
C      1  0.4457070000000  0.4973730000000  0.5392020000000 1.0
C      1  0.5330850000000  0.4485510000000  0.5380300000000 1.0
C      1  0.5251720000000  0.5476510000000  0.5405060000000 1.0
C      1  0.5530510000000  0.4741430000000  0.4970270000000 1.0
C      1  0.4537450000000  0.4715840000000  0.5028560000000 1.0
C      1  0.4967700000000  0.5559160000000  0.4974820000000 1.0
C      1  0.5530250000000  0.5253520000000  0.5051720000000 1.0
C      1  0.4537230000000  0.5278260000000  0.4992340000000 1.0
C      1  0.4968140000000  0.4435310000000  0.5046560000000 1.0
C      1  0.4954910000000  0.5497450000000  0.5309450000000 1.0
C      1  0.5481650000000  0.4749650000000  0.5305250000000 1.0
C      1  0.4626800000000  0.4706350000000  0.5357170000000 1.0
C      1  0.4955670000000  0.4497010000000  0.4711920000000 1.0
C      1  0.5481760000000  0.5245260000000  0.4716690000000 1.0
C      1  0.4626930000000  0.5287820000000  0.4663840000000 1.0
C      1  0.4902210000000  0.5868220000000  0.4299420000000 1.0
C      1  0.5815860000000  0.4740530000000  0.4308540000000 1.0
C      1  0.4310660000000  0.4349050000000  0.4473190000000 1.0
C      1  0.4902180000000  0.4126190000000  0.5721880000000 1.0
C      1  0.5814870000000  0.5254670000000  0.5713760000000 1.0
C      1  0.4309510000000  0.5644860000000  0.5547460000000 1.0
C      1  0.4249610000000  0.5118550000000  0.4975400000000 1.0
C      1  0.5480780000000  0.5576140000000  0.5047570000000 1.0
C      1  0.5263380000000  0.4301810000000  0.5003630000000 1.0
C      1  0.4249680000000  0.4875310000000  0.5045190000000 1.0
C      1  0.5481320000000  0.4418770000000  0.4974370000000 1.0
C      1  0.5262780000000  0.5692910000000  0.5018070000000 1.0
C      1  0.5322420000000  0.4983310000000  0.4848360000000 1.0
C      1  0.4837980000000  0.4764800000000  0.4869730000000 1.0
C      1  0.4898700000000  0.5257010000000  0.4828810000000 1.0
C      1  0.5322230000000  0.5011460000000  0.5173410000000 1.0
C      1  0.4837630000000  0.5229560000000  0.5151510000000 1.0
C      1  0.4898720000000  0.4737400000000  0.5192490000000 1.0
C      1  0.4441850000000  0.4763060000000  0.4714700000000 1.0
C      1  0.5078720000000  0.5605590000000  0.4674310000000 1.0
C      1  0.5478040000000  0.4663600000000  0.4658600000000 1.0
C      1  0.4441330000000  0.5230960000000  0.5306100000000 1.0
C      1  0.5078870000000  0.4388980000000  0.5347190000000 1.0
C      1  0.5477360000000  0.5331310000000  0.5363340000000 1.0
C      1  0.4762120000000  0.5440450000000  0.5553780000000 1.0
C      1  0.5495740000000  0.4904270000000  0.5579300000000 1.0
C      1  0.4715290000000  0.4566420000000  0.5611610000000 1.0
C      1  0.4763100000000  0.4553840000000  0.4467380000000 1.0
C      1  0.5496280000000  0.5090660000000  0.4442660000000 1.0
C      1  0.4715580000000  0.5427840000000  0.4409490000000 1.0
C      1  0.5238720000000  0.5096090000000  0.4309540000000 1.0
C      1  0.4835820000000  0.4794630000000  0.4329930000000 1.0
C      1  0.4795880000000  0.5260080000000  0.4187840000000 1.0
C      1  0.5238030000000  0.4898610000000  0.5712140000000 1.0
C      1  0.4834900000000  0.5199730000000  0.5691300000000 1.0
C      1  0.4795200000000  0.4734240000000  0.5833350000000 1.0
C      1  0.4690070000000  0.4988650000000  0.4174490000000 1.0
C      1  0.5084430000000  0.5267710000000  0.4137450000000 1.0
C      1  0.5056550000000  0.4926760000000  0.4452000000000 1.0
C      1  0.4689140000000  0.5005580000000  0.5846590000000 1.0
C      1  0.5083700000000  0.4726850000000  0.5884060000000 1.0
C      1  0.5055880000000  0.5067790000000  0.5569470000000 1.0
C      1  0.5611940000000  0.5166520000000  0.5556570000000 1.0
C      1  0.4888960000000  0.4342830000000  0.5558230000000 1.0
C      1  0.4487000000000  0.5452530000000  0.5480280000000 1.0
C      1  0.5612690000000  0.4828500000000  0.4465520000000 1.0
C      1  0.4889000000000  0.5651570000000  0.4463060000000 1.0
C      1  0.4487900000000  0.4541520000000  0.4540570000000 1.0
C      1  0.5030920000000  0.5010330000000  0.5272410000000 1.0
C      1  0.5031220000000  0.4984200000000  0.4749040000000 1.0
END
