TITL C-2782236-320-645 -0.000908723600543686 125000 -790.936897938503 0 0 134 (C1) n - 1
REM
REM in /home/nfs/bkarasulu/CARBON/AIRSS/Generating-Clusters/REBO/Higher-Symm/SD-CG/HFTN-CG
REM
REM
REM
REM
REM
REM ./C.cell (12c818d87b63d06a65506943cc24bca4)
REM
REM compiler GCC version 9.2.1 20190827 (Red Hat 9.2.1-1)
REM options -cpp -mtune=generic -march=x86-64 -g -O0 -fpre-include=/usr/include/finclude/math-vector-fortran.h
REM seed 1056886102 -1824607361 782915426 1116912316 1699586160 609629219 838579746 1167264445 1024573511 195788446 758427828 2034423270 -744911562 325007089 1025107628 -1949798169 -460120179 -927626157 1279891138 -1097971764 -751776745 1351852849 773174234 -67574141 1553110512 -2122449166 451905414 1160916666 -377520436 -514692893 -516522417 -1028052562 1080330592
REM
CELL 1.54180   50.00000   50.00000   50.00000   90.00000   90.00000   90.00000
LATT -1
SFAC C  
C      1  0.5484290000000  0.5442560000000  0.4419120000000 1.0
C      1  0.5548270000000  0.5363120000000  0.5872000000000 1.0
C      1  0.5576320000000  0.4048110000000  0.4880620000000 1.0
C      1  0.4148240000000  0.5134660000000  0.5624410000000 1.0
C      1  0.4176090000000  0.4317060000000  0.4779340000000 1.0
C      1  0.4212220000000  0.5405580000000  0.4564140000000 1.0
C      1  0.4183850000000  0.4905140000000  0.5189080000000 1.0
C      1  0.4182630000000  0.4817220000000  0.4799510000000 1.0
C      1  0.4275590000000  0.5319060000000  0.4998440000000 1.0
C      1  0.4837440000000  0.5932850000000  0.5094870000000 1.0
C      1  0.4813870000000  0.4483000000000  0.5817480000000 1.0
C      1  0.4785800000000  0.4546800000000  0.4107160000000 1.0
C      1  0.5184610000000  0.5568720000000  0.5311120000000 1.0
C      1  0.5280950000000  0.4400050000000  0.5152100000000 1.0
C      1  0.5292290000000  0.5006070000000  0.4428920000000 1.0
C      1  0.5347560000000  0.4521320000000  0.4153730000000 1.0
C      1  0.5351510000000  0.5849400000000  0.5052330000000 1.0
C      1  0.5337840000000  0.4531930000000  0.5761230000000 1.0
C      1  0.4650460000000  0.4195730000000  0.4478070000000 1.0
C      1  0.4694780000000  0.5891890000000  0.4573990000000 1.0
C      1  0.4670310000000  0.4987670000000  0.5939950000000 1.0
C      1  0.5522610000000  0.5457310000000  0.4738840000000 1.0
C      1  0.5626670000000  0.5059920000000  0.5892500000000 1.0
C      1  0.5587420000000  0.4125140000000  0.4614170000000 1.0
C      1  0.5793150000000  0.5240290000000  0.5151760000000 1.0
C      1  0.5990630000000  0.4789990000000  0.5108420000000 1.0
C      1  0.5955950000000  0.5112900000000  0.4712040000000 1.0
C      1  0.4006350000000  0.5148610000000  0.5349550000000 1.0
C      1  0.4098510000000  0.4551610000000  0.4978460000000 1.0
C      1  0.4035100000000  0.5175270000000  0.4614850000000 1.0
C      1  0.5329500000000  0.5169730000000  0.5073730000000 1.0
C      1  0.5375950000000  0.4794470000000  0.4946320000000 1.0
C      1  0.5464540000000  0.5060090000000  0.4780900000000 1.0
C      1  0.5395940000000  0.4360370000000  0.5530350000000 1.0
C      1  0.5434240000000  0.4792190000000  0.4126590000000 1.0
C      1  0.5487260000000  0.5822630000000  0.5314240000000 1.0
C      1  0.4272500000000  0.5541740000000  0.4818760000000 1.0
C      1  0.4207780000000  0.4850640000000  0.5523170000000 1.0
C      1  0.4216890000000  0.4562950000000  0.4599610000000 1.0
C      1  0.5070190000000  0.4475840000000  0.4171630000000 1.0
C      1  0.5085120000000  0.5855980000000  0.4981240000000 1.0
C      1  0.5073130000000  0.4602740000000  0.5831260000000 1.0
C      1  0.5003110000000  0.4218980000000  0.4871400000000 1.0
C      1  0.5085520000000  0.5558000000000  0.4424140000000 1.0
C      1  0.4988570000000  0.5214680000000  0.5782520000000 1.0
C      1  0.4485560000000  0.4787020000000  0.5137820000000 1.0
C      1  0.4453910000000  0.5016590000000  0.4744130000000 1.0
C      1  0.4548190000000  0.5268840000000  0.5172320000000 1.0
C      1  0.4937650000000  0.5123510000000  0.4096990000000 1.0
C      1  0.4977810000000  0.5747590000000  0.5630850000000 1.0
C      1  0.4925230000000  0.4113410000000  0.5345260000000 1.0
C      1  0.4413400000000  0.4295080000000  0.4968020000000 1.0
C      1  0.4436550000000  0.5296580000000  0.4413050000000 1.0
C      1  0.4364640000000  0.5326370000000  0.5605280000000 1.0
C      1  0.4798610000000  0.4283470000000  0.5614210000000 1.0
C      1  0.4767910000000  0.4829200000000  0.4067470000000 1.0
C      1  0.4818820000000  0.5864800000000  0.5409910000000 1.0
C      1  0.5083730000000  0.4229900000000  0.4578500000000 1.0
C      1  0.5203700000000  0.5922550000000  0.4501300000000 1.0
C      1  0.5213230000000  0.4875680000000  0.6086060000000 1.0
C      1  0.5541580000000  0.4749220000000  0.5778570000000 1.0
C      1  0.5554070000000  0.4353490000000  0.4359870000000 1.0
C      1  0.5523780000000  0.5784050000000  0.4816200000000 1.0
C      1  0.5055240000000  0.4604240000000  0.5251990000000 1.0
C      1  0.5023260000000  0.4950910000000  0.4580570000000 1.0
C      1  0.4912420000000  0.5490850000000  0.5307520000000 1.0
C      1  0.4749850000000  0.4056480000000  0.4714100000000 1.0
C      1  0.4820250000000  0.5736060000000  0.4339630000000 1.0
C      1  0.4750040000000  0.5292960000000  0.6002660000000 1.0
C      1  0.4444650000000  0.4955360000000  0.4406980000000 1.0
C      1  0.4361420000000  0.5503910000000  0.5339190000000 1.0
C      1  0.4525260000000  0.4483620000000  0.5230680000000 1.0
C      1  0.5454900000000  0.4926600000000  0.6125650000000 1.0
C      1  0.5317540000000  0.4144750000000  0.4466080000000 1.0
C      1  0.5447740000000  0.5948990000000  0.4569020000000 1.0
C      1  0.4589760000000  0.4680230000000  0.5866040000000 1.0
C      1  0.4591390000000  0.4427470000000  0.4298750000000 1.0
C      1  0.4623050000000  0.5920820000000  0.4883670000000 1.0
C      1  0.5894550000000  0.4607300000000  0.4659010000000 1.0
C      1  0.5915370000000  0.5567020000000  0.4628540000000 1.0
C      1  0.5772000000000  0.5023360000000  0.5603870000000 1.0
C      1  0.4766910000000  0.4930500000000  0.5612160000000 1.0
C      1  0.4769940000000  0.4588560000000  0.4617630000000 1.0
C      1  0.4740410000000  0.5580260000000  0.4710400000000 1.0
C      1  0.4200170000000  0.4509010000000  0.5229780000000 1.0
C      1  0.4103600000000  0.4977730000000  0.4429020000000 1.0
C      1  0.4045900000000  0.5429020000000  0.5301240000000 1.0
C      1  0.5546290000000  0.4550710000000  0.5058430000000 1.0
C      1  0.5616260000000  0.5075930000000  0.4506540000000 1.0
C      1  0.5436530000000  0.5400060000000  0.5235870000000 1.0
C      1  0.5241900000000  0.5064490000000  0.4109330000000 1.0
C      1  0.5297560000000  0.5738040000000  0.5571010000000 1.0
C      1  0.5240790000000  0.4138100000000  0.5342420000000 1.0
C      1  0.5222990000000  0.5301900000000  0.4787930000000 1.0
C      1  0.5169700000000  0.4912810000000  0.5190120000000 1.0
C      1  0.5061760000000  0.4778870000000  0.4830510000000 1.0
C      1  0.4720340000000  0.5372810000000  0.4466270000000 1.0
C      1  0.4614880000000  0.5227040000000  0.5633830000000 1.0
C      1  0.4654560000000  0.4413500000000  0.4859960000000 1.0
C      1  0.5901460000000  0.4988720000000  0.5290380000000 1.0
C      1  0.6032630000000  0.4858030000000  0.4797660000000 1.0
C      1  0.5771980000000  0.5290200000000  0.4884340000000 1.0
C      1  0.5033690000000  0.5736170000000  0.4709210000000 1.0
C      1  0.5040400000000  0.4913000000000  0.5816550000000 1.0
C      1  0.4959460000000  0.4448370000000  0.4453300000000 1.0
C      1  0.4374600000000  0.5784590000000  0.4918820000000 1.0
C      1  0.4359290000000  0.4680200000000  0.5690160000000 1.0
C      1  0.4405080000000  0.4620050000000  0.4399590000000 1.0
C      1  0.4878320000000  0.5538870000000  0.5804250000000 1.0
C      1  0.4825720000000  0.4004760000000  0.5043260000000 1.0
C      1  0.4879210000000  0.5425690000000  0.4192960000000 1.0
C      1  0.5440210000000  0.4026780000000  0.5111700000000 1.0
C      1  0.5406000000000  0.5325530000000  0.4217870000000 1.0
C      1  0.5451530000000  0.5566440000000  0.5777590000000 1.0
C      1  0.5592530000000  0.4507460000000  0.5374610000000 1.0
C      1  0.5647690000000  0.4831620000000  0.4311980000000 1.0
C      1  0.5679210000000  0.5623270000000  0.5146490000000 1.0
C      1  0.5827390000000  0.4562470000000  0.4959330000000 1.0
C      1  0.5854900000000  0.5314220000000  0.4496100000000 1.0
C      1  0.5672080000000  0.5279510000000  0.5434130000000 1.0
C      1  0.4663500000000  0.4808250000000  0.4845720000000 1.0
C      1  0.4641390000000  0.5281930000000  0.4846190000000 1.0
C      1  0.4668050000000  0.5006830000000  0.5305110000000 1.0
C      1  0.5742070000000  0.4591450000000  0.4426050000000 1.0
C      1  0.5821010000000  0.5685250000000  0.4873220000000 1.0
C      1  0.5698930000000  0.4715170000000  0.5522490000000 1.0
C      1  0.4781510000000  0.4974060000000  0.4361390000000 1.0
C      1  0.4637940000000  0.5641690000000  0.5276750000000 1.0
C      1  0.4792720000000  0.4423100000000  0.5324520000000 1.0
C      1  0.4940060000000  0.5237240000000  0.4688610000000 1.0
C      1  0.4878010000000  0.5291250000000  0.5491010000000 1.0
C      1  0.4946480000000  0.4509140000000  0.4965660000000 1.0
C      1  0.4073370000000  0.5092590000000  0.4928910000000 1.0
C      1  0.4862250000000  0.4906370000000  0.5080770000000 1.0
END
