TITL C-2782225-7408-677 1.80547751035013e-05 125000 -1012.69346721614 0 0 175 (C1) n - 1
REM
REM in /home/nfs/bkarasulu/CARBON/AIRSS/Generating-Clusters/REBO/Higher-Symm/SD-CG/HFTN-CG
REM
REM
REM
REM
REM
REM ./C.cell (12c818d87b63d06a65506943cc24bca4)
REM
REM compiler GCC version 9.2.1 20190827 (Red Hat 9.2.1-1)
REM options -cpp -mtune=generic -march=x86-64 -g -O0 -fpre-include=/usr/include/finclude/math-vector-fortran.h
REM seed 1515448922 -67749343 1499924704 -1306117214 833482360 283899643 -1846409322 -1728363031 861843092 451364310 -683511050 23468104 533348003 -261473435 637790628 1799177280 -1777828755 -5305380 1628914577 102639280 1476021206 -1177383360 1183381774 -1064845289 2116007682 -51467648 -28139650 -744983765 474865665 -435736568 1400141793 -1879198764 -1243625333
REM
CELL 1.54180   50.00000   50.00000   50.00000   90.00000   90.00000   90.00000
LATT -1
SFAC C  
C      1  0.5346840000000  0.4651440000000  0.5435180000000 1.0
C      1  0.5502490000000  0.4683040000000  0.4813650000000 1.0
C      1  0.4936480000000  0.4726050000000  0.4480230000000 1.0
C      1  0.4424300000000  0.4684510000000  0.4946360000000 1.0
C      1  0.4694710000000  0.4681890000000  0.5469630000000 1.0
C      1  0.5341570000000  0.5339100000000  0.4559180000000 1.0
C      1  0.5477720000000  0.5272170000000  0.5188510000000 1.0
C      1  0.4918740000000  0.5273780000000  0.5510200000000 1.0
C      1  0.4404320000000  0.5421130000000  0.5093890000000 1.0
C      1  0.4695630000000  0.5323220000000  0.4507860000000 1.0
C      1  0.4789340000000  0.5779500000000  0.4808770000000 1.0
C      1  0.4775690000000  0.5758300000000  0.5137360000000 1.0
C      1  0.5075660000000  0.5703580000000  0.5258000000000 1.0
C      1  0.5283770000000  0.5699670000000  0.5006900000000 1.0
C      1  0.5107060000000  0.5734470000000  0.4736750000000 1.0
C      1  0.4783870000000  0.4198990000000  0.5271510000000 1.0
C      1  0.4731980000000  0.4247960000000  0.4948630000000 1.0
C      1  0.5022020000000  0.4308910000000  0.4792480000000 1.0
C      1  0.5275350000000  0.4288570000000  0.5002950000000 1.0
C      1  0.5112070000000  0.4249210000000  0.5285190000000 1.0
C      1  0.5722360000000  0.4443430000000  0.4583460000000 1.0
C      1  0.4850660000000  0.4445970000000  0.4209250000000 1.0
C      1  0.4210670000000  0.4353150000000  0.4906940000000 1.0
C      1  0.4682730000000  0.4392160000000  0.5741930000000 1.0
C      1  0.5639730000000  0.4409650000000  0.5555440000000 1.0
C      1  0.5704200000000  0.5528240000000  0.5394820000000 1.0
C      1  0.4816750000000  0.5536540000000  0.5792220000000 1.0
C      1  0.4343700000000  0.5814330000000  0.5073440000000 1.0
C      1  0.4677160000000  0.5590230000000  0.4213430000000 1.0
C      1  0.5630260000000  0.5580700000000  0.4432900000000 1.0
C      1  0.6045050000000  0.5021420000000  0.5142840000000 1.0
C      1  0.5480350000000  0.5051730000000  0.4075020000000 1.0
C      1  0.4300150000000  0.5034050000000  0.4291730000000 1.0
C      1  0.4031870000000  0.5011940000000  0.5500790000000 1.0
C      1  0.5167070000000  0.5020690000000  0.5991870000000 1.0
C      1  0.6084990000000  0.4957670000000  0.4805750000000 1.0
C      1  0.5488680000000  0.4927810000000  0.5910550000000 1.0
C      1  0.4282950000000  0.4920530000000  0.5713290000000 1.0
C      1  0.4106090000000  0.4873490000000  0.4526880000000 1.0
C      1  0.5164990000000  0.4962270000000  0.3970610000000 1.0
C      1  0.4541760000000  0.4832060000000  0.6002880000000 1.0
C      1  0.5862960000000  0.4842940000000  0.5753190000000 1.0
C      1  0.5998150000000  0.4856660000000  0.4411240000000 1.0
C      1  0.4688410000000  0.4786020000000  0.3834320000000 1.0
C      1  0.3829570000000  0.4757010000000  0.4958600000000 1.0
C      1  0.4554640000000  0.5122230000000  0.3996410000000 1.0
C      1  0.5936360000000  0.5197540000000  0.4218080000000 1.0
C      1  0.6019870000000  0.5191180000000  0.5648070000000 1.0
C      1  0.4674620000000  0.5181840000000  0.6132470000000 1.0
C      1  0.3835680000000  0.5250350000000  0.5098310000000 1.0
C      1  0.4423900000000  0.4616990000000  0.5781060000000 1.0
C      1  0.5631430000000  0.4626760000000  0.5820340000000 1.0
C      1  0.5975040000000  0.4658140000000  0.4663790000000 1.0
C      1  0.4968110000000  0.4679540000000  0.3984680000000 1.0
C      1  0.4045150000000  0.4610510000000  0.4748130000000 1.0
C      1  0.4438040000000  0.5339780000000  0.4203030000000 1.0
C      1  0.5630360000000  0.5342470000000  0.4187020000000 1.0
C      1  0.5945160000000  0.5289610000000  0.5335350000000 1.0
C      1  0.4953470000000  0.5290900000000  0.5989310000000 1.0
C      1  0.3956140000000  0.5308520000000  0.5374800000000 1.0
C      1  0.4497940000000  0.4402610000000  0.5455120000000 1.0
C      1  0.5317870000000  0.4436660000000  0.5669180000000 1.0
C      1  0.5731500000000  0.4479620000000  0.4923000000000 1.0
C      1  0.5152680000000  0.4543520000000  0.4311030000000 1.0
C      1  0.4413990000000  0.4480910000000  0.4671100000000 1.0
C      1  0.4491740000000  0.5597190000000  0.4498550000000 1.0
C      1  0.5311880000000  0.5549170000000  0.4311410000000 1.0
C      1  0.5703000000000  0.5478980000000  0.5065450000000 1.0
C      1  0.5130220000000  0.5476320000000  0.5683130000000 1.0
C      1  0.4373450000000  0.5630610000000  0.5348400000000 1.0
C      1  0.3878570000000  0.5231390000000  0.4815340000000 1.0
C      1  0.4552950000000  0.5410090000000  0.5921400000000 1.0
C      1  0.5774480000000  0.5405390000000  0.5682470000000 1.0
C      1  0.5916280000000  0.5425230000000  0.4453430000000 1.0
C      1  0.4769210000000  0.5372930000000  0.3983500000000 1.0
C      1  0.3782510000000  0.4639090000000  0.5265410000000 1.0
C      1  0.4595280000000  0.4546100000000  0.4039910000000 1.0
C      1  0.5805510000000  0.4608970000000  0.4307150000000 1.0
C      1  0.5907670000000  0.4603980000000  0.5535370000000 1.0
C      1  0.4767620000000  0.4596670000000  0.5981740000000 1.0
C      1  0.4868950000000  0.4910320000000  0.6075490000000 1.0
C      1  0.6025750000000  0.4917490000000  0.5457940000000 1.0
C      1  0.5761060000000  0.4920090000000  0.4170180000000 1.0
C      1  0.4419270000000  0.4839140000000  0.4042800000000 1.0
C      1  0.3824580000000  0.4958490000000  0.5237700000000 1.0
C      1  0.4872850000000  0.5061850000000  0.3883610000000 1.0
C      1  0.6096590000000  0.5138790000000  0.4517070000000 1.0
C      1  0.5766840000000  0.5120160000000  0.5870970000000 1.0
C      1  0.4389630000000  0.5113470000000  0.5954300000000 1.0
C      1  0.3867580000000  0.4964530000000  0.4719190000000 1.0
C      1  0.5289980000000  0.4586310000000  0.4000720000000 1.0
C      1  0.4150650000000  0.4485910000000  0.4456880000000 1.0
C      1  0.4203840000000  0.4469400000000  0.5588240000000 1.0
C      1  0.5363790000000  0.4556950000000  0.5989920000000 1.0
C      1  0.6057490000000  0.4591780000000  0.4964610000000 1.0
C      1  0.5259450000000  0.5408260000000  0.5998660000000 1.0
C      1  0.4113180000000  0.5509410000000  0.5490760000000 1.0
C      1  0.4235910000000  0.5377870000000  0.4470110000000 1.0
C      1  0.5370610000000  0.5426420000000  0.3996870000000 1.0
C      1  0.6039740000000  0.5406200000000  0.5041050000000 1.0
C      1  0.5563870000000  0.5911000000000  0.4816640000000 1.0
C      1  0.4998310000000  0.5952280000000  0.4421930000000 1.0
C      1  0.4500160000000  0.6043190000000  0.4891230000000 1.0
C      1  0.4744450000000  0.5941620000000  0.5489480000000 1.0
C      1  0.5360280000000  0.5893010000000  0.5463020000000 1.0
C      1  0.5556890000000  0.4066660000000  0.5178520000000 1.0
C      1  0.5016210000000  0.4018690000000  0.5594670000000 1.0
C      1  0.4477030000000  0.3967430000000  0.5165090000000 1.0
C      1  0.4716770000000  0.4101150000000  0.4576860000000 1.0
C      1  0.5312000000000  0.4135970000000  0.4578860000000 1.0
C      1  0.5434620000000  0.4966300000000  0.5440650000000 1.0
C      1  0.5603400000000  0.4987680000000  0.4747130000000 1.0
C      1  0.4961380000000  0.5038570000000  0.4424870000000 1.0
C      1  0.4378960000000  0.4973530000000  0.4914580000000 1.0
C      1  0.4634470000000  0.4993880000000  0.5508950000000 1.0
C      1  0.5451910000000  0.5045180000000  0.4473430000000 1.0
C      1  0.5552810000000  0.4966890000000  0.5142440000000 1.0
C      1  0.4958180000000  0.4963970000000  0.5568340000000 1.0
C      1  0.4360370000000  0.5132190000000  0.5124950000000 1.0
C      1  0.4645140000000  0.4999540000000  0.4488800000000 1.0
C      1  0.5432560000000  0.5272970000000  0.5525500000000 1.0
C      1  0.5640410000000  0.5300720000000  0.4714000000000 1.0
C      1  0.4968210000000  0.5348810000000  0.4329010000000 1.0
C      1  0.4204770000000  0.5572090000000  0.4889000000000 1.0
C      1  0.4596370000000  0.5331770000000  0.5532980000000 1.0
C      1  0.5465400000000  0.4727050000000  0.4478830000000 1.0
C      1  0.5629140000000  0.4671080000000  0.5257140000000 1.0
C      1  0.4976220000000  0.4640240000000  0.5644020000000 1.0
C      1  0.4243810000000  0.4536770000000  0.5179310000000 1.0
C      1  0.4615270000000  0.4695960000000  0.4406470000000 1.0
C      1  0.5138510000000  0.4578680000000  0.5236330000000 1.0
C      1  0.5241330000000  0.4610450000000  0.4933190000000 1.0
C      1  0.4973820000000  0.4637140000000  0.4757350000000 1.0
C      1  0.4716090000000  0.4577860000000  0.4938040000000 1.0
C      1  0.4825420000000  0.4521450000000  0.5231480000000 1.0
C      1  0.5145440000000  0.5413420000000  0.4765070000000 1.0
C      1  0.5223660000000  0.5381900000000  0.5072670000000 1.0
C      1  0.4947520000000  0.5400660000000  0.5236330000000 1.0
C      1  0.4697190000000  0.5464640000000  0.5037110000000 1.0
C      1  0.4828320000000  0.5449290000000  0.4750940000000 1.0
C      1  0.5518660000000  0.4602810000000  0.4166110000000 1.0
C      1  0.4358980000000  0.4516440000000  0.4268310000000 1.0
C      1  0.4010210000000  0.4524590000000  0.5379640000000 1.0
C      1  0.5083600000000  0.4577480000000  0.5959070000000 1.0
C      1  0.5960090000000  0.4599130000000  0.5226210000000 1.0
C      1  0.5490560000000  0.5402480000000  0.5835140000000 1.0
C      1  0.4320170000000  0.5429390000000  0.5689510000000 1.0
C      1  0.4068400000000  0.5398330000000  0.4696280000000 1.0
C      1  0.5086890000000  0.5399330000000  0.4018430000000 1.0
C      1  0.5958660000000  0.5410650000000  0.4769500000000 1.0
C      1  0.5156180000000  0.3982890000000  0.4780980000000 1.0
C      1  0.4841890000000  0.3954480000000  0.4806530000000 1.0
C      1  0.4767910000000  0.3891090000000  0.5121850000000 1.0
C      1  0.5053520000000  0.3909980000000  0.5305810000000 1.0
C      1  0.5292520000000  0.3956940000000  0.5082630000000 1.0
C      1  0.5212210000000  0.6019640000000  0.5234030000000 1.0
C      1  0.4892370000000  0.6057880000000  0.5246810000000 1.0
C      1  0.4800490000000  0.6099610000000  0.4932500000000 1.0
C      1  0.5047870000000  0.6066060000000  0.4708610000000 1.0
C      1  0.5307290000000  0.6028550000000  0.4917690000000 1.0
C      1  0.5397850000000  0.4390610000000  0.4491390000000 1.0
C      1  0.4662480000000  0.4363240000000  0.4482300000000 1.0
C      1  0.4390470000000  0.4236290000000  0.5177140000000 1.0
C      1  0.5005240000000  0.4299700000000  0.5671460000000 1.0
C      1  0.5652030000000  0.4332570000000  0.5221170000000 1.0
C      1  0.5392900000000  0.5612840000000  0.5511270000000 1.0
C      1  0.4635670000000  0.5676420000000  0.5540400000000 1.0
C      1  0.4402290000000  0.5774170000000  0.4727730000000 1.0
C      1  0.4996940000000  0.5686200000000  0.4303520000000 1.0
C      1  0.5630720000000  0.5637890000000  0.4771140000000 1.0
C      1  0.5805060000000  0.4901630000000  0.4967670000000 1.0
C      1  0.5217620000000  0.5043830000000  0.4271640000000 1.0
C      1  0.4367990000000  0.5035380000000  0.4628000000000 1.0
C      1  0.5241920000000  0.4942240000000  0.5688150000000 1.0
C      1  0.4344710000000  0.5037320000000  0.5399520000000 1.0
END
