TITL C-2782225-7408-1024 -0.00371979142396022 125000 -732.271339370049 0 0 126 (C1) n - 1
REM
REM in /home/nfs/bkarasulu/CARBON/AIRSS/Generating-Clusters/REBO/Higher-Symm/SD-CG/HFTN-CG
REM
REM
REM
REM
REM
REM ./C.cell (12c818d87b63d06a65506943cc24bca4)
REM
REM compiler GCC version 9.2.1 20190827 (Red Hat 9.2.1-1)
REM options -cpp -mtune=generic -march=x86-64 -g -O0 -fpre-include=/usr/include/finclude/math-vector-fortran.h
REM seed 1461560050 -1253006822 521020256 705805761 1974987423 1324369453 -199601083 221137189 2091983479 -2030668952 -1127103192 1622848890 607227427 798571371 -1844416546 -1510737932 -997314771 -1246134735 -927714244 1813381466 -1603281604 -1377695193 25601547 2058343954 1682169520 1306651515 -68685777 -158497758 1252003605 -1335779217 -303172760 -436266885 1545269431
REM
CELL 1.54180   50.00000   50.00000   50.00000   90.00000   90.00000   90.00000
LATT -1
SFAC C  
C      1  0.5532970000000  0.4919730000000  0.4861610000000 1.0
C      1  0.4666830000000  0.4590860000000  0.4788840000000 1.0
C      1  0.4775490000000  0.5520440000000  0.4887240000000 1.0
C      1  0.5195850000000  0.5752670000000  0.5455830000000 1.0
C      1  0.5560010000000  0.4477680000000  0.5424440000000 1.0
C      1  0.4226900000000  0.4728980000000  0.5475210000000 1.0
C      1  0.5853950000000  0.4925700000000  0.4970080000000 1.0
C      1  0.4381220000000  0.4193310000000  0.4912240000000 1.0
C      1  0.4667280000000  0.5822500000000  0.4979550000000 1.0
C      1  0.5518220000000  0.5178930000000  0.5583320000000 1.0
C      1  0.4848470000000  0.4342790000000  0.5505320000000 1.0
C      1  0.4521400000000  0.5353740000000  0.5553420000000 1.0
C      1  0.4452320000000  0.4697000000000  0.5232030000000 1.0
C      1  0.5062680000000  0.5558080000000  0.5253580000000 1.0
C      1  0.5468310000000  0.4708420000000  0.5225530000000 1.0
C      1  0.5178860000000  0.5039010000000  0.6166780000000 1.0
C      1  0.4958870000000  0.4872140000000  0.6161700000000 1.0
C      1  0.4649210000000  0.5278940000000  0.6120770000000 1.0
C      1  0.4162010000000  0.5000160000000  0.5474170000000 1.0
C      1  0.5470800000000  0.5693140000000  0.5516110000000 1.0
C      1  0.5319160000000  0.4311380000000  0.5453120000000 1.0
C      1  0.5368030000000  0.5477610000000  0.4726850000000 1.0
C      1  0.5245020000000  0.4431350000000  0.4691800000000 1.0
C      1  0.4416120000000  0.5063370000000  0.4736070000000 1.0
C      1  0.5268130000000  0.5331670000000  0.5759290000000 1.0
C      1  0.5148150000000  0.4635400000000  0.5778510000000 1.0
C      1  0.4638100000000  0.5046520000000  0.5650200000000 1.0
C      1  0.5491130000000  0.5187860000000  0.4658010000000 1.0
C      1  0.4908000000000  0.4428910000000  0.4639540000000 1.0
C      1  0.4551930000000  0.5374300000000  0.4681240000000 1.0
C      1  0.4726200000000  0.4878240000000  0.4116250000000 1.0
C      1  0.5106160000000  0.5306230000000  0.4228450000000 1.0
C      1  0.5258000000000  0.4805180000000  0.4073870000000 1.0
C      1  0.5286440000000  0.4360370000000  0.5159980000000 1.0
C      1  0.4222050000000  0.5067760000000  0.5187340000000 1.0
C      1  0.5470330000000  0.5598850000000  0.5211410000000 1.0
C      1  0.4842310000000  0.4865230000000  0.5450730000000 1.0
C      1  0.5057830000000  0.5264300000000  0.5519880000000 1.0
C      1  0.5085410000000  0.4979900000000  0.5441350000000 1.0
C      1  0.4761470000000  0.4598540000000  0.4114870000000 1.0
C      1  0.4855740000000  0.5401200000000  0.4124040000000 1.0
C      1  0.5456520000000  0.5001620000000  0.4063300000000 1.0
C      1  0.4159550000000  0.5260770000000  0.4846270000000 1.0
C      1  0.5642950000000  0.5632160000000  0.4856650000000 1.0
C      1  0.5251670000000  0.4131030000000  0.4838770000000 1.0
C      1  0.4540250000000  0.4800460000000  0.4919830000000 1.0
C      1  0.5087260000000  0.5494740000000  0.4920040000000 1.0
C      1  0.5376390000000  0.4658210000000  0.4908940000000 1.0
C      1  0.5176840000000  0.5099440000000  0.4891220000000 1.0
C      1  0.5010540000000  0.4806260000000  0.4845260000000 1.0
C      1  0.4840560000000  0.5067830000000  0.4945030000000 1.0
C      1  0.4301290000000  0.5375290000000  0.5120270000000 1.0
C      1  0.5769770000000  0.5492950000000  0.5141320000000 1.0
C      1  0.4990480000000  0.4122800000000  0.5039370000000 1.0
C      1  0.5105740000000  0.4401380000000  0.5617510000000 1.0
C      1  0.4262570000000  0.5181810000000  0.5652350000000 1.0
C      1  0.5616560000000  0.5496420000000  0.5659840000000 1.0
C      1  0.5833990000000  0.5513170000000  0.4629150000000 1.0
C      1  0.5032160000000  0.3970530000000  0.4671920000000 1.0
C      1  0.4115030000000  0.5502430000000  0.4659520000000 1.0
C      1  0.5353090000000  0.5272980000000  0.4075970000000 1.0
C      1  0.5062690000000  0.4535950000000  0.4120610000000 1.0
C      1  0.4640560000000  0.5189430000000  0.4169290000000 1.0
C      1  0.5076810000000  0.4564160000000  0.5027160000000 1.0
C      1  0.4549990000000  0.5064370000000  0.5111790000000 1.0
C      1  0.5324470000000  0.5329660000000  0.5094170000000 1.0
C      1  0.5222410000000  0.5656110000000  0.4516470000000 1.0
C      1  0.5483080000000  0.4500560000000  0.4498460000000 1.0
C      1  0.4244680000000  0.4778890000000  0.4654500000000 1.0
C      1  0.4274700000000  0.4459810000000  0.4781080000000 1.0
C      1  0.5091240000000  0.5916040000000  0.4645400000000 1.0
C      1  0.5762700000000  0.4523470000000  0.4652000000000 1.0
C      1  0.5787330000000  0.5242210000000  0.4587750000000 1.0
C      1  0.4819700000000  0.4135740000000  0.4611280000000 1.0
C      1  0.4369480000000  0.5612350000000  0.4619820000000 1.0
C      1  0.5196900000000  0.4722000000000  0.4378270000000 1.0
C      1  0.4753220000000  0.4985310000000  0.4422280000000 1.0
C      1  0.5073950000000  0.5211510000000  0.4490890000000 1.0
C      1  0.4650460000000  0.4142620000000  0.5056700000000 1.0
C      1  0.4491610000000  0.5806680000000  0.5246260000000 1.0
C      1  0.5836470000000  0.5170150000000  0.5166420000000 1.0
C      1  0.4801980000000  0.5194720000000  0.4656640000000 1.0
C      1  0.5259320000000  0.4975950000000  0.4579250000000 1.0
C      1  0.4931870000000  0.4752330000000  0.4543580000000 1.0
C      1  0.4390750000000  0.5571870000000  0.5351230000000 1.0
C      1  0.5791560000000  0.5327560000000  0.5443170000000 1.0
C      1  0.4831940000000  0.4101500000000  0.5342720000000 1.0
C      1  0.4936970000000  0.5912760000000  0.5386370000000 1.0
C      1  0.5818360000000  0.4658560000000  0.5405370000000 1.0
C      1  0.4297910000000  0.4415260000000  0.5467470000000 1.0
C      1  0.4823230000000  0.5679530000000  0.4164270000000 1.0
C      1  0.5694600000000  0.4913760000000  0.4196580000000 1.0
C      1  0.4566190000000  0.4474500000000  0.4280680000000 1.0
C      1  0.4562520000000  0.4070970000000  0.4673610000000 1.0
C      1  0.4476320000000  0.5846190000000  0.4721380000000 1.0
C      1  0.5950050000000  0.5042160000000  0.4688240000000 1.0
C      1  0.4397030000000  0.4531870000000  0.4477170000000 1.0
C      1  0.4975920000000  0.5807380000000  0.4361680000000 1.0
C      1  0.5716880000000  0.4706920000000  0.4384620000000 1.0
C      1  0.4377110000000  0.5266170000000  0.4132440000000 1.0
C      1  0.5475050000000  0.5481280000000  0.3950800000000 1.0
C      1  0.5143960000000  0.4283440000000  0.4043920000000 1.0
C      1  0.4254010000000  0.4355490000000  0.5178660000000 1.0
C      1  0.4918710000000  0.5953350000000  0.5100820000000 1.0
C      1  0.5866410000000  0.4654290000000  0.5110520000000 1.0
C      1  0.5640920000000  0.4800920000000  0.5639230000000 1.0
C      1  0.4497630000000  0.4523590000000  0.5682380000000 1.0
C      1  0.4841890000000  0.5745030000000  0.5637350000000 1.0
C      1  0.4185120000000  0.4652090000000  0.5026990000000 1.0
C      1  0.5147780000000  0.5942570000000  0.4925170000000 1.0
C      1  0.5747590000000  0.4452980000000  0.4931460000000 1.0
C      1  0.4801240000000  0.5416930000000  0.5382820000000 1.0
C      1  0.5385980000000  0.4968060000000  0.5380530000000 1.0
C      1  0.4715440000000  0.4601740000000  0.5356710000000 1.0
C      1  0.5393490000000  0.5822650000000  0.4993240000000 1.0
C      1  0.5518840000000  0.4287910000000  0.4981810000000 1.0
C      1  0.4083240000000  0.4935430000000  0.4912130000000 1.0
C      1  0.4907680000000  0.4717270000000  0.5927760000000 1.0
C      1  0.4740250000000  0.5272070000000  0.5873620000000 1.0
C      1  0.5331460000000  0.5069860000000  0.5928960000000 1.0
C      1  0.5384240000000  0.4822130000000  0.5779400000000 1.0
C      1  0.4656270000000  0.4740430000000  0.5780770000000 1.0
C      1  0.4953910000000  0.5468570000000  0.5755960000000 1.0
C      1  0.4828640000000  0.4426160000000  0.5115540000000 1.0
C      1  0.4643020000000  0.5367270000000  0.5120810000000 1.0
C      1  0.5523700000000  0.5090740000000  0.5122490000000 1.0
END
