TITL C-2782232-2968-226 0.000890455143479832 125000 -456.841657841919 0 0 83 (C1) n - 1
REM
REM in /home/nfs/bkarasulu/CARBON/AIRSS/Generating-Clusters/REBO/Higher-Symm/SD-CG/HFTN-CG
REM
REM
REM
REM
REM
REM ./C.cell (12c818d87b63d06a65506943cc24bca4)
REM
REM compiler GCC version 9.2.1 20190827 (Red Hat 9.2.1-1)
REM options -cpp -mtune=generic -march=x86-64 -g -O0 -fpre-include=/usr/include/finclude/math-vector-fortran.h
REM seed -1289915861 -208868846 -1980548034 1239676810 673006186 -1055900961 1197747697 -511153927 -647707869 -562545549 2025056019 -328023685 333838845 77557776 951136573 31693660 -1196928229 1786915190 -836549422 1175190171 1148071554 2046698335 1189675735 -1737771323 -127886067 1112565843 1939643757 -460105574 -1914302438 439808047 1421856398 648938811 -813100637
REM
CELL 1.54180   50.00000   50.00000   50.00000   90.00000   90.00000   90.00000
LATT -1
SFAC C  
C      1  0.4460940000000  0.4698860000000  0.4902250000000 1.0
C      1  0.4483530000000  0.5176640000000  0.5271650000000 1.0
C      1  0.4421560000000  0.5255650000000  0.4720350000000 1.0
C      1  0.5557400000000  0.4662030000000  0.4935920000000 1.0
C      1  0.5441470000000  0.5147330000000  0.5294510000000 1.0
C      1  0.5499470000000  0.5196080000000  0.4725770000000 1.0
C      1  0.5362970000000  0.4849480000000  0.4484780000000 1.0
C      1  0.5455230000000  0.4528470000000  0.5407780000000 1.0
C      1  0.5376780000000  0.5535730000000  0.5154540000000 1.0
C      1  0.4612720000000  0.4911870000000  0.4417430000000 1.0
C      1  0.4615460000000  0.4573460000000  0.5371880000000 1.0
C      1  0.4605040000000  0.5580720000000  0.5219080000000 1.0
C      1  0.5795150000000  0.4874700000000  0.4817900000000 1.0
C      1  0.5753860000000  0.4945150000000  0.5153880000000 1.0
C      1  0.5780200000000  0.5199590000000  0.4923900000000 1.0
C      1  0.4157660000000  0.4928900000000  0.4780440000000 1.0
C      1  0.4199170000000  0.4944310000000  0.5120910000000 1.0
C      1  0.4160070000000  0.5235580000000  0.4940500000000 1.0
C      1  0.5420140000000  0.4465040000000  0.4420570000000 1.0
C      1  0.5403160000000  0.4775660000000  0.5712470000000 1.0
C      1  0.5396290000000  0.5751990000000  0.4825020000000 1.0
C      1  0.4526470000000  0.4529360000000  0.4376150000000 1.0
C      1  0.4583620000000  0.4833840000000  0.5663850000000 1.0
C      1  0.4561500000000  0.5770880000000  0.4878160000000 1.0
C      1  0.4713680000000  0.4746010000000  0.5132600000000 1.0
C      1  0.4731820000000  0.5315490000000  0.5082430000000 1.0
C      1  0.4774060000000  0.4926710000000  0.4695460000000 1.0
C      1  0.5214800000000  0.4698520000000  0.5258340000000 1.0
C      1  0.5190730000000  0.5267060000000  0.5111300000000 1.0
C      1  0.5168100000000  0.4877380000000  0.4735570000000 1.0
C      1  0.4810560000000  0.5146980000000  0.5564110000000 1.0
C      1  0.4825490000000  0.5453460000000  0.4580370000000 1.0
C      1  0.4810820000000  0.4362760000000  0.4745240000000 1.0
C      1  0.5138970000000  0.5103330000000  0.5633160000000 1.0
C      1  0.5130940000000  0.5390860000000  0.4654110000000 1.0
C      1  0.5126000000000  0.4374610000000  0.4820000000000 1.0
C      1  0.4487600000000  0.5288810000000  0.4450410000000 1.0
C      1  0.4527630000000  0.4414170000000  0.5016230000000 1.0
C      1  0.4470170000000  0.5347240000000  0.5510890000000 1.0
C      1  0.5426310000000  0.5238030000000  0.4442900000000 1.0
C      1  0.5461420000000  0.4412860000000  0.5029280000000 1.0
C      1  0.5406020000000  0.5363580000000  0.5509340000000 1.0
C      1  0.4797190000000  0.5746740000000  0.4693620000000 1.0
C      1  0.4789650000000  0.4369310000000  0.4437990000000 1.0
C      1  0.4837040000000  0.4942520000000  0.5834330000000 1.0
C      1  0.5108140000000  0.5701980000000  0.4712580000000 1.0
C      1  0.5124150000000  0.4367980000000  0.4500250000000 1.0
C      1  0.5145750000000  0.4906080000000  0.5888130000000 1.0
C      1  0.5173880000000  0.4303730000000  0.5134550000000 1.0
C      1  0.5085340000000  0.5434730000000  0.5599840000000 1.0
C      1  0.5105160000000  0.5296480000000  0.4341470000000 1.0
C      1  0.4832220000000  0.4330520000000  0.5084860000000 1.0
C      1  0.4743250000000  0.5457550000000  0.5600130000000 1.0
C      1  0.4763000000000  0.5311440000000  0.4301060000000 1.0
C      1  0.5191360000000  0.5810700000000  0.5086620000000 1.0
C      1  0.5207430000000  0.4660290000000  0.4245300000000 1.0
C      1  0.5359600000000  0.4434650000000  0.5720250000000 1.0
C      1  0.4799890000000  0.5831150000000  0.5112390000000 1.0
C      1  0.4770630000000  0.4693010000000  0.4210320000000 1.0
C      1  0.4816380000000  0.4594100000000  0.5640380000000 1.0
C      1  0.4415090000000  0.4855980000000  0.5370670000000 1.0
C      1  0.4390780000000  0.5489530000000  0.4967190000000 1.0
C      1  0.4373630000000  0.4744690000000  0.4591790000000 1.0
C      1  0.5559050000000  0.4853400000000  0.5418620000000 1.0
C      1  0.5579910000000  0.5475750000000  0.4902450000000 1.0
C      1  0.5606870000000  0.4683450000000  0.4605490000000 1.0
C      1  0.5216300000000  0.4280470000000  0.5450950000000 1.0
C      1  0.5189110000000  0.5680200000000  0.5401840000000 1.0
C      1  0.5185330000000  0.4997720000000  0.4234740000000 1.0
C      1  0.4890070000000  0.4363500000000  0.5407630000000 1.0
C      1  0.4850590000000  0.5707720000000  0.5426550000000 1.0
C      1  0.4856600000000  0.5019620000000  0.4199130000000 1.0
C      1  0.5096070000000  0.4960440000000  0.5358620000000 1.0
C      1  0.5120880000000  0.5147090000000  0.4843890000000 1.0
C      1  0.5160530000000  0.4667280000000  0.4969070000000 1.0
C      1  0.4822190000000  0.4980280000000  0.5278590000000 1.0
C      1  0.4809240000000  0.5212670000000  0.4806250000000 1.0
C      1  0.4856640000000  0.4666060000000  0.4868470000000 1.0
C      1  0.4982660000000  0.5538200000000  0.5093000000000 1.0
C      1  0.4976090000000  0.4759420000000  0.4476990000000 1.0
C      1  0.5117030000000  0.4638110000000  0.5588910000000 1.0
C      1  0.5453940000000  0.4985000000000  0.4991440000000 1.0
C      1  0.4493680000000  0.5026960000000  0.4962170000000 1.0
END
