TITL C-2782229-3092-139 -0.000777907658658297 125000 -175.520798994046 0 0 30 (C1) n - 1
REM
REM in /home/nfs/bkarasulu/CARBON/AIRSS/Generating-Clusters/REBO/Higher-Symm/SD-CG/HFTN-CG
REM
REM
REM
REM
REM
REM ./C.cell (12c818d87b63d06a65506943cc24bca4)
REM
REM compiler GCC version 9.2.1 20190827 (Red Hat 9.2.1-1)
REM options -cpp -mtune=generic -march=x86-64 -g -O0 -fpre-include=/usr/include/finclude/math-vector-fortran.h
REM seed -542024821 1922043095 2054852043 107129642 -662279712 -739166015 -410629383 1583781293 1648656596 -1845492643 1285795065 -1503027484 1221741785 11509089 1060309369 -325190049 -1598396836 -407052064 -632008402 1221148757 1982743457 29962644 -1196835178 392829171 848347106 -2014835709 849429652 -389987272 -1167369786 1882782202 -101543328 2117109844 1990990125
REM
CELL 1.54180   50.00000   50.00000   50.00000   90.00000   90.00000   90.00000
LATT -1
SFAC C  
C      1  0.4646450000000  0.5253410000000  0.5342640000000 1.0
C      1  0.4523380000000  0.5189750000000  0.4470610000000 1.0
C      1  0.5594410000000  0.5380890000000  0.4700890000000 1.0
C      1  0.5330910000000  0.5282800000000  0.5626440000000 1.0
C      1  0.4400200000000  0.4749620000000  0.5326510000000 1.0
C      1  0.4612880000000  0.4641770000000  0.4476900000000 1.0
C      1  0.5507640000000  0.4842230000000  0.4496150000000 1.0
C      1  0.5315390000000  0.4720290000000  0.5521520000000 1.0
C      1  0.4413630000000  0.5203590000000  0.5478040000000 1.0
C      1  0.4399940000000  0.5026360000000  0.4286760000000 1.0
C      1  0.5739730000000  0.5260960000000  0.4504200000000 1.0
C      1  0.5426950000000  0.5096260000000  0.5801540000000 1.0
C      1  0.4289250000000  0.4957540000000  0.5468400000000 1.0
C      1  0.4444520000000  0.4753310000000  0.4290000000000 1.0
C      1  0.5710910000000  0.5004470000000  0.4409790000000 1.0
C      1  0.5434110000000  0.4828080000000  0.5742430000000 1.0
C      1  0.4692520000000  0.5138600000000  0.4670470000000 1.0
C      1  0.5408340000000  0.5341220000000  0.4904030000000 1.0
C      1  0.5264890000000  0.5296600000000  0.5355870000000 1.0
C      1  0.4811930000000  0.5123480000000  0.5173830000000 1.0
C      1  0.4756900000000  0.4747860000000  0.4674810000000 1.0
C      1  0.5299740000000  0.4883550000000  0.4653430000000 1.0
C      1  0.5127620000000  0.4787110000000  0.5325800000000 1.0
C      1  0.4642150000000  0.4736320000000  0.5183240000000 1.0
C      1  0.4991110000000  0.4983970000000  0.4694830000000 1.0
C      1  0.4685070000000  0.4939710000000  0.4946280000000 1.0
C      1  0.5224810000000  0.5092570000000  0.4906560000000 1.0
C      1  0.5113820000000  0.5070160000000  0.5201660000000 1.0
C      1  0.5400530000000  0.5458800000000  0.5163470000000 1.0
C      1  0.4887310000000  0.4641600000000  0.5287960000000 1.0
END
