TITL C-2782227-3064-451 -0.00271671968870123 125000 -1034.75821187884 0 0 178 (C1) n - 1
REM
REM in /home/nfs/bkarasulu/CARBON/AIRSS/Generating-Clusters/REBO/Higher-Symm/SD-CG/HFTN-CG
REM
REM
REM
REM
REM
REM ./C.cell (12c818d87b63d06a65506943cc24bca4)
REM
REM compiler GCC version 9.2.1 20190827 (Red Hat 9.2.1-1)
REM options -cpp -mtune=generic -march=x86-64 -g -O0 -fpre-include=/usr/include/finclude/math-vector-fortran.h
REM seed 99692772 1476015344 1673922890 19004982 1222489101 -1575902790 1131431194 2130858601 1655139778 -596528217 -149263075 749086667 1505942732 -1117213349 2027402414 -767163172 1822190162 1264397002 -900866836 -1050289723 -727653137 1920406571 -2124458097 1422535087 733311742 -338642596 275377452 124305273 -1711943239 -1323442644 145200035 1191998249 1647962851
REM
CELL 1.54180   50.00000   50.00000   50.00000   90.00000   90.00000   90.00000
LATT -1
SFAC C  
C      1  0.5138710000000  0.5233940000000  0.5666600000000 1.0
C      1  0.5476280000000  0.4932690000000  0.5427650000000 1.0
C      1  0.4424520000000  0.4384290000000  0.5094700000000 1.0
C      1  0.4450690000000  0.5917690000000  0.5385660000000 1.0
C      1  0.4122490000000  0.5052350000000  0.4800460000000 1.0
C      1  0.5842860000000  0.5022050000000  0.4856800000000 1.0
C      1  0.5467030000000  0.4240170000000  0.5652850000000 1.0
C      1  0.4855930000000  0.5925940000000  0.4521290000000 1.0
C      1  0.5961570000000  0.4508780000000  0.4827740000000 1.0
C      1  0.5967190000000  0.4913140000000  0.4353360000000 1.0
C      1  0.4742400000000  0.5952120000000  0.5282160000000 1.0
C      1  0.4375190000000  0.5114170000000  0.4987890000000 1.0
C      1  0.4877640000000  0.5592670000000  0.4773710000000 1.0
C      1  0.5489880000000  0.5833550000000  0.4550820000000 1.0
C      1  0.4256570000000  0.4430430000000  0.5733160000000 1.0
C      1  0.5145790000000  0.4414240000000  0.4720500000000 1.0
C      1  0.4538090000000  0.4364070000000  0.4245730000000 1.0
C      1  0.5985660000000  0.4849710000000  0.5497610000000 1.0
C      1  0.5219380000000  0.5401920000000  0.5376820000000 1.0
C      1  0.5983660000000  0.5303490000000  0.5302030000000 1.0
C      1  0.4924710000000  0.5496900000000  0.5455360000000 1.0
C      1  0.4646820000000  0.5698130000000  0.5852580000000 1.0
C      1  0.4522900000000  0.4454770000000  0.5813570000000 1.0
C      1  0.5277840000000  0.4666220000000  0.6091630000000 1.0
C      1  0.5034400000000  0.4485620000000  0.4142830000000 1.0
C      1  0.4281010000000  0.4304250000000  0.4801060000000 1.0
C      1  0.4986510000000  0.4636640000000  0.5394080000000 1.0
C      1  0.5326520000000  0.4965970000000  0.5930260000000 1.0
C      1  0.5035690000000  0.4826590000000  0.4965010000000 1.0
C      1  0.5380440000000  0.5424880000000  0.5742050000000 1.0
C      1  0.5554870000000  0.4569020000000  0.5285920000000 1.0
C      1  0.4936930000000  0.3926280000000  0.5210850000000 1.0
C      1  0.5068690000000  0.6042420000000  0.5070130000000 1.0
C      1  0.5095930000000  0.5216970000000  0.4908420000000 1.0
C      1  0.5540380000000  0.4820420000000  0.4115180000000 1.0
C      1  0.4122460000000  0.5573610000000  0.4760320000000 1.0
C      1  0.5197540000000  0.5917630000000  0.4491990000000 1.0
C      1  0.4059250000000  0.4487460000000  0.4974800000000 1.0
C      1  0.5260020000000  0.5428590000000  0.5058110000000 1.0
C      1  0.5203520000000  0.5428890000000  0.6008560000000 1.0
C      1  0.4119600000000  0.5230740000000  0.5982930000000 1.0
C      1  0.4482670000000  0.5186610000000  0.4087660000000 1.0
C      1  0.4789930000000  0.4699720000000  0.4200640000000 1.0
C      1  0.4020080000000  0.4741590000000  0.4873230000000 1.0
C      1  0.5671690000000  0.4644550000000  0.4339850000000 1.0
C      1  0.5244150000000  0.5095300000000  0.5311950000000 1.0
C      1  0.4308780000000  0.5187230000000  0.5803260000000 1.0
C      1  0.5414790000000  0.4494020000000  0.5830450000000 1.0
C      1  0.4610980000000  0.5623960000000  0.4603010000000 1.0
C      1  0.4585130000000  0.5224270000000  0.4594870000000 1.0
C      1  0.4744950000000  0.5154240000000  0.6066180000000 1.0
C      1  0.5236980000000  0.4101140000000  0.4780950000000 1.0
C      1  0.3929030000000  0.5387700000000  0.4900390000000 1.0
C      1  0.5912270000000  0.5578970000000  0.5303880000000 1.0
C      1  0.4550810000000  0.4984100000000  0.5871190000000 1.0
C      1  0.4607960000000  0.5582280000000  0.5533640000000 1.0
C      1  0.5252950000000  0.6063550000000  0.5342780000000 1.0
C      1  0.4632820000000  0.4927320000000  0.4003610000000 1.0
C      1  0.4668610000000  0.5460830000000  0.4069940000000 1.0
C      1  0.5325150000000  0.4779070000000  0.4481980000000 1.0
C      1  0.5153350000000  0.4860840000000  0.4197680000000 1.0
C      1  0.4963460000000  0.5980500000000  0.5493560000000 1.0
C      1  0.5301440000000  0.5561890000000  0.4326100000000 1.0
C      1  0.4665280000000  0.4096550000000  0.5221800000000 1.0
C      1  0.4933580000000  0.4998630000000  0.3977470000000 1.0
C      1  0.4147980000000  0.5071420000000  0.4494650000000 1.0
C      1  0.4160850000000  0.4303520000000  0.5471480000000 1.0
C      1  0.5682310000000  0.5637320000000  0.4404730000000 1.0
C      1  0.4805160000000  0.5223640000000  0.5287520000000 1.0
C      1  0.4491170000000  0.5167630000000  0.5303210000000 1.0
C      1  0.4310020000000  0.5319630000000  0.5534320000000 1.0
C      1  0.4636990000000  0.5441630000000  0.6026610000000 1.0
C      1  0.5382300000000  0.4155250000000  0.5057150000000 1.0
C      1  0.3897350000000  0.5089450000000  0.5417790000000 1.0
C      1  0.4692560000000  0.5714850000000  0.4300280000000 1.0
C      1  0.5789270000000  0.5102690000000  0.4573200000000 1.0
C      1  0.6267290000000  0.4591870000000  0.4875150000000 1.0
C      1  0.4316430000000  0.4712220000000  0.5447550000000 1.0
C      1  0.5980310000000  0.5139040000000  0.5539900000000 1.0
C      1  0.5107840000000  0.4814600000000  0.3804580000000 1.0
C      1  0.4403820000000  0.5530220000000  0.4274930000000 1.0
C      1  0.4888400000000  0.5351270000000  0.4528340000000 1.0
C      1  0.5653520000000  0.4251860000000  0.4518470000000 1.0
C      1  0.5675440000000  0.5742000000000  0.5144490000000 1.0
C      1  0.5694730000000  0.4238020000000  0.5113570000000 1.0
C      1  0.4492890000000  0.4634100000000  0.4045530000000 1.0
C      1  0.5425280000000  0.4806740000000  0.5109230000000 1.0
C      1  0.5062380000000  0.5776830000000  0.4236800000000 1.0
C      1  0.5434130000000  0.4190040000000  0.4343590000000 1.0
C      1  0.4786780000000  0.6090130000000  0.4984480000000 1.0
C      1  0.5870770000000  0.4517370000000  0.5159300000000 1.0
C      1  0.5215630000000  0.4136210000000  0.5574860000000 1.0
C      1  0.5763180000000  0.5072900000000  0.4179110000000 1.0
C      1  0.5539910000000  0.5059940000000  0.5733900000000 1.0
C      1  0.5063960000000  0.4577400000000  0.4463630000000 1.0
C      1  0.4879810000000  0.5135850000000  0.5670320000000 1.0
C      1  0.5977830000000  0.4610640000000  0.4335910000000 1.0
C      1  0.6056950000000  0.5470440000000  0.4820140000000 1.0
C      1  0.5165100000000  0.5725690000000  0.5150530000000 1.0
C      1  0.4661420000000  0.5451440000000  0.5079050000000 1.0
C      1  0.4368680000000  0.4677590000000  0.5139980000000 1.0
C      1  0.5312350000000  0.4984950000000  0.4839580000000 1.0
C      1  0.4696680000000  0.4695610000000  0.5878690000000 1.0
C      1  0.4675200000000  0.5328720000000  0.5716850000000 1.0
C      1  0.5558870000000  0.4331430000000  0.4819020000000 1.0
C      1  0.5405210000000  0.5416310000000  0.4589880000000 1.0
C      1  0.5441220000000  0.5789350000000  0.5324160000000 1.0
C      1  0.4939330000000  0.5049490000000  0.4649350000000 1.0
C      1  0.5068440000000  0.5147270000000  0.6058020000000 1.0
C      1  0.5270810000000  0.4595660000000  0.4902280000000 1.0
C      1  0.5290790000000  0.5304290000000  0.4023470000000 1.0
C      1  0.5503510000000  0.5485370000000  0.4891090000000 1.0
C      1  0.4444630000000  0.4115430000000  0.5455350000000 1.0
C      1  0.4481270000000  0.4945070000000  0.5537450000000 1.0
C      1  0.3988700000000  0.4767560000000  0.5375060000000 1.0
C      1  0.4525350000000  0.5027580000000  0.4374970000000 1.0
C      1  0.5140230000000  0.4765680000000  0.5736390000000 1.0
C      1  0.4045170000000  0.5322960000000  0.5381820000000 1.0
C      1  0.5452600000000  0.5103040000000  0.4550690000000 1.0
C      1  0.4251250000000  0.4549670000000  0.4259930000000 1.0
C      1  0.5556620000000  0.5805670000000  0.4831820000000 1.0
C      1  0.4527760000000  0.4445030000000  0.5414990000000 1.0
C      1  0.3791880000000  0.4949780000000  0.5161490000000 1.0
C      1  0.4342720000000  0.5629000000000  0.5388220000000 1.0
C      1  0.5471140000000  0.5542200000000  0.4041400000000 1.0
C      1  0.4051320000000  0.4470950000000  0.5266370000000 1.0
C      1  0.5196070000000  0.4101790000000  0.4476590000000 1.0
C      1  0.6093400000000  0.4683540000000  0.5299120000000 1.0
C      1  0.4985560000000  0.4237370000000  0.5720150000000 1.0
C      1  0.5005700000000  0.5450150000000  0.4280350000000 1.0
C      1  0.5177280000000  0.4133170000000  0.5276570000000 1.0
C      1  0.4371900000000  0.5578280000000  0.5071200000000 1.0
C      1  0.5909230000000  0.4400160000000  0.4547890000000 1.0
C      1  0.4304830000000  0.4800970000000  0.4443210000000 1.0
C      1  0.4817010000000  0.4268460000000  0.4228820000000 1.0
C      1  0.5644250000000  0.4287040000000  0.5438870000000 1.0
C      1  0.4755610000000  0.4140610000000  0.4701070000000 1.0
C      1  0.5302850000000  0.4583230000000  0.5514180000000 1.0
C      1  0.5370360000000  0.5091870000000  0.4222670000000 1.0
C      1  0.4525200000000  0.4853930000000  0.4992550000000 1.0
C      1  0.4962550000000  0.5306550000000  0.3996430000000 1.0
C      1  0.4930400000000  0.5735070000000  0.5700540000000 1.0
C      1  0.5452540000000  0.5657390000000  0.5612640000000 1.0
C      1  0.5723890000000  0.4756290000000  0.5571450000000 1.0
C      1  0.5778970000000  0.5200880000000  0.5739960000000 1.0
C      1  0.5733410000000  0.4751020000000  0.4892210000000 1.0
C      1  0.5424620000000  0.4290560000000  0.4087490000000 1.0
C      1  0.4849730000000  0.5707770000000  0.5078240000000 1.0
C      1  0.5826940000000  0.5533820000000  0.4917130000000 1.0
C      1  0.5952100000000  0.5165580000000  0.5056840000000 1.0
C      1  0.3829380000000  0.5098950000000  0.4926920000000 1.0
C      1  0.4912090000000  0.4115580000000  0.4441770000000 1.0
C      1  0.4966050000000  0.4089740000000  0.4940090000000 1.0
C      1  0.4563590000000  0.4707720000000  0.4624120000000 1.0
C      1  0.4396400000000  0.5778110000000  0.4803440000000 1.0
C      1  0.4213720000000  0.5255240000000  0.4273120000000 1.0
C      1  0.4079920000000  0.5459800000000  0.5140740000000 1.0
C      1  0.5169270000000  0.5720700000000  0.5903790000000 1.0
C      1  0.4808160000000  0.4392080000000  0.4932770000000 1.0
C      1  0.5725650000000  0.5356650000000  0.4351630000000 1.0
C      1  0.4390740000000  0.4426840000000  0.4548170000000 1.0
C      1  0.4666730000000  0.5984820000000  0.4755220000000 1.0
C      1  0.4348300000000  0.5439780000000  0.4597980000000 1.0
C      1  0.4761480000000  0.5227320000000  0.4885090000000 1.0
C      1  0.5165710000000  0.5579600000000  0.4700760000000 1.0
C      1  0.4791020000000  0.4840510000000  0.5585850000000 1.0
C      1  0.4908600000000  0.4339930000000  0.5246340000000 1.0
C      1  0.4839670000000  0.4810460000000  0.4504370000000 1.0
C      1  0.5270220000000  0.5933600000000  0.5655320000000 1.0
C      1  0.4984030000000  0.4946420000000  0.5250070000000 1.0
C      1  0.4774100000000  0.4690490000000  0.4878840000000 1.0
C      1  0.4973540000000  0.4818490000000  0.6033980000000 1.0
C      1  0.5566310000000  0.4621240000000  0.4638890000000 1.0
C      1  0.4523730000000  0.4112550000000  0.4929720000000 1.0
C      1  0.6319740000000  0.4689440000000  0.5128770000000 1.0
C      1  0.4699170000000  0.4251520000000  0.5640400000000 1.0
C      1  0.5290710000000  0.4630980000000  0.3980120000000 1.0
C      1  0.5081680000000  0.4462170000000  0.5893710000000 1.0
END
