TITL C-2782237-5345-1116 0.00792894854788716 125000 -628.812530187924 0 0 115 (C1) n - 1
REM
REM in /home/nfs/bkarasulu/CARBON/AIRSS/Generating-Clusters/REBO/Higher-Symm/SD-CG/HFTN-CG
REM
REM
REM
REM
REM
REM ./C.cell (12c818d87b63d06a65506943cc24bca4)
REM
REM compiler GCC version 9.2.1 20190827 (Red Hat 9.2.1-1)
REM options -cpp -mtune=generic -march=x86-64 -g -O0 -fpre-include=/usr/include/finclude/math-vector-fortran.h
REM seed 1862240926 1596622719 -1083909187 -870366901 811165398 1884878384 2048862616 1105748795 -1870791258 -2014106500 -2008630164 219276829 1473432229 2041289584 -924358381 -1575585875 1582711413 -2124924871 -1320071089 -340716183 -531553757 -2105007947 -300464887 44133388 -2110012153 2042773113 343501710 695159417 113458692 92527703 411407956 698507412 -1277963451
REM
CELL 1.54180   50.00000   50.00000   50.00000   90.00000   90.00000   90.00000
LATT -1
SFAC C  
C      1  0.5387450000000  0.6140980000000  0.4915360000000 1.0
C      1  0.4646190000000  0.3866880000000  0.4894030000000 1.0
C      1  0.5369670000000  0.3914540000000  0.4874050000000 1.0
C      1  0.4574800000000  0.6096200000000  0.4956660000000 1.0
C      1  0.6118840000000  0.4888410000000  0.4583400000000 1.0
C      1  0.3933590000000  0.5116250000000  0.4489830000000 1.0
C      1  0.6095200000000  0.5141080000000  0.4560150000000 1.0
C      1  0.3899270000000  0.4868700000000  0.4535210000000 1.0
C      1  0.4743560000000  0.4127730000000  0.4712360000000 1.0
C      1  0.5254860000000  0.5894140000000  0.4739050000000 1.0
C      1  0.4721550000000  0.5882020000000  0.4751290000000 1.0
C      1  0.5241500000000  0.4156360000000  0.4684670000000 1.0
C      1  0.5363260000000  0.4835460000000  0.5364800000000 1.0
C      1  0.4649010000000  0.5171070000000  0.5392970000000 1.0
C      1  0.5352020000000  0.5159160000000  0.5387740000000 1.0
C      1  0.4643540000000  0.4849220000000  0.5360530000000 1.0
C      1  0.5261990000000  0.4655940000000  0.5870060000000 1.0
C      1  0.4718570000000  0.5413010000000  0.5881890000000 1.0
C      1  0.5274910000000  0.5389570000000  0.5884270000000 1.0
C      1  0.4720650000000  0.4674860000000  0.5861880000000 1.0
C      1  0.5533840000000  0.5453010000000  0.5587080000000 1.0
C      1  0.4458450000000  0.4574800000000  0.5579240000000 1.0
C      1  0.5524430000000  0.4549610000000  0.5589730000000 1.0
C      1  0.4475370000000  0.5481640000000  0.5572980000000 1.0
C      1  0.5647130000000  0.5380120000000  0.4879330000000 1.0
C      1  0.4343380000000  0.4598340000000  0.4890920000000 1.0
C      1  0.5634210000000  0.4597640000000  0.4869890000000 1.0
C      1  0.4373270000000  0.5376910000000  0.4823850000000 1.0
C      1  0.5427480000000  0.5164180000000  0.5721830000000 1.0
C      1  0.4560680000000  0.4885940000000  0.5681740000000 1.0
C      1  0.5431550000000  0.4861490000000  0.5693710000000 1.0
C      1  0.4559880000000  0.5189490000000  0.5721860000000 1.0
C      1  0.4137640000000  0.4746360000000  0.4670040000000 1.0
C      1  0.5843800000000  0.5249270000000  0.4639910000000 1.0
C      1  0.4198580000000  0.5213260000000  0.4592520000000 1.0
C      1  0.5875400000000  0.4750960000000  0.4682230000000 1.0
C      1  0.4392050000000  0.6270100000000  0.5000070000000 1.0
C      1  0.5520110000000  0.3708460000000  0.4895310000000 1.0
C      1  0.4513800000000  0.3648740000000  0.4913810000000 1.0
C      1  0.5550200000000  0.6337710000000  0.4932710000000 1.0
C      1  0.5189450000000  0.4730390000000  0.5107880000000 1.0
C      1  0.4802550000000  0.5225090000000  0.5094750000000 1.0
C      1  0.5184270000000  0.5255470000000  0.5106550000000 1.0
C      1  0.4791560000000  0.4766590000000  0.5095900000000 1.0
C      1  0.4766800000000  0.4707590000000  0.4593320000000 1.0
C      1  0.5216910000000  0.5226830000000  0.4569640000000 1.0
C      1  0.4764430000000  0.5241400000000  0.4565350000000 1.0
C      1  0.5164630000000  0.4696070000000  0.4556110000000 1.0
C      1  0.4566260000000  0.4535090000000  0.4373310000000 1.0
C      1  0.5309920000000  0.5456080000000  0.4331570000000 1.0
C      1  0.4687740000000  0.5466470000000  0.4320770000000 1.0
C      1  0.5423560000000  0.4628670000000  0.4368350000000 1.0
C      1  0.4696440000000  0.5393540000000  0.4857660000000 1.0
C      1  0.5308430000000  0.4609670000000  0.4849630000000 1.0
C      1  0.4667490000000  0.4599380000000  0.4877880000000 1.0
C      1  0.5324540000000  0.5381120000000  0.4846960000000 1.0
C      1  0.4518200000000  0.5460180000000  0.5241500000000 1.0
C      1  0.5503460000000  0.4539880000000  0.5257370000000 1.0
C      1  0.4481440000000  0.4566630000000  0.5244970000000 1.0
C      1  0.5495610000000  0.5443890000000  0.5257270000000 1.0
C      1  0.5697610000000  0.4526010000000  0.4537230000000 1.0
C      1  0.4386000000000  0.5443880000000  0.4479910000000 1.0
C      1  0.5576960000000  0.5397940000000  0.4537160000000 1.0
C      1  0.4290080000000  0.4484060000000  0.4565950000000 1.0
C      1  0.5270980000000  0.5623670000000  0.5441930000000 1.0
C      1  0.4724370000000  0.4410750000000  0.5429310000000 1.0
C      1  0.5254860000000  0.4392280000000  0.5440050000000 1.0
C      1  0.4746750000000  0.5637780000000  0.5430590000000 1.0
C      1  0.4844210000000  0.4093730000000  0.5029940000000 1.0
C      1  0.5156860000000  0.5948410000000  0.5052240000000 1.0
C      1  0.4834660000000  0.5923200000000  0.5064940000000 1.0
C      1  0.5163190000000  0.4131690000000  0.5014670000000 1.0
C      1  0.5739810000000  0.5247190000000  0.5406200000000 1.0
C      1  0.4253080000000  0.4780330000000  0.5397110000000 1.0
C      1  0.5746220000000  0.4737370000000  0.5407820000000 1.0
C      1  0.4264180000000  0.5275570000000  0.5400520000000 1.0
C      1  0.4265870000000  0.4863650000000  0.5086840000000 1.0
C      1  0.5729470000000  0.5159720000000  0.5102950000000 1.0
C      1  0.4294130000000  0.5203100000000  0.5081560000000 1.0
C      1  0.5739380000000  0.4818860000000  0.5098870000000 1.0
C      1  0.4865250000000  0.5581790000000  0.5724550000000 1.0
C      1  0.5126210000000  0.4469440000000  0.5722390000000 1.0
C      1  0.4848530000000  0.4480100000000  0.5717180000000 1.0
C      1  0.5143370000000  0.5571220000000  0.5728510000000 1.0
C      1  0.5408380000000  0.4387860000000  0.4617750000000 1.0
C      1  0.4623220000000  0.5617000000000  0.4625390000000 1.0
C      1  0.5362170000000  0.5634880000000  0.4622340000000 1.0
C      1  0.4578660000000  0.4363870000000  0.4669860000000 1.0
C      1  0.5811800000000  0.4994090000000  0.5537270000000 1.0
C      1  0.4185220000000  0.5028840000000  0.5531300000000 1.0
C      1  0.5506810000000  0.5112200000000  0.4294340000000 1.0
C      1  0.4488100000000  0.5121520000000  0.4302320000000 1.0
C      1  0.4995770000000  0.5488790000000  0.4568860000000 1.0
C      1  0.4957760000000  0.4478130000000  0.4421210000000 1.0
C      1  0.5321890000000  0.4918630000000  0.4265770000000 1.0
C      1  0.4717960000000  0.5010630000000  0.4242260000000 1.0
C      1  0.4997990000000  0.5336500000000  0.4256270000000 1.0
C      1  0.4813500000000  0.4710000000000  0.4216460000000 1.0
C      1  0.4993460000000  0.4286760000000  0.5267500000000 1.0
C      1  0.5025490000000  0.5745830000000  0.5285010000000 1.0
C      1  0.5340740000000  0.4995570000000  0.4945480000000 1.0
C      1  0.4674820000000  0.4997530000000  0.4868860000000 1.0
C      1  0.4988980000000  0.5775850000000  0.4623130000000 1.0
C      1  0.4981300000000  0.4196220000000  0.4536660000000 1.0
C      1  0.5639730000000  0.4990050000000  0.4804320000000 1.0
C      1  0.4364220000000  0.4981010000000  0.4779990000000 1.0
C      1  0.5048100000000  0.4989670000000  0.3862840000000 1.0
C      1  0.5012020000000  0.4988240000000  0.6107710000000 1.0
C      1  0.5010420000000  0.4989490000000  0.5841410000000 1.0
C      1  0.5035120000000  0.5013770000000  0.4150810000000 1.0
C      1  0.5013600000000  0.4987020000000  0.6369770000000 1.0
C      1  0.4977400000000  0.4981750000000  0.4559460000000 1.0
C      1  0.5008830000000  0.4990720000000  0.5577500000000 1.0
C      1  0.5007020000000  0.4992120000000  0.5276520000000 1.0
C      1  0.5017720000000  0.4979070000000  0.4876950000000 1.0
END
