TITL C-2782236-320-293 -0.0496494901067747 125000 -279.428167051985 0 0 49 (C1) n - 1
REM
REM in /home/nfs/bkarasulu/CARBON/AIRSS/Generating-Clusters/REBO/Higher-Symm/SD-CG/HFTN-CG
REM
REM
REM
REM
REM
REM ./C.cell (12c818d87b63d06a65506943cc24bca4)
REM
REM compiler GCC version 9.2.1 20190827 (Red Hat 9.2.1-1)
REM options -cpp -mtune=generic -march=x86-64 -g -O0 -fpre-include=/usr/include/finclude/math-vector-fortran.h
REM seed 2059624572 -1648427153 -279976713 -1000802873 -31718809 -1692735822 -233003294 -1881990029 428908472 1523432860 177768130 1239779515 475907171 410536498 215935763 -1819511369 -582867882 69738914 1981145221 -1623558125 1352927337 1085476853 1297807604 448120799 2135669736 738171872 -1959041476 717225199 807142893 1386603658 -320581334 -470786010 1505240851
REM
CELL 1.54180   50.00000   50.00000   50.00000   90.00000   90.00000   90.00000
LATT -1
SFAC C  
C      1  0.5117410000000  0.5070900000000  0.5642920000000 1.0
C      1  0.4604790000000  0.4358800000000  0.4697680000000 1.0
C      1  0.4643970000000  0.3970390000000  0.5226890000000 1.0
C      1  0.4639260000000  0.4219000000000  0.5002300000000 1.0
C      1  0.4928390000000  0.5566380000000  0.4919200000000 1.0
C      1  0.4589080000000  0.5377680000000  0.5285500000000 1.0
C      1  0.5336730000000  0.5449060000000  0.5289000000000 1.0
C      1  0.5062060000000  0.4407770000000  0.4766340000000 1.0
C      1  0.5118610000000  0.5418800000000  0.4427880000000 1.0
C      1  0.4464800000000  0.5514910000000  0.5024160000000 1.0
C      1  0.5074270000000  0.5550680000000  0.5427120000000 1.0
C      1  0.5426170000000  0.5396050000000  0.4490100000000 1.0
C      1  0.4953300000000  0.5561610000000  0.4584800000000 1.0
C      1  0.4858380000000  0.5580640000000  0.5233930000000 1.0
C      1  0.4930930000000  0.3988000000000  0.5144920000000 1.0
C      1  0.5608840000000  0.5383740000000  0.5258260000000 1.0
C      1  0.5019110000000  0.4910490000000  0.4419330000000 1.0
C      1  0.4637920000000  0.5465800000000  0.4810740000000 1.0
C      1  0.4552810000000  0.4909520000000  0.4633370000000 1.0
C      1  0.5013920000000  0.4642430000000  0.5145420000000 1.0
C      1  0.4841770000000  0.4492460000000  0.4595840000000 1.0
C      1  0.5658330000000  0.5136470000000  0.5117320000000 1.0
C      1  0.5272500000000  0.4881820000000  0.4761330000000 1.0
C      1  0.5348910000000  0.4662660000000  0.5214940000000 1.0
C      1  0.4793520000000  0.4766760000000  0.4514540000000 1.0
C      1  0.5058360000000  0.5354600000000  0.5647650000000 1.0
C      1  0.4769740000000  0.4762190000000  0.5023400000000 1.0
C      1  0.4310580000000  0.4965680000000  0.5078200000000 1.0
C      1  0.4977400000000  0.4201050000000  0.4935420000000 1.0
C      1  0.5629320000000  0.5180200000000  0.4831940000000 1.0
C      1  0.4412110000000  0.5088340000000  0.5312270000000 1.0
C      1  0.4637460000000  0.5196240000000  0.4721900000000 1.0
C      1  0.4683740000000  0.5016830000000  0.5428620000000 1.0
C      1  0.5256540000000  0.5106830000000  0.4432000000000 1.0
C      1  0.4872560000000  0.5184330000000  0.5260960000000 1.0
C      1  0.4826670000000  0.5016580000000  0.4901160000000 1.0
C      1  0.4404990000000  0.4801920000000  0.4865340000000 1.0
C      1  0.5106630000000  0.4719600000000  0.5453490000000 1.0
C      1  0.4871240000000  0.4884810000000  0.5604260000000 1.0
C      1  0.5144260000000  0.5215410000000  0.5223250000000 1.0
C      1  0.5588370000000  0.5691090000000  0.4891860000000 1.0
C      1  0.5173610000000  0.5365650000000  0.4854390000000 1.0
C      1  0.5242870000000  0.4621800000000  0.4902160000000 1.0
C      1  0.5483460000000  0.5456650000000  0.4792450000000 1.0
C      1  0.4532150000000  0.4537200000000  0.4964730000000 1.0
C      1  0.5510650000000  0.5002640000000  0.4639080000000 1.0
C      1  0.5552790000000  0.4914500000000  0.5259550000000 1.0
C      1  0.5359360000000  0.4943770000000  0.5495130000000 1.0
C      1  0.5099380000000  0.5089250000000  0.4846950000000 1.0
END
