TITL C-2782227-3064-1145 0.0110468926237694 125000 -811.295090390281 0 0 140 (C1) n - 1
REM
REM in /home/nfs/bkarasulu/CARBON/AIRSS/Generating-Clusters/REBO/Higher-Symm/SD-CG/HFTN-CG
REM
REM
REM
REM
REM
REM ./C.cell (12c818d87b63d06a65506943cc24bca4)
REM
REM compiler GCC version 9.2.1 20190827 (Red Hat 9.2.1-1)
REM options -cpp -mtune=generic -march=x86-64 -g -O0 -fpre-include=/usr/include/finclude/math-vector-fortran.h
REM seed -168877480 2054984235 -62952044 -1429978021 1277474981 1597313344 -291862148 -901573635 1012443204 323797911 1237997556 -13774404 -1400338408 -1811368964 -599718015 -927519979 1286759159 1670305077 -913625705 -1382427093 959989037 516523116 215324770 1396690005 663466265 1251170888 560957509 1972089862 299813827 -728271968 1327726886 1655337199 1946997209
REM
CELL 1.54180   50.00000   50.00000   50.00000   90.00000   90.00000   90.00000
LATT -1
SFAC C  
C      1  0.5600250000000  0.5446840000000  0.5079230000000 1.0
C      1  0.4347660000000  0.4543350000000  0.4929910000000 1.0
C      1  0.4077280000000  0.5079060000000  0.5569820000000 1.0
C      1  0.5885510000000  0.4849570000000  0.4464150000000 1.0
C      1  0.5336740000000  0.3929520000000  0.4719780000000 1.0
C      1  0.4740910000000  0.6034600000000  0.5258320000000 1.0
C      1  0.5495510000000  0.5813570000000  0.4745020000000 1.0
C      1  0.4479180000000  0.4178870000000  0.5260510000000 1.0
C      1  0.4579420000000  0.4828380000000  0.4214690000000 1.0
C      1  0.5462010000000  0.5283990000000  0.5776800000000 1.0
C      1  0.4139680000000  0.4565470000000  0.4492470000000 1.0
C      1  0.5806490000000  0.5528150000000  0.5411410000000 1.0
C      1  0.4168020000000  0.5217110000000  0.5269840000000 1.0
C      1  0.5509110000000  0.4704510000000  0.4726930000000 1.0
C      1  0.4846170000000  0.4613470000000  0.4202570000000 1.0
C      1  0.5288590000000  0.5539070000000  0.5873250000000 1.0
C      1  0.4997870000000  0.4788220000000  0.4463420000000 1.0
C      1  0.4986740000000  0.5301170000000  0.5542860000000 1.0
C      1  0.5255900000000  0.4507150000000  0.5888250000000 1.0
C      1  0.4821380000000  0.5348660000000  0.4136320000000 1.0
C      1  0.4110760000000  0.4663130000000  0.4756550000000 1.0
C      1  0.5840550000000  0.5265820000000  0.5238680000000 1.0
C      1  0.4684090000000  0.5552700000000  0.5481750000000 1.0
C      1  0.5448150000000  0.4518130000000  0.4526500000000 1.0
C      1  0.4393120000000  0.4460160000000  0.4435580000000 1.0
C      1  0.5542620000000  0.5576530000000  0.5451830000000 1.0
C      1  0.5325600000000  0.5627270000000  0.6134560000000 1.0
C      1  0.4825300000000  0.4573240000000  0.3887060000000 1.0
C      1  0.3999590000000  0.4898220000000  0.4857500000000 1.0
C      1  0.5960470000000  0.5025200000000  0.5397640000000 1.0
C      1  0.4299040000000  0.5540610000000  0.5583610000000 1.0
C      1  0.5843940000000  0.4554590000000  0.4520690000000 1.0
C      1  0.4956190000000  0.3976610000000  0.5020940000000 1.0
C      1  0.4978370000000  0.5989450000000  0.5072300000000 1.0
C      1  0.5477400000000  0.5515080000000  0.4481300000000 1.0
C      1  0.4472180000000  0.4487940000000  0.5514050000000 1.0
C      1  0.4922300000000  0.4166370000000  0.5504290000000 1.0
C      1  0.5044920000000  0.5842870000000  0.4526480000000 1.0
C      1  0.4548840000000  0.5145850000000  0.4116180000000 1.0
C      1  0.5411220000000  0.4770900000000  0.5901990000000 1.0
C      1  0.4646720000000  0.4369260000000  0.4311260000000 1.0
C      1  0.5387280000000  0.5721230000000  0.5627540000000 1.0
C      1  0.5027600000000  0.4907960000000  0.5184690000000 1.0
C      1  0.5184440000000  0.5199670000000  0.4814010000000 1.0
C      1  0.5567400000000  0.4088600000000  0.4758750000000 1.0
C      1  0.4469420000000  0.5932460000000  0.5161090000000 1.0
C      1  0.5503680000000  0.4344290000000  0.4930530000000 1.0
C      1  0.4438300000000  0.5641200000000  0.5102500000000 1.0
C      1  0.4433180000000  0.4792340000000  0.5623820000000 1.0
C      1  0.5539330000000  0.5204870000000  0.4355060000000 1.0
C      1  0.4128820000000  0.4834490000000  0.5370990000000 1.0
C      1  0.5827780000000  0.5126680000000  0.4617070000000 1.0
C      1  0.4885040000000  0.5841270000000  0.4823700000000 1.0
C      1  0.5104560000000  0.4160600000000  0.5214690000000 1.0
C      1  0.4793990000000  0.4131340000000  0.4786350000000 1.0
C      1  0.5193710000000  0.5858740000000  0.5200120000000 1.0
C      1  0.5686000000000  0.5589830000000  0.4813810000000 1.0
C      1  0.4271440000000  0.4383150000000  0.5185110000000 1.0
C      1  0.5347490000000  0.4583440000000  0.4092140000000 1.0
C      1  0.4704520000000  0.5444120000000  0.5944740000000 1.0
C      1  0.5317400000000  0.4811000000000  0.3911580000000 1.0
C      1  0.4713210000000  0.5189600000000  0.6108510000000 1.0
C      1  0.5331990000000  0.4283370000000  0.4500720000000 1.0
C      1  0.4647320000000  0.5703700000000  0.5743510000000 1.0
C      1  0.4717840000000  0.5138640000000  0.4857010000000 1.0
C      1  0.5431050000000  0.4737360000000  0.5016870000000 1.0
C      1  0.4909210000000  0.5341110000000  0.4959820000000 1.0
C      1  0.5112230000000  0.4651210000000  0.4996130000000 1.0
C      1  0.5084940000000  0.4005880000000  0.4645960000000 1.0
C      1  0.4781850000000  0.5716570000000  0.5286600000000 1.0
C      1  0.5656300000000  0.4689370000000  0.5240210000000 1.0
C      1  0.4397150000000  0.5165070000000  0.4752230000000 1.0
C      1  0.4937570000000  0.5813490000000  0.5645060000000 1.0
C      1  0.5080590000000  0.4154490000000  0.4346350000000 1.0
C      1  0.5763330000000  0.4364440000000  0.4717320000000 1.0
C      1  0.4280590000000  0.5498360000000  0.5295980000000 1.0
C      1  0.4865080000000  0.4810000000000  0.5867940000000 1.0
C      1  0.5171750000000  0.5255570000000  0.3969310000000 1.0
C      1  0.5652480000000  0.4769390000000  0.5727580000000 1.0
C      1  0.4312560000000  0.5264350000000  0.4260460000000 1.0
C      1  0.4902600000000  0.5050810000000  0.4276490000000 1.0
C      1  0.5145270000000  0.5063440000000  0.5636490000000 1.0
C      1  0.5177790000000  0.5860000000000  0.5491090000000 1.0
C      1  0.4787730000000  0.4176210000000  0.4460510000000 1.0
C      1  0.4943040000000  0.5019990000000  0.6068420000000 1.0
C      1  0.5094950000000  0.4994900000000  0.3887720000000 1.0
C      1  0.5215120000000  0.5042980000000  0.4523830000000 1.0
C      1  0.4675300000000  0.5222030000000  0.5467690000000 1.0
C      1  0.4728520000000  0.4927490000000  0.5606400000000 1.0
C      1  0.5245970000000  0.5249100000000  0.4272770000000 1.0
C      1  0.4369550000000  0.5353100000000  0.4531570000000 1.0
C      1  0.5638310000000  0.4561760000000  0.5519230000000 1.0
C      1  0.5578170000000  0.4942710000000  0.3919240000000 1.0
C      1  0.4462720000000  0.5065610000000  0.6085700000000 1.0
C      1  0.5613320000000  0.4629600000000  0.4272900000000 1.0
C      1  0.4417490000000  0.5379910000000  0.5775000000000 1.0
C      1  0.5072260000000  0.5236680000000  0.5219800000000 1.0
C      1  0.4914050000000  0.4660960000000  0.4737770000000 1.0
C      1  0.5953640000000  0.4801090000000  0.5233500000000 1.0
C      1  0.4024240000000  0.5105200000000  0.5025950000000 1.0
C      1  0.5593840000000  0.5026370000000  0.5238740000000 1.0
C      1  0.4452350000000  0.4843770000000  0.4858290000000 1.0
C      1  0.5075110000000  0.5461760000000  0.4430680000000 1.0
C      1  0.4846590000000  0.4619800000000  0.5519540000000 1.0
C      1  0.4772320000000  0.4856130000000  0.4978590000000 1.0
C      1  0.5364580000000  0.5061120000000  0.5010770000000 1.0
C      1  0.4989820000000  0.5507230000000  0.5770880000000 1.0
C      1  0.5129580000000  0.4432720000000  0.4190060000000 1.0
C      1  0.4627480000000  0.4542670000000  0.4668090000000 1.0
C      1  0.5355650000000  0.5351790000000  0.5280820000000 1.0
C      1  0.4063650000000  0.5281240000000  0.4142510000000 1.0
C      1  0.5845850000000  0.4975240000000  0.5659780000000 1.0
C      1  0.5243560000000  0.4137210000000  0.5507470000000 1.0
C      1  0.4714170000000  0.5844120000000  0.4550110000000 1.0
C      1  0.4761640000000  0.5375540000000  0.4460290000000 1.0
C      1  0.5248560000000  0.4622060000000  0.5545190000000 1.0
C      1  0.4419140000000  0.5031360000000  0.5379000000000 1.0
C      1  0.5531550000000  0.4970680000000  0.4602700000000 1.0
C      1  0.4793640000000  0.4951310000000  0.3973380000000 1.0
C      1  0.5215680000000  0.4997010000000  0.5906590000000 1.0
C      1  0.4554140000000  0.5607520000000  0.4537120000000 1.0
C      1  0.5415270000000  0.4354920000000  0.5556030000000 1.0
C      1  0.4314240000000  0.5065240000000  0.5792930000000 1.0
C      1  0.5692090000000  0.4957010000000  0.4217740000000 1.0
C      1  0.5158740000000  0.4860220000000  0.5454950000000 1.0
C      1  0.4723730000000  0.5072120000000  0.4546080000000 1.0
C      1  0.5070360000000  0.5553740000000  0.4096380000000 1.0
C      1  0.4965870000000  0.4533790000000  0.5810330000000 1.0
C      1  0.4613410000000  0.4332230000000  0.4985550000000 1.0
C      1  0.5346870000000  0.5667890000000  0.5008050000000 1.0
C      1  0.4648730000000  0.4195770000000  0.5509600000000 1.0
C      1  0.5323900000000  0.5823490000000  0.4500610000000 1.0
C      1  0.5258860000000  0.4380060000000  0.5061540000000 1.0
C      1  0.4764060000000  0.5599630000000  0.4994570000000 1.0
C      1  0.4176100000000  0.4563390000000  0.5397520000000 1.0
C      1  0.5779290000000  0.5405540000000  0.4602370000000 1.0
C      1  0.5509080000000  0.5185440000000  0.5525900000000 1.0
C      1  0.4516590000000  0.4829770000000  0.4523530000000 1.0
C      1  0.5240370000000  0.5506320000000  0.4726640000000 1.0
C      1  0.4709300000000  0.4503360000000  0.5264800000000 1.0
END
