TITL C-2782237-5345-1165 0.00475890294304655 125000 -890.890845604121 0 0 152 (C1) n - 1
REM
REM in /home/nfs/bkarasulu/CARBON/AIRSS/Generating-Clusters/REBO/Higher-Symm/SD-CG/HFTN-CG
REM
REM
REM
REM
REM
REM ./C.cell (12c818d87b63d06a65506943cc24bca4)
REM
REM compiler GCC version 9.2.1 20190827 (Red Hat 9.2.1-1)
REM options -cpp -mtune=generic -march=x86-64 -g -O0 -fpre-include=/usr/include/finclude/math-vector-fortran.h
REM seed -175712271 1287385660 1586847708 -904328851 -385975867 -135200165 -882547824 374711004 -1707457590 1141053594 -352760655 -1429101008 -1060778878 -1423198705 -1529159932 -2142208677 1955415597 681685517 813555046 2066969679 409787205 1993852481 -456000695 1189671262 686975347 888521876 -2006443270 -995448508 -2001176261 1951955308 -389147205 1895008081 -509956719
REM
CELL 1.54180   50.00000   50.00000   50.00000   90.00000   90.00000   90.00000
LATT -1
SFAC C  
C      1  0.5033610000000  0.4523660000000  0.4261200000000 1.0
C      1  0.4346350000000  0.4148080000000  0.5083590000000 1.0
C      1  0.5279210000000  0.4310570000000  0.4154490000000 1.0
C      1  0.4092960000000  0.4368170000000  0.5010630000000 1.0
C      1  0.4764030000000  0.4331220000000  0.4243040000000 1.0
C      1  0.4062020000000  0.4576680000000  0.5428450000000 1.0
C      1  0.4160520000000  0.4359610000000  0.4709340000000 1.0
C      1  0.5055240000000  0.6056410000000  0.4627220000000 1.0
C      1  0.5205090000000  0.4993670000000  0.4460620000000 1.0
C      1  0.4489100000000  0.5845770000000  0.4708230000000 1.0
C      1  0.4128730000000  0.5085980000000  0.5356690000000 1.0
C      1  0.5190770000000  0.5375140000000  0.5339660000000 1.0
C      1  0.4875670000000  0.5523320000000  0.4934960000000 1.0
C      1  0.4488740000000  0.4825640000000  0.4833430000000 1.0
C      1  0.5463390000000  0.4162080000000  0.5247390000000 1.0
C      1  0.3926180000000  0.4890360000000  0.4905310000000 1.0
C      1  0.5857820000000  0.5442120000000  0.4779530000000 1.0
C      1  0.5150410000000  0.5342680000000  0.4845220000000 1.0
C      1  0.5291600000000  0.5802580000000  0.5027030000000 1.0
C      1  0.4429420000000  0.5615790000000  0.4074600000000 1.0
C      1  0.4781220000000  0.5185300000000  0.4119660000000 1.0
C      1  0.4836960000000  0.4425370000000  0.4752730000000 1.0
C      1  0.5246490000000  0.5529090000000  0.5081750000000 1.0
C      1  0.4077830000000  0.5054620000000  0.4671720000000 1.0
C      1  0.4510510000000  0.5319810000000  0.4743580000000 1.0
C      1  0.4871240000000  0.6127320000000  0.4865450000000 1.0
C      1  0.4613100000000  0.4699090000000  0.5497590000000 1.0
C      1  0.4423980000000  0.5790060000000  0.5338430000000 1.0
C      1  0.3861900000000  0.5168290000000  0.4988210000000 1.0
C      1  0.4987840000000  0.4750430000000  0.4481940000000 1.0
C      1  0.5200690000000  0.5046090000000  0.5900210000000 1.0
C      1  0.4659900000000  0.4934180000000  0.5964000000000 1.0
C      1  0.4662110000000  0.5397300000000  0.5472650000000 1.0
C      1  0.4699270000000  0.4239670000000  0.5682580000000 1.0
C      1  0.5325010000000  0.4081860000000  0.4963540000000 1.0
C      1  0.5044950000000  0.3968980000000  0.5002480000000 1.0
C      1  0.4168820000000  0.5274090000000  0.5701120000000 1.0
C      1  0.4916210000000  0.5137410000000  0.4410860000000 1.0
C      1  0.5091680000000  0.5247340000000  0.4069890000000 1.0
C      1  0.4745860000000  0.4267490000000  0.5028810000000 1.0
C      1  0.4649970000000  0.5958600000000  0.5534580000000 1.0
C      1  0.5743950000000  0.4361190000000  0.4816540000000 1.0
C      1  0.4673980000000  0.4269130000000  0.5277950000000 1.0
C      1  0.4873220000000  0.5277950000000  0.5340800000000 1.0
C      1  0.5863990000000  0.5354740000000  0.5276130000000 1.0
C      1  0.5377170000000  0.5788480000000  0.5648920000000 1.0
C      1  0.4693990000000  0.4931550000000  0.3994730000000 1.0
C      1  0.4839470000000  0.4723810000000  0.5918970000000 1.0
C      1  0.5393140000000  0.4497270000000  0.4486150000000 1.0
C      1  0.4802050000000  0.4030980000000  0.4789620000000 1.0
C      1  0.5831520000000  0.5630480000000  0.5376820000000 1.0
C      1  0.4924540000000  0.4719530000000  0.5363690000000 1.0
C      1  0.5181750000000  0.5614720000000  0.5781360000000 1.0
C      1  0.3977180000000  0.4729190000000  0.5637860000000 1.0
C      1  0.5013000000000  0.4062210000000  0.5267860000000 1.0
C      1  0.5176740000000  0.5052660000000  0.5573770000000 1.0
C      1  0.5166620000000  0.5450370000000  0.4519790000000 1.0
C      1  0.4318350000000  0.4436660000000  0.5253650000000 1.0
C      1  0.4362690000000  0.5325720000000  0.5422170000000 1.0
C      1  0.5320930000000  0.5899090000000  0.4764510000000 1.0
C      1  0.6191920000000  0.4550030000000  0.5082140000000 1.0
C      1  0.4005780000000  0.5013980000000  0.5640510000000 1.0
C      1  0.5384370000000  0.4781460000000  0.5555640000000 1.0
C      1  0.4895160000000  0.4902310000000  0.4752930000000 1.0
C      1  0.4518340000000  0.5099930000000  0.5784210000000 1.0
C      1  0.4556450000000  0.5030120000000  0.5014440000000 1.0
C      1  0.4674420000000  0.5109290000000  0.4616500000000 1.0
C      1  0.5475760000000  0.5362280000000  0.5512660000000 1.0
C      1  0.5198590000000  0.4218570000000  0.4459200000000 1.0
C      1  0.4245630000000  0.4884770000000  0.4521640000000 1.0
C      1  0.5821100000000  0.4604480000000  0.5503300000000 1.0
C      1  0.5123210000000  0.4781470000000  0.5974890000000 1.0
C      1  0.5400860000000  0.5055420000000  0.4726680000000 1.0
C      1  0.5588810000000  0.5630420000000  0.5529190000000 1.0
C      1  0.4711590000000  0.4594280000000  0.4035890000000 1.0
C      1  0.4642880000000  0.4616080000000  0.4637350000000 1.0
C      1  0.6202850000000  0.4841250000000  0.4690040000000 1.0
C      1  0.5288810000000  0.6002310000000  0.5487600000000 1.0
C      1  0.5556650000000  0.4492390000000  0.4121450000000 1.0
C      1  0.4477560000000  0.4036460000000  0.4845520000000 1.0
C      1  0.4303990000000  0.5653740000000  0.4819980000000 1.0
C      1  0.6329070000000  0.4679830000000  0.4883250000000 1.0
C      1  0.4307240000000  0.4135340000000  0.4633070000000 1.0
C      1  0.4980760000000  0.6161570000000  0.5137360000000 1.0
C      1  0.4540740000000  0.5657070000000  0.5631180000000 1.0
C      1  0.5475180000000  0.4943730000000  0.5183340000000 1.0
C      1  0.4275140000000  0.4617880000000  0.4662380000000 1.0
C      1  0.4579210000000  0.4643210000000  0.5176880000000 1.0
C      1  0.5347540000000  0.4535280000000  0.5332610000000 1.0
C      1  0.5466740000000  0.4218230000000  0.5544970000000 1.0
C      1  0.4608390000000  0.5449030000000  0.4976190000000 1.0
C      1  0.5074610000000  0.5062810000000  0.4956960000000 1.0
C      1  0.5298820000000  0.4595470000000  0.5805440000000 1.0
C      1  0.5665970000000  0.4649730000000  0.4367790000000 1.0
C      1  0.4572320000000  0.4454030000000  0.5673160000000 1.0
C      1  0.5732900000000  0.5435900000000  0.4542590000000 1.0
C      1  0.4441480000000  0.5400790000000  0.5805130000000 1.0
C      1  0.4518370000000  0.6057960000000  0.5174710000000 1.0
C      1  0.4808640000000  0.5102220000000  0.5127870000000 1.0
C      1  0.5214680000000  0.4947950000000  0.3963780000000 1.0
C      1  0.4859570000000  0.4710020000000  0.5031370000000 1.0
C      1  0.4895320000000  0.4205900000000  0.4516420000000 1.0
C      1  0.5691180000000  0.4638620000000  0.4706630000000 1.0
C      1  0.5971560000000  0.4503950000000  0.5220290000000 1.0
C      1  0.5397270000000  0.5017780000000  0.4220270000000 1.0
C      1  0.5142530000000  0.5495030000000  0.4219300000000 1.0
C      1  0.4197150000000  0.5369920000000  0.4674830000000 1.0
C      1  0.5265410000000  0.4632070000000  0.4038230000000 1.0
C      1  0.5987740000000  0.5841910000000  0.5314490000000 1.0
C      1  0.4383060000000  0.5599580000000  0.5114270000000 1.0
C      1  0.4689470000000  0.4713510000000  0.4331770000000 1.0
C      1  0.5164630000000  0.4937430000000  0.5260300000000 1.0
C      1  0.4443930000000  0.4956850000000  0.5557280000000 1.0
C      1  0.5110390000000  0.5374810000000  0.5665120000000 1.0
C      1  0.4590370000000  0.5418830000000  0.4095220000000 1.0
C      1  0.5298870000000  0.4317750000000  0.4759250000000 1.0
C      1  0.5379800000000  0.6145080000000  0.4575050000000 1.0
C      1  0.5666950000000  0.4749160000000  0.5229490000000 1.0
C      1  0.5640720000000  0.4423330000000  0.5197920000000 1.0
C      1  0.4085560000000  0.5324450000000  0.4968440000000 1.0
C      1  0.5694660000000  0.4349700000000  0.5630270000000 1.0
C      1  0.4958340000000  0.4165970000000  0.5567720000000 1.0
C      1  0.5052160000000  0.5766030000000  0.4183270000000 1.0
C      1  0.5688030000000  0.4876780000000  0.5604270000000 1.0
C      1  0.5607940000000  0.5172340000000  0.5730550000000 1.0
C      1  0.5431200000000  0.5309550000000  0.4550480000000 1.0
C      1  0.4942020000000  0.4780940000000  0.3868370000000 1.0
C      1  0.4326590000000  0.5204930000000  0.5120160000000 1.0
C      1  0.5815410000000  0.5157190000000  0.5466180000000 1.0
C      1  0.5368310000000  0.4738570000000  0.4721940000000 1.0
C      1  0.4916890000000  0.5597880000000  0.4649300000000 1.0
C      1  0.5545020000000  0.5124890000000  0.4980840000000 1.0
C      1  0.4692110000000  0.5755900000000  0.4522900000000 1.0
C      1  0.4592040000000  0.6044830000000  0.4892730000000 1.0
C      1  0.5446870000000  0.5158240000000  0.5977220000000 1.0
C      1  0.5621980000000  0.5259310000000  0.4280160000000 1.0
C      1  0.4975670000000  0.4560860000000  0.5652960000000 1.0
C      1  0.4761400000000  0.6167690000000  0.5336760000000 1.0
C      1  0.5211370000000  0.4308490000000  0.5692740000000 1.0
C      1  0.4050590000000  0.4692060000000  0.5105940000000 1.0
C      1  0.5211300000000  0.6009360000000  0.5216130000000 1.0
C      1  0.4920450000000  0.5907170000000  0.4396390000000 1.0
C      1  0.5728940000000  0.4948570000000  0.4280970000000 1.0
C      1  0.5111400000000  0.4579220000000  0.4849450000000 1.0
C      1  0.5767340000000  0.5302010000000  0.5009320000000 1.0
C      1  0.4498000000000  0.4948960000000  0.4418090000000 1.0
C      1  0.5892250000000  0.4857210000000  0.4742900000000 1.0
C      1  0.5125550000000  0.4365500000000  0.5308350000000 1.0
C      1  0.4317190000000  0.4832820000000  0.5264510000000 1.0
C      1  0.5990400000000  0.4961820000000  0.4460910000000 1.0
C      1  0.5535880000000  0.5221530000000  0.6228940000000 1.0
C      1  0.5637990000000  0.4150990000000  0.4889240000000 1.0
END
