TITL C-2782228-2999-115 -0.0115521301722506 125000 -892.066275798391 0 0 156 (S12) n - 1
REM
REM in /home/nfs/bkarasulu/CARBON/AIRSS/Generating-Clusters/REBO/Higher-Symm/SD-CG/HFTN-CG
REM
REM
REM
REM
REM
REM ./C.cell (12c818d87b63d06a65506943cc24bca4)
REM
REM compiler GCC version 9.2.1 20190827 (Red Hat 9.2.1-1)
REM options -cpp -mtune=generic -march=x86-64 -g -O0 -fpre-include=/usr/include/finclude/math-vector-fortran.h
REM seed 1235374913 394012767 273727617 -1786791986 1810586135 -254728282 1922879411 -1721335765 1094310362 294040894 639565205 986120532 -1680573024 -1102413666 74723150 2081749568 1964011138 954391962 -792936989 1793509036 1186595770 1574392938 -704402195 714657760 1710821276 -2113505093 -2001178411 777697048 -1725928488 -1902930549 1678483293 163743451 -2059094166
REM
CELL 1.54180   50.00000   50.00000   50.00000   90.00000   90.00000   90.00000
LATT -1
SFAC C  
C      1  0.4577150000000  0.4261500000000  0.5638510000000 1.0
C      1  0.4314500000000  0.5738440000000  0.5341580000000 1.0
C      1  0.4235590000000  0.4261510000000  0.4953030000000 1.0
C      1  0.4361440000000  0.5738470000000  0.4577160000000 1.0
C      1  0.4658460000000  0.4261550000000  0.4314490000000 1.0
C      1  0.5046930000000  0.5738500000000  0.4235600000000 1.0
C      1  0.5422890000000  0.4261560000000  0.4361440000000 1.0
C      1  0.5685470000000  0.5738500000000  0.4658470000000 1.0
C      1  0.5764440000000  0.4261550000000  0.5046920000000 1.0
C      1  0.5638520000000  0.5738470000000  0.5422900000000 1.0
C      1  0.5341570000000  0.4261510000000  0.5685460000000 1.0
C      1  0.4953040000000  0.5738440000000  0.5764450000000 1.0
C      1  0.5196800000000  0.3944620000000  0.5211770000000 1.0
C      1  0.5064490000000  0.6055370000000  0.5281850000000 1.0
C      1  0.4914980000000  0.3944610000000  0.5276280000000 1.0
C      1  0.4788170000000  0.6055360000000  0.5196810000000 1.0
C      1  0.4718210000000  0.3944620000000  0.5064470000000 1.0
C      1  0.4723660000000  0.6055370000000  0.4915000000000 1.0
C      1  0.4803250000000  0.3944630000000  0.4788160000000 1.0
C      1  0.4935470000000  0.6055380000000  0.4718220000000 1.0
C      1  0.5085060000000  0.3944640000000  0.4723650000000 1.0
C      1  0.5211780000000  0.6055390000000  0.4803260000000 1.0
C      1  0.5281840000000  0.3944630000000  0.4935450000000 1.0
C      1  0.5276290000000  0.6055380000000  0.5085080000000 1.0
C      1  0.5155070000000  0.4140670000000  0.4454320000000 1.0
C      1  0.5407080000000  0.5859380000000  0.4605010000000 1.0
C      1  0.5550090000000  0.4140660000000  0.4861420000000 1.0
C      1  0.5545630000000  0.5859360000000  0.5155080000000 1.0
C      1  0.5395040000000  0.4140640000000  0.5407070000000 1.0
C      1  0.5138530000000  0.5859340000000  0.5550100000000 1.0
C      1  0.4844970000000  0.4140620000000  0.5545620000000 1.0
C      1  0.4592880000000  0.5859330000000  0.5395050000000 1.0
C      1  0.4449950000000  0.4140630000000  0.5138520000000 1.0
C      1  0.4454330000000  0.5859350000000  0.4844980000000 1.0
C      1  0.4605000000000  0.4140650000000  0.4592870000000 1.0
C      1  0.4861430000000  0.5859370000000  0.4449960000000 1.0
C      1  0.5055760000000  0.4151010000000  0.5780670000000 1.0
C      1  0.4657900000000  0.5848930000000  0.5704000000000 1.0
C      1  0.4351780000000  0.4151000000000  0.5438590000000 1.0
C      1  0.4219280000000  0.5848950000000  0.5055770000000 1.0
C      1  0.4296050000000  0.4151030000000  0.4657890000000 1.0
C      1  0.4561360000000  0.5848980000000  0.4351800000000 1.0
C      1  0.4944280000000  0.4151060000000  0.4219270000000 1.0
C      1  0.5342060000000  0.5849000000000  0.4296060000000 1.0
C      1  0.5648250000000  0.4151070000000  0.4561350000000 1.0
C      1  0.5780680000000  0.5848980000000  0.4944290000000 1.0
C      1  0.5703990000000  0.4151040000000  0.5342050000000 1.0
C      1  0.5438600000000  0.5848950000000  0.5648260000000 1.0
C      1  0.4954720000000  0.4963550000000  0.5640510000000 1.0
C      1  0.4640530000000  0.5036400000000  0.5532060000000 1.0
C      1  0.4422660000000  0.4963550000000  0.5281040000000 1.0
C      1  0.4359490000000  0.5036410000000  0.4954720000000 1.0
C      1  0.4467940000000  0.4963570000000  0.4640530000000 1.0
C      1  0.4718960000000  0.5036440000000  0.4422660000000 1.0
C      1  0.5045280000000  0.4963600000000  0.4359490000000 1.0
C      1  0.5359470000000  0.5036450000000  0.4467940000000 1.0
C      1  0.5577340000000  0.4963600000000  0.4718960000000 1.0
C      1  0.5640510000000  0.5036440000000  0.5045280000000 1.0
C      1  0.5532060000000  0.4963570000000  0.5359470000000 1.0
C      1  0.5281040000000  0.5036410000000  0.5577340000000 1.0
C      1  0.4195230000000  0.5417740000000  0.5325710000000 1.0
C      1  0.4140220000000  0.4582210000000  0.4879660000000 1.0
C      1  0.4315550000000  0.5417780000000  0.4465920000000 1.0
C      1  0.4674320000000  0.4582250000000  0.4195230000000 1.0
C      1  0.5120310000000  0.5417810000000  0.4140230000000 1.0
C      1  0.5534110000000  0.4582260000000  0.4315550000000 1.0
C      1  0.5804750000000  0.5417800000000  0.4674320000000 1.0
C      1  0.5859800000000  0.4582240000000  0.5120310000000 1.0
C      1  0.5684430000000  0.5417770000000  0.5534110000000 1.0
C      1  0.5325700000000  0.4582210000000  0.5804750000000 1.0
C      1  0.4879670000000  0.5417740000000  0.5859800000000 1.0
C      1  0.4465910000000  0.4582190000000  0.5684420000000 1.0
C      1  0.5204470000000  0.4644570000000  0.4726680000000 1.0
C      1  0.5313720000000  0.5355460000000  0.4865560000000 1.0
C      1  0.5338930000000  0.4644560000000  0.5040410000000 1.0
C      1  0.5273300000000  0.5355450000000  0.5204480000000 1.0
C      1  0.5134460000000  0.4644540000000  0.5313710000000 1.0
C      1  0.4959570000000  0.5355430000000  0.5338930000000 1.0
C      1  0.4795540000000  0.4644540000000  0.5273290000000 1.0
C      1  0.4686270000000  0.5355440000000  0.5134470000000 1.0
C      1  0.4661090000000  0.4644550000000  0.4959570000000 1.0
C      1  0.4726690000000  0.5355450000000  0.4795550000000 1.0
C      1  0.4865550000000  0.4644560000000  0.4686260000000 1.0
C      1  0.5040410000000  0.5355460000000  0.4661090000000 1.0
C      1  0.4322780000000  0.5122250000000  0.4304720000000 1.0
C      1  0.4761150000000  0.4877790000000  0.4059250000000 1.0
C      1  0.5263520000000  0.5122280000000  0.4065870000000 1.0
C      1  0.5695280000000  0.4877800000000  0.4322770000000 1.0
C      1  0.5940740000000  0.5122270000000  0.4761150000000 1.0
C      1  0.5934130000000  0.4877770000000  0.5263520000000 1.0
C      1  0.5677220000000  0.5122230000000  0.5695290000000 1.0
C      1  0.5238850000000  0.4877730000000  0.5940740000000 1.0
C      1  0.4736480000000  0.5122200000000  0.5934140000000 1.0
C      1  0.4304720000000  0.4877720000000  0.5677220000000 1.0
C      1  0.4059260000000  0.5122210000000  0.5238860000000 1.0
C      1  0.4065870000000  0.4877750000000  0.4736480000000 1.0
C      1  0.5434850000000  0.5130060000000  0.5880750000000 1.0
C      1  0.4936230000000  0.4869890000000  0.5980170000000 1.0
C      1  0.4454680000000  0.5130040000000  0.5816970000000 1.0
C      1  0.4119260000000  0.4869890000000  0.5434850000000 1.0
C      1  0.4019820000000  0.5130060000000  0.4936230000000 1.0
C      1  0.4183030000000  0.4869920000000  0.4454680000000 1.0
C      1  0.4565140000000  0.5130100000000  0.4119260000000 1.0
C      1  0.5063780000000  0.4869960000000  0.4019820000000 1.0
C      1  0.5545320000000  0.5130120000000  0.4183040000000 1.0
C      1  0.5880750000000  0.4869960000000  0.4565140000000 1.0
C      1  0.5980170000000  0.5130100000000  0.5063780000000 1.0
C      1  0.5816970000000  0.4869920000000  0.5545320000000 1.0
C      1  0.4656470000000  0.4791930000000  0.5842650000000 1.0
C      1  0.4281160000000  0.5207990000000  0.5558000000000 1.0
C      1  0.4098480000000  0.4791950000000  0.5123810000000 1.0
C      1  0.4157340000000  0.5208020000000  0.4656470000000 1.0
C      1  0.4442010000000  0.4791990000000  0.4281160000000 1.0
C      1  0.4876180000000  0.5208060000000  0.4098480000000 1.0
C      1  0.5343540000000  0.4792010000000  0.4157340000000 1.0
C      1  0.5718830000000  0.5208060000000  0.4442020000000 1.0
C      1  0.5901530000000  0.4792000000000  0.4876180000000 1.0
C      1  0.5842650000000  0.5208030000000  0.5343540000000 1.0
C      1  0.5558000000000  0.4791960000000  0.5718830000000 1.0
C      1  0.5123810000000  0.5208000000000  0.5901530000000 1.0
C      1  0.4726710000000  0.4324100000000  0.5182880000000 1.0
C      1  0.4671850000000  0.5675870000000  0.5021770000000 1.0
C      1  0.4704970000000  0.4324120000000  0.4854740000000 1.0
C      1  0.4817080000000  0.5675890000000  0.4726720000000 1.0
C      1  0.4978270000000  0.4324130000000  0.4671840000000 1.0
C      1  0.5145220000000  0.5675900000000  0.4704980000000 1.0
C      1  0.5273320000000  0.4324130000000  0.4817070000000 1.0
C      1  0.5328120000000  0.5675890000000  0.4978280000000 1.0
C      1  0.5295060000000  0.4324120000000  0.5145210000000 1.0
C      1  0.5182890000000  0.5675880000000  0.5273330000000 1.0
C      1  0.5021760000000  0.4324110000000  0.5328110000000 1.0
C      1  0.4854750000000  0.5675870000000  0.5295070000000 1.0
C      1  0.4841080000000  0.5335090000000  0.4412940000000 1.0
C      1  0.5155920000000  0.4664950000000  0.4412110000000 1.0
C      1  0.5428960000000  0.5335100000000  0.4568850000000 1.0
C      1  0.5587080000000  0.4664950000000  0.4841080000000 1.0
C      1  0.5587870000000  0.5335080000000  0.5155930000000 1.0
C      1  0.5431170000000  0.4664920000000  0.5428950000000 1.0
C      1  0.5158900000000  0.5335050000000  0.5587090000000 1.0
C      1  0.4844090000000  0.4664900000000  0.5587870000000 1.0
C      1  0.4571030000000  0.5335050000000  0.5431170000000 1.0
C      1  0.4412930000000  0.4664910000000  0.5158900000000 1.0
C      1  0.4412120000000  0.5335060000000  0.4844100000000 1.0
C      1  0.4568850000000  0.4664930000000  0.4571020000000 1.0
C      1  0.5640560000000  0.4469830000000  0.5343800000000 1.0
C      1  0.5382810000000  0.5530160000000  0.5618050000000 1.0
C      1  0.5022530000000  0.4469800000000  0.5726620000000 1.0
C      1  0.4656170000000  0.5530150000000  0.5640570000000 1.0
C      1  0.4381980000000  0.4469800000000  0.5382800000000 1.0
C      1  0.4273350000000  0.5530160000000  0.5022540000000 1.0
C      1  0.4359460000000  0.4469820000000  0.4656160000000 1.0
C      1  0.4617160000000  0.5530190000000  0.4381990000000 1.0
C      1  0.4977490000000  0.4469850000000  0.4273340000000 1.0
C      1  0.5343810000000  0.5530210000000  0.4359470000000 1.0
C      1  0.5618040000000  0.4469850000000  0.4617160000000 1.0
C      1  0.5726630000000  0.5530190000000  0.4977500000000 1.0
END
