TITL C-2782228-2999-541 1.70352218875577e-05 125000 -122.197731343357 0 0 23 (D3) n - 1
REM
REM in /home/nfs/bkarasulu/CARBON/AIRSS/Generating-Clusters/REBO/Higher-Symm/SD-CG/HFTN-CG
REM
REM
REM
REM
REM
REM ./C.cell (12c818d87b63d06a65506943cc24bca4)
REM
REM compiler GCC version 9.2.1 20190827 (Red Hat 9.2.1-1)
REM options -cpp -mtune=generic -march=x86-64 -g -O0 -fpre-include=/usr/include/finclude/math-vector-fortran.h
REM seed 621365584 752073405 -759576283 836607254 -2142356481 -762231331 -38113479 -34398815 -1847472181 -1897650659 2040924366 5719053 -1225210002 -1934528795 924038968 1499810156 -351052529 -1282011491 508007192 1052714833 314943461 -1449464873 -642327952 -871158154 -1837585344 -1806868978 1428690835 -327698516 2102946356 -1948118588 2135399083 -854976144 -1968672632
REM
CELL 1.54180   50.00000   50.00000   50.00000   90.00000   90.00000   90.00000
LATT -1
SFAC C  
C      1  0.5367160000000  0.5094450000000  0.5812740000000 1.0
C      1  0.5372900000000  0.5675920000000  0.4510320000000 1.0
C      1  0.5384800000000  0.4257300000000  0.4658050000000 1.0
C      1  0.4647150000000  0.5112590000000  0.4171350000000 1.0
C      1  0.4630840000000  0.5654060000000  0.5490820000000 1.0
C      1  0.4645600000000  0.4240600000000  0.5300100000000 1.0
C      1  0.5265440000000  0.5446000000000  0.4597950000000 1.0
C      1  0.5272890000000  0.4447430000000  0.4811070000000 1.0
C      1  0.5260050000000  0.5131220000000  0.5569290000000 1.0
C      1  0.4742580000000  0.5428960000000  0.5396280000000 1.0
C      1  0.4753870000000  0.4437350000000  0.5152950000000 1.0
C      1  0.4753610000000  0.5143960000000  0.4415840000000 1.0
C      1  0.4739900000000  0.5096690000000  0.4728850000000 1.0
C      1  0.4740650000000  0.4731980000000  0.5037120000000 1.0
C      1  0.4735090000000  0.5181280000000  0.5198810000000 1.0
C      1  0.5274570000000  0.5093740000000  0.5254990000000 1.0
C      1  0.5280590000000  0.4738600000000  0.4935800000000 1.0
C      1  0.5277650000000  0.5192620000000  0.4787820000000 1.0
C      1  0.5002630000000  0.5226820000000  0.5387190000000 1.0
C      1  0.5009240000000  0.5238820000000  0.4600830000000 1.0
C      1  0.5012350000000  0.4551820000000  0.4983670000000 1.0
C      1  0.4707030000000  0.5003030000000  0.4987990000000 1.0
C      1  0.5309120000000  0.5008610000000  0.4993140000000 1.0
END
