TITL C-2782237-5345-187 -0.00191141401646482 125000 -651.875190375031 0 0 110 (C1) n - 1
REM
REM in /home/nfs/bkarasulu/CARBON/AIRSS/Generating-Clusters/REBO/Higher-Symm/SD-CG/HFTN-CG
REM
REM
REM
REM
REM
REM ./C.cell (12c818d87b63d06a65506943cc24bca4)
REM
REM compiler GCC version 9.2.1 20190827 (Red Hat 9.2.1-1)
REM options -cpp -mtune=generic -march=x86-64 -g -O0 -fpre-include=/usr/include/finclude/math-vector-fortran.h
REM seed 302965137 1764677743 338662401 141476980 -2093931213 1517086776 1291731819 -1945747062 1358571020 1296224193 176996108 143368181 -759968440 447679414 1704594569 -489663227 -2137947565 1848013983 -564667680 1339187195 1123571807 703690764 1210795975 314583535 2007312126 907920477 1199210778 1910408869 -763545020 -1789976599 -2076137406 58173153 1991315183
REM
CELL 1.54180   50.00000   50.00000   50.00000   90.00000   90.00000   90.00000
LATT -1
SFAC C  
C      1  0.5388620000000  0.4836050000000  0.3917790000000 1.0
C      1  0.5339600000000  0.3893870000000  0.4816400000000 1.0
C      1  0.5334240000000  0.4464510000000  0.5983590000000 1.0
C      1  0.5368730000000  0.5751880000000  0.5797420000000 1.0
C      1  0.4983800000000  0.6265680000000  0.4145790000000 1.0
C      1  0.4431770000000  0.4414610000000  0.4705890000000 1.0
C      1  0.4422830000000  0.4542460000000  0.5472470000000 1.0
C      1  0.4434320000000  0.5307860000000  0.5590890000000 1.0
C      1  0.4435340000000  0.5650550000000  0.4912030000000 1.0
C      1  0.4458390000000  0.5108300000000  0.4352920000000 1.0
C      1  0.4887410000000  0.4956440000000  0.4456300000000 1.0
C      1  0.4862560000000  0.4466290000000  0.4888830000000 1.0
C      1  0.4859320000000  0.4726890000000  0.5472470000000 1.0
C      1  0.4875750000000  0.5365340000000  0.5399270000000 1.0
C      1  0.4887660000000  0.5510930000000  0.4750110000000 1.0
C      1  0.5128410000000  0.5228080000000  0.4947220000000 1.0
C      1  0.5129950000000  0.5006320000000  0.4766050000000 1.0
C      1  0.5122800000000  0.4766210000000  0.4916610000000 1.0
C      1  0.5119380000000  0.4836450000000  0.5191400000000 1.0
C      1  0.5125020000000  0.5119610000000  0.5209600000000 1.0
C      1  0.4533710000000  0.5244970000000  0.4117710000000 1.0
C      1  0.4493810000000  0.4229960000000  0.4503050000000 1.0
C      1  0.4479170000000  0.4292260000000  0.5587700000000 1.0
C      1  0.4499230000000  0.5339210000000  0.5862360000000 1.0
C      1  0.4507040000000  0.5916190000000  0.4968950000000 1.0
C      1  0.5010380000000  0.5841670000000  0.5457260000000 1.0
C      1  0.4888840000000  0.5758520000000  0.4304990000000 1.0
C      1  0.5006830000000  0.4586180000000  0.4129170000000 1.0
C      1  0.4974490000000  0.4033390000000  0.5131720000000 1.0
C      1  0.4982080000000  0.4821130000000  0.5954610000000 1.0
C      1  0.4973340000000  0.5689040000000  0.4983630000000 1.0
C      1  0.4987660000000  0.5230630000000  0.4354720000000 1.0
C      1  0.4949460000000  0.4444800000000  0.4599740000000 1.0
C      1  0.4935870000000  0.4440160000000  0.5409030000000 1.0
C      1  0.4949980000000  0.5213070000000  0.5651870000000 1.0
C      1  0.5249420000000  0.4683650000000  0.5405210000000 1.0
C      1  0.5262980000000  0.5273680000000  0.5415760000000 1.0
C      1  0.5268190000000  0.5455830000000  0.4852550000000 1.0
C      1  0.5278700000000  0.5004150000000  0.4506170000000 1.0
C      1  0.5255100000000  0.4514280000000  0.4843970000000 1.0
C      1  0.5495030000000  0.5427070000000  0.4525890000000 1.0
C      1  0.5449710000000  0.4658640000000  0.4407280000000 1.0
C      1  0.5428490000000  0.4301350000000  0.5132080000000 1.0
C      1  0.5434390000000  0.4887400000000  0.5692720000000 1.0
C      1  0.5457670000000  0.5601350000000  0.5302710000000 1.0
C      1  0.5500280000000  0.4827060000000  0.4803760000000 1.0
C      1  0.5489800000000  0.4729350000000  0.5089090000000 1.0
C      1  0.5490770000000  0.4972640000000  0.5271290000000 1.0
C      1  0.5498290000000  0.5219940000000  0.5097130000000 1.0
C      1  0.5507230000000  0.5125440000000  0.4811310000000 1.0
C      1  0.5276990000000  0.4693940000000  0.4126880000000 1.0
C      1  0.5241660000000  0.4053670000000  0.5019550000000 1.0
C      1  0.5244140000000  0.4710850000000  0.5896410000000 1.0
C      1  0.5273140000000  0.5746450000000  0.5538030000000 1.0
C      1  0.4937710000000  0.6019530000000  0.4223060000000 1.0
C      1  0.5468840000000  0.4461430000000  0.4650270000000 1.0
C      1  0.5455640000000  0.4475140000000  0.5393310000000 1.0
C      1  0.5469690000000  0.5188530000000  0.5605560000000 1.0
C      1  0.5484860000000  0.5603160000000  0.4987310000000 1.0
C      1  0.5512690000000  0.5159590000000  0.4414130000000 1.0
C      1  0.4995060000000  0.5104780000000  0.5972800000000 1.0
C      1  0.5019330000000  0.5950860000000  0.5195070000000 1.0
C      1  0.5001230000000  0.5530440000000  0.4184780000000 1.0
C      1  0.4998400000000  0.4342950000000  0.4277220000000 1.0
C      1  0.4976830000000  0.4100120000000  0.5409030000000 1.0
C      1  0.4768400000000  0.5309380000000  0.5921820000000 1.0
C      1  0.4777940000000  0.5966450000000  0.5000910000000 1.0
C      1  0.4803540000000  0.5309350000000  0.4087250000000 1.0
C      1  0.4761410000000  0.4217810000000  0.4432080000000 1.0
C      1  0.4745780000000  0.4216860000000  0.5578970000000 1.0
C      1  0.4692120000000  0.5226000000000  0.5178200000000 1.0
C      1  0.4708220000000  0.5253200000000  0.4838370000000 1.0
C      1  0.4693400000000  0.4935740000000  0.4715590000000 1.0
C      1  0.4678820000000  0.4715600000000  0.4976060000000 1.0
C      1  0.4677200000000  0.4896510000000  0.5265060000000 1.0
C      1  0.4429340000000  0.5439630000000  0.5121360000000 1.0
C      1  0.4440250000000  0.5245040000000  0.4623560000000 1.0
C      1  0.4438440000000  0.4712890000000  0.4651570000000 1.0
C      1  0.4427410000000  0.4581140000000  0.5171760000000 1.0
C      1  0.4426310000000  0.5035040000000  0.5457570000000 1.0
C      1  0.4215290000000  0.5135310000000  0.4794910000000 1.0
C      1  0.4214880000000  0.4850080000000  0.4810570000000 1.0
C      1  0.4208520000000  0.4777290000000  0.5087550000000 1.0
C      1  0.4205190000000  0.5017350000000  0.5244120000000 1.0
C      1  0.4208160000000  0.5238910000000  0.5063260000000 1.0
C      1  0.5656220000000  0.5489400000000  0.4763720000000 1.0
C      1  0.5659460000000  0.4897160000000  0.4451170000000 1.0
C      1  0.5633590000000  0.4409620000000  0.4908730000000 1.0
C      1  0.5630080000000  0.4699390000000  0.5519690000000 1.0
C      1  0.5648390000000  0.5371180000000  0.5428480000000 1.0
C      1  0.5815550000000  0.4848940000000  0.5284570000000 1.0
C      1  0.5824840000000  0.5183250000000  0.5217480000000 1.0
C      1  0.5832220000000  0.5222180000000  0.4879000000000 1.0
C      1  0.5834640000000  0.4910640000000  0.4738640000000 1.0
C      1  0.5820150000000  0.4679300000000  0.4988750000000 1.0
C      1  0.4520320000000  0.4831880000000  0.4365490000000 1.0
C      1  0.4493500000000  0.4342020000000  0.4972590000000 1.0
C      1  0.4492680000000  0.4772490000000  0.5621740000000 1.0
C      1  0.4507920000000  0.5518070000000  0.5416630000000 1.0
C      1  0.4500460000000  0.5551860000000  0.4659650000000 1.0
C      1  0.5106860000000  0.4929610000000  0.5591150000000 1.0
C      1  0.5126360000000  0.5529810000000  0.5236060000000 1.0
C      1  0.5156130000000  0.5454550000000  0.4545510000000 1.0
C      1  0.5117990000000  0.4706570000000  0.4493270000000 1.0
C      1  0.5100940000000  0.4412060000000  0.5127200000000 1.0
C      1  0.4757330000000  0.4178460000000  0.5005300000000 1.0
C      1  0.4758640000000  0.4750900000000  0.5783040000000 1.0
C      1  0.4779660000000  0.5664360000000  0.5477080000000 1.0
C      1  0.4727270000000  0.5689170000000  0.4525500000000 1.0
C      1  0.4788120000000  0.4754800000000  0.4219130000000 1.0
END
