TITL C-2782238-9940-726 0.00127185181050783 125000 -480.258121488214 0 0 83 (C1) n - 1
REM
REM in /home/nfs/bkarasulu/CARBON/AIRSS/Generating-Clusters/REBO/Higher-Symm/SD-CG/HFTN-CG
REM
REM
REM
REM
REM
REM ./C.cell (12c818d87b63d06a65506943cc24bca4)
REM
REM compiler GCC version 9.2.1 20190827 (Red Hat 9.2.1-1)
REM options -cpp -mtune=generic -march=x86-64 -g -O0 -fpre-include=/usr/include/finclude/math-vector-fortran.h
REM seed -186429551 607386267 1405296267 115324029 -573666003 1968791686 1042869431 -654793152 116151431 473122284 1876049633 -80690689 -1534747334 -613912851 2000060495 1622848711 -1875886447 977143561 1598453436 1374041982 -1045256044 -106559363 -1785771896 1069924223 916420191 603487356 787659268 1449533993 -1174522494 -526691565 1680018118 1418356954 -27109427
REM
CELL 1.54180   50.00000   50.00000   50.00000   90.00000   90.00000   90.00000
LATT -1
SFAC C  
C      1  0.4882470000000  0.5466650000000  0.4715160000000 1.0
C      1  0.5414820000000  0.5189010000000  0.4179730000000 1.0
C      1  0.4883670000000  0.4930610000000  0.5021420000000 1.0
C      1  0.5844610000000  0.4349190000000  0.4415520000000 1.0
C      1  0.4961930000000  0.4589720000000  0.4831530000000 1.0
C      1  0.4127600000000  0.4908220000000  0.5207080000000 1.0
C      1  0.4459690000000  0.4574010000000  0.5662950000000 1.0
C      1  0.5122070000000  0.5310590000000  0.4215590000000 1.0
C      1  0.4801990000000  0.4313250000000  0.5454710000000 1.0
C      1  0.5398930000000  0.5696450000000  0.5255450000000 1.0
C      1  0.5333640000000  0.5468690000000  0.4684550000000 1.0
C      1  0.5813020000000  0.4799780000000  0.4669690000000 1.0
C      1  0.4445070000000  0.4813030000000  0.4486640000000 1.0
C      1  0.5613270000000  0.4880390000000  0.4333710000000 1.0
C      1  0.4925940000000  0.5469990000000  0.4379310000000 1.0
C      1  0.5133020000000  0.4481430000000  0.4487860000000 1.0
C      1  0.4172870000000  0.5451400000000  0.4739170000000 1.0
C      1  0.5068730000000  0.5011390000000  0.4224460000000 1.0
C      1  0.4889070000000  0.5748800000000  0.5225140000000 1.0
C      1  0.5707340000000  0.4582270000000  0.4453900000000 1.0
C      1  0.5239440000000  0.4717300000000  0.4845490000000 1.0
C      1  0.5352380000000  0.4579410000000  0.5100750000000 1.0
C      1  0.4870450000000  0.5026180000000  0.5871700000000 1.0
C      1  0.4393650000000  0.4685680000000  0.5950540000000 1.0
C      1  0.5257800000000  0.5267330000000  0.5617920000000 1.0
C      1  0.5375590000000  0.4955020000000  0.4786820000000 1.0
C      1  0.4913310000000  0.5506890000000  0.5864290000000 1.0
C      1  0.5380240000000  0.4605400000000  0.4369330000000 1.0
C      1  0.4482980000000  0.4380260000000  0.4956400000000 1.0
C      1  0.4649340000000  0.5264530000000  0.4780160000000 1.0
C      1  0.5146920000000  0.5829790000000  0.5085620000000 1.0
C      1  0.4788430000000  0.5333790000000  0.5264450000000 1.0
C      1  0.4929940000000  0.4421540000000  0.5192640000000 1.0
C      1  0.5648510000000  0.4668740000000  0.5217340000000 1.0
C      1  0.5685410000000  0.5490030000000  0.4866310000000 1.0
C      1  0.4422110000000  0.5429760000000  0.4583510000000 1.0
C      1  0.5712510000000  0.4933160000000  0.5134600000000 1.0
C      1  0.4371620000000  0.5276880000000  0.4948400000000 1.0
C      1  0.5054340000000  0.4717820000000  0.5198710000000 1.0
C      1  0.4380820000000  0.4317110000000  0.5221720000000 1.0
C      1  0.5070130000000  0.4264920000000  0.5544280000000 1.0
C      1  0.4525920000000  0.4379420000000  0.5469650000000 1.0
C      1  0.5643930000000  0.5194190000000  0.4378780000000 1.0
C      1  0.5201390000000  0.5199010000000  0.4793110000000 1.0
C      1  0.5371600000000  0.4807240000000  0.5568330000000 1.0
C      1  0.4256510000000  0.4859420000000  0.4693050000000 1.0
C      1  0.4845470000000  0.5025970000000  0.5344960000000 1.0
C      1  0.4571190000000  0.4849140000000  0.5117950000000 1.0
C      1  0.4649110000000  0.5697210000000  0.5088420000000 1.0
C      1  0.4559190000000  0.4900470000000  0.5455150000000 1.0
C      1  0.4468760000000  0.5427150000000  0.5189940000000 1.0
C      1  0.4914830000000  0.5070170000000  0.4747470000000 1.0
C      1  0.5634930000000  0.5368860000000  0.4588160000000 1.0
C      1  0.4240000000000  0.4878130000000  0.5430470000000 1.0
C      1  0.4842800000000  0.5592190000000  0.5486270000000 1.0
C      1  0.5021670000000  0.5262640000000  0.5800040000000 1.0
C      1  0.4317300000000  0.4977530000000  0.4971040000000 1.0
C      1  0.4995060000000  0.4779730000000  0.5786460000000 1.0
C      1  0.4942040000000  0.5404830000000  0.5013840000000 1.0
C      1  0.5152230000000  0.4241660000000  0.5041520000000 1.0
C      1  0.5657780000000  0.4957540000000  0.4847420000000 1.0
C      1  0.4615690000000  0.5033850000000  0.4399900000000 1.0
C      1  0.4621090000000  0.5318990000000  0.4386900000000 1.0
C      1  0.5240150000000  0.5372850000000  0.5083340000000 1.0
C      1  0.4898080000000  0.4916400000000  0.4444670000000 1.0
C      1  0.5417480000000  0.5692640000000  0.4923580000000 1.0
C      1  0.4876990000000  0.4608270000000  0.4444720000000 1.0
C      1  0.5116810000000  0.5902900000000  0.4765290000000 1.0
C      1  0.5501660000000  0.4575490000000  0.5467420000000 1.0
C      1  0.4543270000000  0.5533100000000  0.5504860000000 1.0
C      1  0.5073380000000  0.4817770000000  0.5489690000000 1.0
C      1  0.4704650000000  0.4574960000000  0.5014700000000 1.0
C      1  0.5249120000000  0.5458320000000  0.5413620000000 1.0
C      1  0.4607550000000  0.4873390000000  0.5767290000000 1.0
C      1  0.5292960000000  0.4339670000000  0.5338090000000 1.0
C      1  0.5556680000000  0.5406070000000  0.5163730000000 1.0
C      1  0.5330780000000  0.4854020000000  0.4154420000000 1.0
C      1  0.5466560000000  0.5075500000000  0.5547450000000 1.0
C      1  0.4592250000000  0.4556540000000  0.4499630000000 1.0
C      1  0.4472090000000  0.4356010000000  0.4671470000000 1.0
C      1  0.5099080000000  0.5672770000000  0.4592620000000 1.0
C      1  0.5628470000000  0.5146130000000  0.5310230000000 1.0
C      1  0.5157820000000  0.4335470000000  0.4759800000000 1.0
END
