TITL C-2782228-2999-1149 0.0294288673178455 125000 -508.747225526585 0 0 87 (C1) n - 1
REM
REM in /home/nfs/bkarasulu/CARBON/AIRSS/Generating-Clusters/REBO/Higher-Symm/SD-CG/HFTN-CG
REM
REM
REM
REM
REM
REM ./C.cell (12c818d87b63d06a65506943cc24bca4)
REM
REM compiler GCC version 9.2.1 20190827 (Red Hat 9.2.1-1)
REM options -cpp -mtune=generic -march=x86-64 -g -O0 -fpre-include=/usr/include/finclude/math-vector-fortran.h
REM seed 370999717 -1062874160 470643252 1676251650 1711623614 -1172557043 -1797020285 -1226998674 939233331 738899853 28054957 -1204492916 1015904158 -2146708436 -500790913 -1453246301 667726646 309999677 -1187109449 267430657 1164977280 -843626884 -463408255 1258820646 -592746011 -312934649 -1528094397 65813182 1748226317 221721740 51586011 -1403875056 -1639856927
REM
CELL 1.54180   50.00000   50.00000   50.00000   90.00000   90.00000   90.00000
LATT -1
SFAC C  
C      1  0.5767680000000  0.4536820000000  0.4763470000000 1.0
C      1  0.4775790000000  0.4190510000000  0.5229220000000 1.0
C      1  0.4660760000000  0.5169220000000  0.3902900000000 1.0
C      1  0.5605040000000  0.5219630000000  0.5858950000000 1.0
C      1  0.4272610000000  0.4739530000000  0.5291810000000 1.0
C      1  0.5665740000000  0.4489530000000  0.5146640000000 1.0
C      1  0.5283600000000  0.5740150000000  0.5237280000000 1.0
C      1  0.4900470000000  0.4432900000000  0.4841570000000 1.0
C      1  0.5789480000000  0.4750420000000  0.4976120000000 1.0
C      1  0.4727720000000  0.5536360000000  0.5294140000000 1.0
C      1  0.4551560000000  0.5631490000000  0.4732940000000 1.0
C      1  0.4420330000000  0.5513970000000  0.5286440000000 1.0
C      1  0.4842990000000  0.5603090000000  0.5033340000000 1.0
C      1  0.4494090000000  0.4899380000000  0.4460750000000 1.0
C      1  0.4365340000000  0.4724160000000  0.4799240000000 1.0
C      1  0.5014700000000  0.5820190000000  0.5058170000000 1.0
C      1  0.5387800000000  0.4144730000000  0.4711210000000 1.0
C      1  0.5768800000000  0.4239030000000  0.5094330000000 1.0
C      1  0.5689160000000  0.5369830000000  0.6056550000000 1.0
C      1  0.5516220000000  0.5061060000000  0.5650330000000 1.0
C      1  0.5028920000000  0.4287290000000  0.4394700000000 1.0
C      1  0.4839410000000  0.5735460000000  0.4619440000000 1.0
C      1  0.4142750000000  0.5151860000000  0.5071030000000 1.0
C      1  0.5405960000000  0.4656280000000  0.5029510000000 1.0
C      1  0.4933750000000  0.5441080000000  0.5478080000000 1.0
C      1  0.5141110000000  0.4515600000000  0.5067700000000 1.0
C      1  0.4195350000000  0.5008080000000  0.5318410000000 1.0
C      1  0.4891730000000  0.4888720000000  0.5060870000000 1.0
C      1  0.5637200000000  0.5095510000000  0.5366550000000 1.0
C      1  0.4425290000000  0.5245210000000  0.5745370000000 1.0
C      1  0.4706050000000  0.4467980000000  0.5673330000000 1.0
C      1  0.4949130000000  0.5023840000000  0.4787500000000 1.0
C      1  0.5021880000000  0.4970640000000  0.5740000000000 1.0
C      1  0.4186070000000  0.4847110000000  0.4537640000000 1.0
C      1  0.5912620000000  0.5301280000000  0.4397880000000 1.0
C      1  0.4060210000000  0.5093890000000  0.4553680000000 1.0
C      1  0.5319620000000  0.4640310000000  0.5522050000000 1.0
C      1  0.4352780000000  0.4562550000000  0.5053590000000 1.0
C      1  0.4609330000000  0.5193350000000  0.4897750000000 1.0
C      1  0.5254520000000  0.4147490000000  0.4459140000000 1.0
C      1  0.4694660000000  0.5474730000000  0.4494930000000 1.0
C      1  0.5302770000000  0.5155050000000  0.4270780000000 1.0
C      1  0.5198310000000  0.5472810000000  0.5363800000000 1.0
C      1  0.5282730000000  0.5220160000000  0.5230560000000 1.0
C      1  0.5691590000000  0.5302360000000  0.4561770000000 1.0
C      1  0.4961460000000  0.4166130000000  0.5003610000000 1.0
C      1  0.4310250000000  0.5045030000000  0.4861520000000 1.0
C      1  0.4836600000000  0.4755580000000  0.5432500000000 1.0
C      1  0.5226560000000  0.5364350000000  0.4735330000000 1.0
C      1  0.4538730000000  0.4592300000000  0.5404580000000 1.0
C      1  0.4886860000000  0.4321000000000  0.5472230000000 1.0
C      1  0.5471810000000  0.5688070000000  0.5004340000000 1.0
C      1  0.5746970000000  0.5012690000000  0.5057460000000 1.0
C      1  0.5166850000000  0.4893500000000  0.4631470000000 1.0
C      1  0.4865660000000  0.4882550000000  0.4260670000000 1.0
C      1  0.5560090000000  0.4547100000000  0.5438300000000 1.0
C      1  0.5218000000000  0.4066330000000  0.4930800000000 1.0
C      1  0.5132970000000  0.4941640000000  0.4351280000000 1.0
C      1  0.5289930000000  0.4886710000000  0.5661590000000 1.0
C      1  0.5307220000000  0.5661570000000  0.4771820000000 1.0
C      1  0.4384200000000  0.5171750000000  0.5493010000000 1.0
C      1  0.5711340000000  0.5406350000000  0.5317620000000 1.0
C      1  0.4864520000000  0.4459860000000  0.4545540000000 1.0
C      1  0.5138110000000  0.6048370000000  0.5239700000000 1.0
C      1  0.4526410000000  0.5233520000000  0.4397290000000 1.0
C      1  0.5419650000000  0.5301200000000  0.4483570000000 1.0
C      1  0.4654260000000  0.4894480000000  0.4740850000000 1.0
C      1  0.4818070000000  0.4747660000000  0.5770080000000 1.0
C      1  0.4299500000000  0.5505330000000  0.4781530000000 1.0
C      1  0.5385920000000  0.4890210000000  0.4820570000000 1.0
C      1  0.5079450000000  0.4545260000000  0.5365700000000 1.0
C      1  0.4730640000000  0.4668500000000  0.4420690000000 1.0
C      1  0.4765320000000  0.4647050000000  0.5034560000000 1.0
C      1  0.4219640000000  0.5439370000000  0.5056950000000 1.0
C      1  0.4245620000000  0.5312470000000  0.4567270000000 1.0
C      1  0.5398460000000  0.4903590000000  0.5220410000000 1.0
C      1  0.4903370000000  0.5354620000000  0.4838030000000 1.0
C      1  0.4516820000000  0.5212290000000  0.5198730000000 1.0
C      1  0.5075850000000  0.4959010000000  0.5300110000000 1.0
C      1  0.5405920000000  0.5178900000000  0.4930800000000 1.0
C      1  0.5614980000000  0.4312710000000  0.4732550000000 1.0
C      1  0.4923710000000  0.5231540000000  0.5671930000000 1.0
C      1  0.4686880000000  0.5086390000000  0.4164710000000 1.0
C      1  0.4538570000000  0.4351120000000  0.5176140000000 1.0
C      1  0.5678500000000  0.5506940000000  0.5061450000000 1.0
C      1  0.5711280000000  0.5270770000000  0.4863770000000 1.0
C      1  0.5099430000000  0.5825580000000  0.4667500000000 1.0
END
