TITL C-2782227-3064-444 -0.00211075856244203 125000 -405.450873253515 0 0 69 (C1) n - 1
REM
REM in /home/nfs/bkarasulu/CARBON/AIRSS/Generating-Clusters/REBO/Higher-Symm/SD-CG/HFTN-CG
REM
REM
REM
REM
REM
REM ./C.cell (12c818d87b63d06a65506943cc24bca4)
REM
REM compiler GCC version 9.2.1 20190827 (Red Hat 9.2.1-1)
REM options -cpp -mtune=generic -march=x86-64 -g -O0 -fpre-include=/usr/include/finclude/math-vector-fortran.h
REM seed -239067217 -390011358 1116690462 1208530710 222879508 1043482715 1414893166 -1348115707 -1159547303 475132689 1007594230 -1908345527 -1657768389 -401572070 2011720411 -911913493 2133348767 -810026655 -1767220290 310601499 1735399241 993774051 -1339464789 721657811 1852472522 -262598023 1780255274 -1744364194 1901133797 -155296407 730623013 488060914 -2021778216
REM
CELL 1.54180   50.00000   50.00000   50.00000   90.00000   90.00000   90.00000
LATT -1
SFAC C  
C      1  0.5057090000000  0.4378220000000  0.4792410000000 1.0
C      1  0.5316050000000  0.4805260000000  0.4652210000000 1.0
C      1  0.5606480000000  0.5077050000000  0.4949230000000 1.0
C      1  0.5557520000000  0.5505700000000  0.5238160000000 1.0
C      1  0.4194670000000  0.4957330000000  0.4539380000000 1.0
C      1  0.5035900000000  0.4660440000000  0.5393540000000 1.0
C      1  0.5075070000000  0.5267790000000  0.4587890000000 1.0
C      1  0.5167250000000  0.5122200000000  0.4161240000000 1.0
C      1  0.5127860000000  0.4657690000000  0.5983990000000 1.0
C      1  0.5323360000000  0.4966930000000  0.4915320000000 1.0
C      1  0.4885890000000  0.5239560000000  0.4177120000000 1.0
C      1  0.4558780000000  0.4554790000000  0.4563290000000 1.0
C      1  0.4688990000000  0.5643400000000  0.4420160000000 1.0
C      1  0.4506340000000  0.5391320000000  0.5050380000000 1.0
C      1  0.5085080000000  0.5569760000000  0.5348830000000 1.0
C      1  0.5246420000000  0.4806520000000  0.5191300000000 1.0
C      1  0.4289100000000  0.5028010000000  0.5309830000000 1.0
C      1  0.5357670000000  0.5744960000000  0.4860060000000 1.0
C      1  0.4352070000000  0.4633340000000  0.4896060000000 1.0
C      1  0.4737420000000  0.5190710000000  0.5439410000000 1.0
C      1  0.5152620000000  0.4779390000000  0.5751130000000 1.0
C      1  0.4336000000000  0.4548360000000  0.5198410000000 1.0
C      1  0.4616200000000  0.4842680000000  0.4829890000000 1.0
C      1  0.4595470000000  0.4320920000000  0.4728720000000 1.0
C      1  0.5062930000000  0.4355270000000  0.5342840000000 1.0
C      1  0.4193090000000  0.4747030000000  0.5353130000000 1.0
C      1  0.4809330000000  0.4770150000000  0.4590210000000 1.0
C      1  0.4899050000000  0.5019150000000  0.4436800000000 1.0
C      1  0.5564570000000  0.4749180000000  0.5263920000000 1.0
C      1  0.4918990000000  0.4915090000000  0.5215590000000 1.0
C      1  0.5072170000000  0.4619200000000  0.4669530000000 1.0
C      1  0.5637890000000  0.5254930000000  0.5357070000000 1.0
C      1  0.5084970000000  0.5144370000000  0.5054920000000 1.0
C      1  0.5549660000000  0.5561190000000  0.4956910000000 1.0
C      1  0.4929850000000  0.4995550000000  0.5643160000000 1.0
C      1  0.4564840000000  0.5618850000000  0.4728020000000 1.0
C      1  0.4334900000000  0.5400840000000  0.4798260000000 1.0
C      1  0.5734570000000  0.4914750000000  0.5127960000000 1.0
C      1  0.4975710000000  0.5330430000000  0.4849870000000 1.0
C      1  0.4208920000000  0.5206470000000  0.4647530000000 1.0
C      1  0.5039250000000  0.5269020000000  0.5355490000000 1.0
C      1  0.4294590000000  0.4699670000000  0.4583800000000 1.0
C      1  0.4618900000000  0.4890230000000  0.5672660000000 1.0
C      1  0.4427280000000  0.4915360000000  0.5068890000000 1.0
C      1  0.5222840000000  0.5121680000000  0.5563310000000 1.0
C      1  0.5604200000000  0.4722620000000  0.4590640000000 1.0
C      1  0.5645350000000  0.5201680000000  0.4469710000000 1.0
C      1  0.4780670000000  0.5530780000000  0.4963130000000 1.0
C      1  0.5391960000000  0.4735540000000  0.5556660000000 1.0
C      1  0.4746390000000  0.5476530000000  0.4209330000000 1.0
C      1  0.5733240000000  0.4932420000000  0.4445910000000 1.0
C      1  0.4721840000000  0.4736180000000  0.5421490000000 1.0
C      1  0.5682490000000  0.4385750000000  0.4983480000000 1.0
C      1  0.4592630000000  0.4484470000000  0.5298660000000 1.0
C      1  0.5115500000000  0.5803980000000  0.4754800000000 1.0
C      1  0.5354750000000  0.5645600000000  0.5384870000000 1.0
C      1  0.5227530000000  0.4953660000000  0.4394240000000 1.0
C      1  0.4803900000000  0.4305670000000  0.5199600000000 1.0
C      1  0.5601640000000  0.5328750000000  0.4777700000000 1.0
C      1  0.5361960000000  0.4433650000000  0.5401380000000 1.0
C      1  0.4411080000000  0.4920940000000  0.5822080000000 1.0
C      1  0.4908130000000  0.5698470000000  0.5184720000000 1.0
C      1  0.5501440000000  0.5057240000000  0.5506480000000 1.0
C      1  0.5705830000000  0.4516260000000  0.4748290000000 1.0
C      1  0.4816070000000  0.4280140000000  0.4909330000000 1.0
C      1  0.5349360000000  0.5298870000000  0.4552140000000 1.0
C      1  0.4863410000000  0.5770120000000  0.4654280000000 1.0
C      1  0.5561150000000  0.4351690000000  0.5221930000000 1.0
C      1  0.4505890000000  0.5238250000000  0.5291350000000 1.0
END
