TITL C-2782229-3092-1476 -0.000813457634129152 125000 -603.141901332982 0 0 105 (C1) n - 1
REM
REM in /home/nfs/bkarasulu/CARBON/AIRSS/Generating-Clusters/REBO/Higher-Symm/SD-CG/HFTN-CG
REM
REM
REM
REM
REM
REM ./C.cell (12c818d87b63d06a65506943cc24bca4)
REM
REM compiler GCC version 9.2.1 20190827 (Red Hat 9.2.1-1)
REM options -cpp -mtune=generic -march=x86-64 -g -O0 -fpre-include=/usr/include/finclude/math-vector-fortran.h
REM seed -363421975 478273510 557719421 -210660894 -1609071135 424943615 -1096222838 -579056551 310414319 -1220675191 -224894729 -1692281061 1698744390 -229658469 -1044419306 -262465537 1756221825 350076346 1088938917 98999500 1460615915 336188567 -1762481385 1980992652 -1036769999 850112932 -925841611 369218179 1753734332 905770494 -106081379 237255926 -282696453
REM
CELL 1.54180   50.00000   50.00000   50.00000   90.00000   90.00000   90.00000
LATT -1
SFAC C  
C      1  0.4947820000000  0.4513310000000  0.5654150000000 1.0
C      1  0.4521590000000  0.4899470000000  0.5653340000000 1.0
C      1  0.4756600000000  0.5424420000000  0.5653600000000 1.0
C      1  0.5328360000000  0.5363260000000  0.5654510000000 1.0
C      1  0.5446750000000  0.4800800000000  0.5655630000000 1.0
C      1  0.4281500000000  0.4321400000000  0.4804110000000 1.0
C      1  0.4132670000000  0.5472960000000  0.4804240000000 1.0
C      1  0.5181780000000  0.5971080000000  0.4804410000000 1.0
C      1  0.5979370000000  0.5127810000000  0.4805590000000 1.0
C      1  0.5411630000000  0.4098010000000  0.4795740000000 1.0
C      1  0.5249660000000  0.4381270000000  0.4751710000000 1.0
C      1  0.4491310000000  0.4569960000000  0.4751340000000 1.0
C      1  0.4433920000000  0.5350530000000  0.4751000000000 1.0
C      1  0.5159100000000  0.5646820000000  0.4751260000000 1.0
C      1  0.5664750000000  0.5047990000000  0.4751760000000 1.0
C      1  0.5066960000000  0.5845450000000  0.4506920000000 1.0
C      1  0.5824660000000  0.5196880000000  0.4507450000000 1.0
C      1  0.5439190000000  0.4275590000000  0.4505160000000 1.0
C      1  0.4447160000000  0.4356400000000  0.4506210000000 1.0
C      1  0.4216510000000  0.5325400000000  0.4506510000000 1.0
C      1  0.5134170000000  0.4755280000000  0.5781640000000 1.0
C      1  0.4808580000000  0.4796740000000  0.5779870000000 1.0
C      1  0.4747590000000  0.5119430000000  0.5779770000000 1.0
C      1  0.5035380000000  0.5277490000000  0.5780310000000 1.0
C      1  0.5274350000000  0.5052510000000  0.5780980000000 1.0
C      1  0.5265420000000  0.5050910000000  0.5275760000000 1.0
C      1  0.5131220000000  0.4763730000000  0.5275680000000 1.0
C      1  0.4816500000000  0.4802810000000  0.5275070000000 1.0
C      1  0.4756280000000  0.5114100000000  0.5274590000000 1.0
C      1  0.5033730000000  0.5267410000000  0.5274950000000 1.0
C      1  0.5501920000000  0.4218720000000  0.5127190000000 1.0
C      1  0.4405240000000  0.4277140000000  0.5122770000000 1.0
C      1  0.4128530000000  0.5342430000000  0.5123180000000 1.0
C      1  0.5056550000000  0.5935150000000  0.5123470000000 1.0
C      1  0.5907900000000  0.5236210000000  0.5124880000000 1.0
C      1  0.4667840000000  0.4681490000000  0.4989720000000 1.0
C      1  0.4595480000000  0.5217700000000  0.4988800000000 1.0
C      1  0.5082990000000  0.5452440000000  0.4989380000000 1.0
C      1  0.5457340000000  0.5060690000000  0.4990850000000 1.0
C      1  0.5201580000000  0.4584270000000  0.4991010000000 1.0
C      1  0.4789100000000  0.4857630000000  0.4379850000000 1.0
C      1  0.4798180000000  0.5156260000000  0.4379280000000 1.0
C      1  0.5085070000000  0.5240110000000  0.4379400000000 1.0
C      1  0.5253540000000  0.4993190000000  0.4380050000000 1.0
C      1  0.5070410000000  0.4756780000000  0.4380280000000 1.0
C      1  0.4911870000000  0.4272100000000  0.4357900000000 1.0
C      1  0.4278660000000  0.4856580000000  0.4359090000000 1.0
C      1  0.4640090000000  0.5641430000000  0.4359030000000 1.0
C      1  0.5498350000000  0.5539640000000  0.4359000000000 1.0
C      1  0.5665820000000  0.4692230000000  0.4359580000000 1.0
C      1  0.4652200000000  0.4308900000000  0.5319270000000 1.0
C      1  0.4235800000000  0.5117600000000  0.5319340000000 1.0
C      1  0.4875910000000  0.5763370000000  0.5319330000000 1.0
C      1  0.5688220000000  0.5354640000000  0.5320420000000 1.0
C      1  0.5550850000000  0.4457160000000  0.5323590000000 1.0
C      1  0.5513520000000  0.4727150000000  0.5030950000000 1.0
C      1  0.4900520000000  0.4430010000000  0.5030270000000 1.0
C      1  0.4427450000000  0.4919120000000  0.5029950000000 1.0
C      1  0.4746930000000  0.5519790000000  0.5029680000000 1.0
C      1  0.5416980000000  0.5401370000000  0.5030460000000 1.0
C      1  0.4524490000000  0.4707160000000  0.4450610000000 1.0
C      1  0.4573850000000  0.5361450000000  0.4450120000000 1.0
C      1  0.5211560000000  0.5516750000000  0.4450310000000 1.0
C      1  0.5556280000000  0.4958360000000  0.4451030000000 1.0
C      1  0.5129490000000  0.4458910000000  0.4451040000000 1.0
C      1  0.5310610000000  0.5646510000000  0.5503960000000 1.0
C      1  0.5711360000000  0.4905860000000  0.5505800000000 1.0
C      1  0.5129480000000  0.4294150000000  0.5502880000000 1.0
C      1  0.4369290000000  0.4659520000000  0.5503740000000 1.0
C      1  0.4481630000000  0.5494980000000  0.5503470000000 1.0
C      1  0.4934520000000  0.4202850000000  0.5258680000000 1.0
C      1  0.4222420000000  0.4816400000000  0.5259360000000 1.0
C      1  0.4585450000000  0.5682930000000  0.5258960000000 1.0
C      1  0.5521710000000  0.5605790000000  0.5259650000000 1.0
C      1  0.5738330000000  0.4692440000000  0.5261990000000 1.0
C      1  0.5504980000000  0.5149170000000  0.5468820000000 1.0
C      1  0.5297990000000  0.4566640000000  0.5469560000000 1.0
C      1  0.4679280000000  0.4582720000000  0.5467710000000 1.0
C      1  0.4504680000000  0.5176540000000  0.5467250000000 1.0
C      1  0.5014960000000  0.5525950000000  0.5467570000000 1.0
C      1  0.4138740000000  0.5717250000000  0.4997430000000 1.0
C      1  0.5416170000000  0.6040910000000  0.4997500000000 1.0
C      1  0.6118740000000  0.4926450000000  0.4998730000000 1.0
C      1  0.5281330000000  0.3915300000000  0.4997230000000 1.0
C      1  0.4051440000000  0.4402230000000  0.4997900000000 1.0
C      1  0.4801810000000  0.5828090000000  0.4378830000000 1.0
C      1  0.5725830000000  0.5443550000000  0.4379010000000 1.0
C      1  0.5643330000000  0.4446200000000  0.4378530000000 1.0
C      1  0.4671460000000  0.4214850000000  0.4376830000000 1.0
C      1  0.4150930000000  0.5067980000000  0.4378360000000 1.0
C      1  0.5040710000000  0.5229560000000  0.4775920000000 1.0
C      1  0.5232760000000  0.5032810000000  0.4776660000000 1.0
C      1  0.5105250000000  0.4789280000000  0.4776560000000 1.0
C      1  0.4834050000000  0.4835550000000  0.4775840000000 1.0
C      1  0.4794170000000  0.5107730000000  0.4775420000000 1.0
C      1  0.5957350000000  0.4931550000000  0.5268300000000 1.0
C      1  0.5230550000000  0.4070660000000  0.5262840000000 1.0
C      1  0.4185660000000  0.4494060000000  0.5266230000000 1.0
C      1  0.4267490000000  0.5618400000000  0.5265960000000 1.0
C      1  0.5361920000000  0.5888150000000  0.5266270000000 1.0
C      1  0.4669180000000  0.4257570000000  0.4924190000000 1.0
C      1  0.4191450000000  0.5085440000000  0.4924360000000 1.0
C      1  0.4832000000000  0.5795760000000  0.4924320000000 1.0
C      1  0.5705550000000  0.5404950000000  0.4925140000000 1.0
C      1  0.5600420000000  0.4450110000000  0.4927920000000 1.0
END
