TITL C-2782239-8622-449 -0.000725094585860374 125000 -162.178263053853 0 0 28 (D2) n - 1
REM
REM in /home/nfs/bkarasulu/CARBON/AIRSS/Generating-Clusters/REBO/Higher-Symm/SD-CG/HFTN-CG
REM
REM
REM
REM
REM
REM ./C.cell (12c818d87b63d06a65506943cc24bca4)
REM
REM compiler GCC version 9.2.1 20190827 (Red Hat 9.2.1-1)
REM options -cpp -mtune=generic -march=x86-64 -g -O0 -fpre-include=/usr/include/finclude/math-vector-fortran.h
REM seed 306622171 2143870278 -2009562515 -957943838 935232875 815407926 1215157641 884756372 -107555091 -401886466 -685822567 -357835963 1621070113 -267386143 -1405688390 -1295349742 -2041946863 -1330537745 -313404664 -731423352 -594834566 -1452135163 -2029612498 -155844357 -1176145699 928991616 514925134 408619394 -1628319675 -885664738 -1310502372 -1453806441 1901098869
REM
CELL 1.54180   50.00000   50.00000   50.00000   90.00000   90.00000   90.00000
LATT -1
SFAC C  
C      1  0.4853780000000  0.4613250000000  0.5009430000000 1.0
C      1  0.5143750000000  0.4612320000000  0.4990900000000 1.0
C      1  0.4856270000000  0.5387670000000  0.4990330000000 1.0
C      1  0.5146200000000  0.5386750000000  0.5009340000000 1.0
C      1  0.5286910000000  0.4641790000000  0.5236180000000 1.0
C      1  0.4710810000000  0.4643430000000  0.4764110000000 1.0
C      1  0.5289580000000  0.5356370000000  0.4764300000000 1.0
C      1  0.4712700000000  0.5358410000000  0.5235410000000 1.0
C      1  0.4224040000000  0.4531810000000  0.5380100000000 1.0
C      1  0.5772960000000  0.4526550000000  0.4620290000000 1.0
C      1  0.4227680000000  0.5473130000000  0.4618610000000 1.0
C      1  0.5775330000000  0.5468510000000  0.5381000000000 1.0
C      1  0.4727130000000  0.4680340000000  0.5257070000000 1.0
C      1  0.5270820000000  0.4678390000000  0.4743190000000 1.0
C      1  0.4729610000000  0.5321400000000  0.4742470000000 1.0
C      1  0.5272440000000  0.5319880000000  0.5257260000000 1.0
C      1  0.5528720000000  0.4600410000000  0.4680070000000 1.0
C      1  0.4468750000000  0.4604060000000  0.5320260000000 1.0
C      1  0.5530720000000  0.5396210000000  0.5320810000000 1.0
C      1  0.4471820000000  0.5399330000000  0.4678860000000 1.0
C      1  0.5201450000000  0.5185800000000  0.4573020000000 1.0
C      1  0.4799740000000  0.5187430000000  0.5426820000000 1.0
C      1  0.5199550000000  0.4812920000000  0.5427310000000 1.0
C      1  0.4799260000000  0.4813850000000  0.4572840000000 1.0
C      1  0.5122550000000  0.5132420000000  0.5430320000000 1.0
C      1  0.4878300000000  0.5132840000000  0.4569570000000 1.0
C      1  0.5122420000000  0.4866800000000  0.4569880000000 1.0
C      1  0.4876730000000  0.4867940000000  0.5430230000000 1.0
END
