TITL C-2782229-3092-1425 -0.00181377549975291 125000 -1126.41766121281 0 0 187 (C1) n - 1
REM
REM in /home/nfs/bkarasulu/CARBON/AIRSS/Generating-Clusters/REBO/Higher-Symm/SD-CG/HFTN-CG
REM
REM
REM
REM
REM
REM ./C.cell (12c818d87b63d06a65506943cc24bca4)
REM
REM compiler GCC version 9.2.1 20190827 (Red Hat 9.2.1-1)
REM options -cpp -mtune=generic -march=x86-64 -g -O0 -fpre-include=/usr/include/finclude/math-vector-fortran.h
REM seed 91710517 -182022375 -863385902 -674834217 -1850182599 -1934241858 -477814639 -952367540 -851686515 1255111467 757451230 -1616184653 1963119060 -899692675 -1424556838 1764467563 -1643060316 1018006305 1518237948 1163540444 -113499188 1678200752 1389766719 -1057655591 847448188 -1808301238 1013732002 -319773227 1650141771 2123803435 1149016904 955988284 -571005464
REM
CELL 1.54180   50.00000   50.00000   50.00000   90.00000   90.00000   90.00000
LATT -1
SFAC C  
C      1  0.4967800000000  0.4316200000000  0.5230690000000 1.0
C      1  0.4653080000000  0.4298610000000  0.5145230000000 1.0
C      1  0.4622240000000  0.4303710000000  0.4833690000000 1.0
C      1  0.4909800000000  0.4343290000000  0.4686430000000 1.0
C      1  0.5224430000000  0.4346050000000  0.4595640000000 1.0
C      1  0.5326520000000  0.4501980000000  0.4860630000000 1.0
C      1  0.5267970000000  0.4469110000000  0.5177100000000 1.0
C      1  0.4540620000000  0.4011180000000  0.5193630000000 1.0
C      1  0.4534960000000  0.4015370000000  0.4755860000000 1.0
C      1  0.4917800000000  0.4075610000000  0.4504310000000 1.0
C      1  0.5328140000000  0.4058830000000  0.4557690000000 1.0
C      1  0.5470450000000  0.4196120000000  0.4902890000000 1.0
C      1  0.5380400000000  0.4183880000000  0.5291500000000 1.0
C      1  0.4924220000000  0.4057420000000  0.5411810000000 1.0
C      1  0.5761020000000  0.5222220000000  0.4157820000000 1.0
C      1  0.6118320000000  0.5227320000000  0.5035970000000 1.0
C      1  0.5659220000000  0.5266220000000  0.5951610000000 1.0
C      1  0.4685170000000  0.5272420000000  0.6078040000000 1.0
C      1  0.3970040000000  0.5266980000000  0.5445470000000 1.0
C      1  0.3969360000000  0.5248850000000  0.4462440000000 1.0
C      1  0.4791760000000  0.5251530000000  0.3923790000000 1.0
C      1  0.4490050000000  0.4512940000000  0.5300550000000 1.0
C      1  0.4405770000000  0.4514960000000  0.4778900000000 1.0
C      1  0.4684580000000  0.4656590000000  0.4275740000000 1.0
C      1  0.5382790000000  0.4485350000000  0.4369290000000 1.0
C      1  0.5699470000000  0.4611550000000  0.4949160000000 1.0
C      1  0.5578360000000  0.4699710000000  0.5571150000000 1.0
C      1  0.4940820000000  0.4697280000000  0.5810700000000 1.0
C      1  0.4937790000000  0.4118220000000  0.4203420000000 1.0
C      1  0.5614290000000  0.4073410000000  0.4453240000000 1.0
C      1  0.5694300000000  0.4148630000000  0.5046540000000 1.0
C      1  0.5442400000000  0.4167600000000  0.5562140000000 1.0
C      1  0.4831090000000  0.4106230000000  0.5693680000000 1.0
C      1  0.4239360000000  0.4022890000000  0.5230920000000 1.0
C      1  0.4312200000000  0.4013780000000  0.4553940000000 1.0
C      1  0.4082670000000  0.4834860000000  0.5082330000000 1.0
C      1  0.4326750000000  0.4825210000000  0.4323280000000 1.0
C      1  0.5130470000000  0.4816480000000  0.4078000000000 1.0
C      1  0.5855210000000  0.4800780000000  0.4493390000000 1.0
C      1  0.5890040000000  0.4836770000000  0.5361480000000 1.0
C      1  0.5291470000000  0.4852450000000  0.5983380000000 1.0
C      1  0.4442910000000  0.4862850000000  0.5803860000000 1.0
C      1  0.5472050000000  0.5158960000000  0.4123000000000 1.0
C      1  0.6077560000000  0.5144660000000  0.4759700000000 1.0
C      1  0.5800050000000  0.5191540000000  0.5697390000000 1.0
C      1  0.4955970000000  0.5192500000000  0.6069920000000 1.0
C      1  0.4111440000000  0.5199880000000  0.5691480000000 1.0
C      1  0.3992320000000  0.5187100000000  0.4760800000000 1.0
C      1  0.4530970000000  0.5178090000000  0.4020320000000 1.0
C      1  0.4902860000000  0.5482180000000  0.4650930000000 1.0
C      1  0.5201100000000  0.5430960000000  0.4699920000000 1.0
C      1  0.5376550000000  0.5415460000000  0.4982720000000 1.0
C      1  0.5263790000000  0.5419450000000  0.5290120000000 1.0
C      1  0.4949350000000  0.5446490000000  0.5392730000000 1.0
C      1  0.4670710000000  0.5494790000000  0.5202280000000 1.0
C      1  0.4653450000000  0.5473680000000  0.4880730000000 1.0
C      1  0.4662390000000  0.5508810000000  0.5899020000000 1.0
C      1  0.4140640000000  0.5448660000000  0.5302230000000 1.0
C      1  0.4197510000000  0.5436400000000  0.4525320000000 1.0
C      1  0.4907040000000  0.5425780000000  0.4115560000000 1.0
C      1  0.5643240000000  0.5440200000000  0.4348020000000 1.0
C      1  0.5896940000000  0.5390900000000  0.5106930000000 1.0
C      1  0.5478270000000  0.5416560000000  0.5770010000000 1.0
C      1  0.5352350000000  0.4276100000000  0.5796560000000 1.0
C      1  0.4654850000000  0.4285260000000  0.5773200000000 1.0
C      1  0.4106730000000  0.4243540000000  0.5160090000000 1.0
C      1  0.4287120000000  0.4231430000000  0.4403630000000 1.0
C      1  0.5079200000000  0.4306960000000  0.4048290000000 1.0
C      1  0.5762300000000  0.4308830000000  0.4507620000000 1.0
C      1  0.5815920000000  0.4252200000000  0.5269160000000 1.0
C      1  0.5312730000000  0.5708440000000  0.5426570000000 1.0
C      1  0.4842890000000  0.5739780000000  0.5504480000000 1.0
C      1  0.4511650000000  0.5766910000000  0.5227140000000 1.0
C      1  0.4525910000000  0.5743960000000  0.4750180000000 1.0
C      1  0.4898330000000  0.5743690000000  0.4481440000000 1.0
C      1  0.5393090000000  0.5704280000000  0.4699960000000 1.0
C      1  0.5545440000000  0.5702220000000  0.4994580000000 1.0
C      1  0.5322910000000  0.4786170000000  0.5268540000000 1.0
C      1  0.5070980000000  0.4901640000000  0.5468230000000 1.0
C      1  0.4758650000000  0.4928560000000  0.5334820000000 1.0
C      1  0.4619050000000  0.4935430000000  0.5024770000000 1.0
C      1  0.4739930000000  0.4914920000000  0.4710870000000 1.0
C      1  0.5061870000000  0.4894990000000  0.4602890000000 1.0
C      1  0.5360220000000  0.4821990000000  0.4750430000000 1.0
C      1  0.4950770000000  0.4540870000000  0.3972590000000 1.0
C      1  0.5797200000000  0.4512850000000  0.4320170000000 1.0
C      1  0.5968570000000  0.4533470000000  0.5234050000000 1.0
C      1  0.5444920000000  0.4551880000000  0.5940120000000 1.0
C      1  0.4546350000000  0.4560020000000  0.5904060000000 1.0
C      1  0.4070070000000  0.4548320000000  0.5264090000000 1.0
C      1  0.4187770000000  0.4536070000000  0.4444410000000 1.0
C      1  0.4228450000000  0.5730850000000  0.5222360000000 1.0
C      1  0.4338800000000  0.5708990000000  0.4536760000000 1.0
C      1  0.4967560000000  0.5706980000000  0.4208320000000 1.0
C      1  0.5625500000000  0.5694120000000  0.4499220000000 1.0
C      1  0.5800900000000  0.5669070000000  0.5137080000000 1.0
C      1  0.5381490000000  0.5692850000000  0.5701360000000 1.0
C      1  0.4647800000000  0.5746260000000  0.5713810000000 1.0
C      1  0.4699240000000  0.5967750000000  0.4837500000000 1.0
C      1  0.4932990000000  0.5966110000000  0.4663160000000 1.0
C      1  0.5199520000000  0.5975830000000  0.4755730000000 1.0
C      1  0.5333440000000  0.5937990000000  0.5017880000000 1.0
C      1  0.5202820000000  0.5923290000000  0.5266800000000 1.0
C      1  0.4920680000000  0.5947730000000  0.5313960000000 1.0
C      1  0.4696510000000  0.5977030000000  0.5128030000000 1.0
C      1  0.4397300000000  0.4746580000000  0.5149890000000 1.0
C      1  0.4483290000000  0.4744810000000  0.4614270000000 1.0
C      1  0.4952790000000  0.4749330000000  0.4335750000000 1.0
C      1  0.5518160000000  0.4757970000000  0.4467520000000 1.0
C      1  0.5638780000000  0.4773700000000  0.5158800000000 1.0
C      1  0.5325150000000  0.4814220000000  0.5663410000000 1.0
C      1  0.4726270000000  0.4800050000000  0.5640760000000 1.0
C      1  0.5821830000000  0.5807530000000  0.5622110000000 1.0
C      1  0.5062240000000  0.5810870000000  0.6078990000000 1.0
C      1  0.4143660000000  0.5844370000000  0.5692020000000 1.0
C      1  0.3952760000000  0.5817220000000  0.4803190000000 1.0
C      1  0.4404190000000  0.5816650000000  0.4039220000000 1.0
C      1  0.5439260000000  0.5789200000000  0.4035940000000 1.0
C      1  0.6094300000000  0.5772800000000  0.4683430000000 1.0
C      1  0.5768850000000  0.4424540000000  0.4767500000000 1.0
C      1  0.5687480000000  0.4489030000000  0.5433180000000 1.0
C      1  0.5129870000000  0.4498980000000  0.5806510000000 1.0
C      1  0.4501330000000  0.4478730000000  0.5573700000000 1.0
C      1  0.4186940000000  0.4473530000000  0.4948490000000 1.0
C      1  0.4505040000000  0.4456030000000  0.4339710000000 1.0
C      1  0.5348210000000  0.4361810000000  0.4128980000000 1.0
C      1  0.5898640000000  0.4976910000000  0.4203690000000 1.0
C      1  0.6135240000000  0.4989270000000  0.5196500000000 1.0
C      1  0.5561410000000  0.5029780000000  0.6083580000000 1.0
C      1  0.4518100000000  0.5041530000000  0.6073330000000 1.0
C      1  0.3922280000000  0.5014980000000  0.5311510000000 1.0
C      1  0.4028950000000  0.4988920000000  0.4341870000000 1.0
C      1  0.4947440000000  0.5015510000000  0.3868790000000 1.0
C      1  0.4520810000000  0.4877170000000  0.4079840000000 1.0
C      1  0.5415120000000  0.4861750000000  0.4157300000000 1.0
C      1  0.6018820000000  0.4858570000000  0.4745090000000 1.0
C      1  0.5820040000000  0.4893010000000  0.5665710000000 1.0
C      1  0.4993720000000  0.4893100000000  0.6067690000000 1.0
C      1  0.4177340000000  0.4917600000000  0.5690160000000 1.0
C      1  0.4005840000000  0.4905070000000  0.4807740000000 1.0
C      1  0.4780660000000  0.3788150000000  0.5261290000000 1.0
C      1  0.4642200000000  0.3779410000000  0.4967970000000 1.0
C      1  0.4786460000000  0.3813260000000  0.4676650000000 1.0
C      1  0.5103550000000  0.3821280000000  0.4625990000000 1.0
C      1  0.5306570000000  0.3919220000000  0.4857980000000 1.0
C      1  0.5315470000000  0.3937010000000  0.5164440000000 1.0
C      1  0.5104330000000  0.3805710000000  0.5302350000000 1.0
C      1  0.5721700000000  0.4729740000000  0.4125710000000 1.0
C      1  0.6068400000000  0.4749350000000  0.5014430000000 1.0
C      1  0.5679200000000  0.4772230000000  0.5948580000000 1.0
C      1  0.4684310000000  0.4773460000000  0.6105510000000 1.0
C      1  0.4044890000000  0.4785510000000  0.5475420000000 1.0
C      1  0.4013320000000  0.4769570000000  0.4560500000000 1.0
C      1  0.4775260000000  0.4768170000000  0.3903880000000 1.0
C      1  0.5168850000000  0.5625880000000  0.5912480000000 1.0
C      1  0.4344910000000  0.5664730000000  0.5714890000000 1.0
C      1  0.4095300000000  0.5646340000000  0.4957480000000 1.0
C      1  0.4392760000000  0.5632950000000  0.4237820000000 1.0
C      1  0.5255350000000  0.5620610000000  0.4141100000000 1.0
C      1  0.5897980000000  0.5601940000000  0.4608970000000 1.0
C      1  0.5786400000000  0.5618570000000  0.5431910000000 1.0
C      1  0.4451080000000  0.5233340000000  0.4522180000000 1.0
C      1  0.5012450000000  0.5233570000000  0.4358350000000 1.0
C      1  0.5599370000000  0.5190180000000  0.4574680000000 1.0
C      1  0.5647190000000  0.5194680000000  0.5174930000000 1.0
C      1  0.5265000000000  0.5209920000000  0.5632060000000 1.0
C      1  0.4620680000000  0.5249680000000  0.5684010000000 1.0
C      1  0.4357340000000  0.5253570000000  0.5148100000000 1.0
C      1  0.5742210000000  0.5339220000000  0.5469520000000 1.0
C      1  0.5111470000000  0.5347170000000  0.5903260000000 1.0
C      1  0.4324530000000  0.5378860000000  0.5736140000000 1.0
C      1  0.4137810000000  0.5367830000000  0.4914670000000 1.0
C      1  0.4433880000000  0.5350040000000  0.4217860000000 1.0
C      1  0.5285770000000  0.5343810000000  0.4198360000000 1.0
C      1  0.5900210000000  0.5315920000000  0.4624560000000 1.0
C      1  0.4493460000000  0.5197670000000  0.4847570000000 1.0
C      1  0.4765780000000  0.5194210000000  0.4556140000000 1.0
C      1  0.5275220000000  0.5156790000000  0.4551660000000 1.0
C      1  0.5488860000000  0.5107240000000  0.4885740000000 1.0
C      1  0.5390070000000  0.5109110000000  0.5353970000000 1.0
C      1  0.4928440000000  0.5188930000000  0.5584920000000 1.0
C      1  0.4600700000000  0.5207800000000  0.5357950000000 1.0
C      1  0.4935410000000  0.4514230000000  0.4962540000000 1.0
C      1  0.5014950000000  0.5578730000000  0.5021280000000 1.0
C      1  0.5003300000000  0.5044260000000  0.5009990000000 1.0
C      1  0.4984860000000  0.4776570000000  0.4994320000000 1.0
C      1  0.4991740000000  0.5312350000000  0.5018530000000 1.0
END
