TITL C-2782235-7892-533 0.000274546961892188 125000 -951.76232661079 0 0 165 (C1) n - 1
REM
REM in /home/nfs/bkarasulu/CARBON/AIRSS/Generating-Clusters/REBO/Higher-Symm/SD-CG/HFTN-CG
REM
REM
REM
REM
REM
REM ./C.cell (12c818d87b63d06a65506943cc24bca4)
REM
REM compiler GCC version 9.2.1 20190827 (Red Hat 9.2.1-1)
REM options -cpp -mtune=generic -march=x86-64 -g -O0 -fpre-include=/usr/include/finclude/math-vector-fortran.h
REM seed -1870108416 1784958 783703065 1930788929 1644155825 -1495114901 -1041269464 439175188 -124156104 2023883496 -518037657 -1665061775 -2078677875 -947504708 506701656 -1353763210 -1237399820 -688172151 1021866453 -200800618 1327068245 807679517 -2124896542 1690957674 -1022531142 512113626 285190277 809803104 -1742237599 1087416613 -1114353239 -101300343 1802747942
REM
CELL 1.54180   50.00000   50.00000   50.00000   90.00000   90.00000   90.00000
LATT -1
SFAC C  
C      1  0.4722620000000  0.5213140000000  0.4745650000000 1.0
C      1  0.5313610000000  0.5271230000000  0.5290600000000 1.0
C      1  0.4690630000000  0.4734600000000  0.4749290000000 1.0
C      1  0.5307550000000  0.4751800000000  0.5283820000000 1.0
C      1  0.5301010000000  0.5239640000000  0.4673650000000 1.0
C      1  0.4706190000000  0.5182860000000  0.5259740000000 1.0
C      1  0.5285020000000  0.4769230000000  0.4666060000000 1.0
C      1  0.4697160000000  0.4783450000000  0.5269540000000 1.0
C      1  0.5858820000000  0.5322620000000  0.5558160000000 1.0
C      1  0.4122450000000  0.5298310000000  0.4443050000000 1.0
C      1  0.5842830000000  0.4687060000000  0.5561350000000 1.0
C      1  0.4135730000000  0.4663810000000  0.4439300000000 1.0
C      1  0.4119660000000  0.5339600000000  0.5581390000000 1.0
C      1  0.5896040000000  0.5325020000000  0.4408620000000 1.0
C      1  0.4108760000000  0.4707880000000  0.5571100000000 1.0
C      1  0.5891990000000  0.4690050000000  0.4405560000000 1.0
C      1  0.4874580000000  0.5712290000000  0.4384990000000 1.0
C      1  0.5146080000000  0.5741720000000  0.5646320000000 1.0
C      1  0.4883070000000  0.4261210000000  0.4374800000000 1.0
C      1  0.5116760000000  0.4277390000000  0.5623790000000 1.0
C      1  0.5153220000000  0.5720510000000  0.4354900000000 1.0
C      1  0.4867390000000  0.5729160000000  0.5636910000000 1.0
C      1  0.5163650000000  0.4276230000000  0.4356550000000 1.0
C      1  0.4836230000000  0.4248960000000  0.5632860000000 1.0
C      1  0.4461260000000  0.5508660000000  0.4423380000000 1.0
C      1  0.5537760000000  0.5546990000000  0.5631950000000 1.0
C      1  0.4474530000000  0.4461620000000  0.4376060000000 1.0
C      1  0.5514220000000  0.4471190000000  0.5631230000000 1.0
C      1  0.5567870000000  0.5543670000000  0.4343040000000 1.0
C      1  0.4457870000000  0.5550150000000  0.5614880000000 1.0
C      1  0.5565210000000  0.4468340000000  0.4343100000000 1.0
C      1  0.4422230000000  0.4464210000000  0.5617790000000 1.0
C      1  0.5174840000000  0.5488260000000  0.4828340000000 1.0
C      1  0.4818510000000  0.5469350000000  0.5184240000000 1.0
C      1  0.5171400000000  0.4514560000000  0.4823720000000 1.0
C      1  0.4832550000000  0.4507910000000  0.5182930000000 1.0
C      1  0.4868300000000  0.5469310000000  0.4861110000000 1.0
C      1  0.5137360000000  0.5496310000000  0.5152970000000 1.0
C      1  0.4860950000000  0.4493130000000  0.4861020000000 1.0
C      1  0.5139120000000  0.4519940000000  0.5144910000000 1.0
C      1  0.5593420000000  0.4757180000000  0.5140540000000 1.0
C      1  0.4380880000000  0.4713650000000  0.4869280000000 1.0
C      1  0.5599010000000  0.5258510000000  0.5143200000000 1.0
C      1  0.4405130000000  0.5215760000000  0.4844940000000 1.0
C      1  0.4380470000000  0.4778990000000  0.5181000000000 1.0
C      1  0.5587140000000  0.4834170000000  0.4809640000000 1.0
C      1  0.4399310000000  0.5282460000000  0.5163170000000 1.0
C      1  0.5595850000000  0.5177450000000  0.4814930000000 1.0
C      1  0.3877520000000  0.4788280000000  0.5130780000000 1.0
C      1  0.6113140000000  0.4732180000000  0.4875400000000 1.0
C      1  0.3898530000000  0.5284230000000  0.5120690000000 1.0
C      1  0.6123070000000  0.5272410000000  0.4875250000000 1.0
C      1  0.6096650000000  0.4743030000000  0.5123680000000 1.0
C      1  0.3882300000000  0.4744040000000  0.4884390000000 1.0
C      1  0.6105050000000  0.5257420000000  0.5123110000000 1.0
C      1  0.3902010000000  0.5240940000000  0.4874410000000 1.0
C      1  0.4399430000000  0.4867710000000  0.4426890000000 1.0
C      1  0.5574450000000  0.4886500000000  0.5564970000000 1.0
C      1  0.4394390000000  0.5115190000000  0.4404650000000 1.0
C      1  0.5579760000000  0.5135350000000  0.5565880000000 1.0
C      1  0.5620080000000  0.4885380000000  0.4406010000000 1.0
C      1  0.4383710000000  0.4895980000000  0.5598930000000 1.0
C      1  0.5622470000000  0.5133900000000  0.4409420000000 1.0
C      1  0.4387030000000  0.5144560000000  0.5603850000000 1.0
C      1  0.5181310000000  0.5289190000000  0.4124570000000 1.0
C      1  0.4866650000000  0.5237850000000  0.5800520000000 1.0
C      1  0.5172330000000  0.4719210000000  0.4122360000000 1.0
C      1  0.4813060000000  0.4676320000000  0.5863860000000 1.0
C      1  0.4863550000000  0.5257150000000  0.4170330000000 1.0
C      1  0.5179440000000  0.5297650000000  0.5847440000000 1.0
C      1  0.4843370000000  0.4699000000000  0.4162600000000 1.0
C      1  0.5141640000000  0.4734770000000  0.5834430000000 1.0
C      1  0.5527790000000  0.4153140000000  0.4840920000000 1.0
C      1  0.4478000000000  0.4126910000000  0.5149580000000 1.0
C      1  0.5521620000000  0.5856940000000  0.4840100000000 1.0
C      1  0.4484440000000  0.5944160000000  0.5207000000000 1.0
C      1  0.4556340000000  0.4067640000000  0.4824500000000 1.0
C      1  0.5454890000000  0.4089440000000  0.5159750000000 1.0
C      1  0.4546600000000  0.5861280000000  0.4885600000000 1.0
C      1  0.5460040000000  0.5927480000000  0.5158140000000 1.0
C      1  0.4513620000000  0.5404550000000  0.5878310000000 1.0
C      1  0.5567780000000  0.5387850000000  0.4106900000000 1.0
C      1  0.4420980000000  0.4601670000000  0.5864890000000 1.0
C      1  0.5560900000000  0.4626060000000  0.4109180000000 1.0
C      1  0.5565820000000  0.5392880000000  0.5869770000000 1.0
C      1  0.4493200000000  0.5398530000000  0.4141320000000 1.0
C      1  0.5525470000000  0.4627550000000  0.5864320000000 1.0
C      1  0.4456200000000  0.4604620000000  0.4133170000000 1.0
C      1  0.4148550000000  0.5124620000000  0.4719800000000 1.0
C      1  0.5856290000000  0.5158420000000  0.5278520000000 1.0
C      1  0.4135320000000  0.4818340000000  0.4722650000000 1.0
C      1  0.5851070000000  0.4849440000000  0.5279020000000 1.0
C      1  0.5908840000000  0.5166420000000  0.4686140000000 1.0
C      1  0.4135490000000  0.5189340000000  0.5296500000000 1.0
C      1  0.5903570000000  0.4846060000000  0.4684600000000 1.0
C      1  0.4123080000000  0.4884240000000  0.5296350000000 1.0
C      1  0.4222140000000  0.4347180000000  0.4485710000000 1.0
C      1  0.5771240000000  0.4371810000000  0.5515300000000 1.0
C      1  0.4206800000000  0.5613280000000  0.4530450000000 1.0
C      1  0.5789960000000  0.5642630000000  0.5501990000000 1.0
C      1  0.5826160000000  0.4385080000000  0.4456800000000 1.0
C      1  0.4162460000000  0.4395020000000  0.5496170000000 1.0
C      1  0.5827120000000  0.5630160000000  0.4459370000000 1.0
C      1  0.4191400000000  0.5646050000000  0.5537110000000 1.0
C      1  0.5422490000000  0.4868380000000  0.4002270000000 1.0
C      1  0.4568090000000  0.4844020000000  0.5967230000000 1.0
C      1  0.5428670000000  0.5141600000000  0.4001480000000 1.0
C      1  0.4588680000000  0.5115370000000  0.5948010000000 1.0
C      1  0.4591730000000  0.4849860000000  0.4030910000000 1.0
C      1  0.5397250000000  0.4872540000000  0.5976430000000 1.0
C      1  0.4590210000000  0.5120950000000  0.4044030000000 1.0
C      1  0.5421330000000  0.5145050000000  0.5975050000000 1.0
C      1  0.4209530000000  0.5864650000000  0.5373830000000 1.0
C      1  0.5793630000000  0.5816140000000  0.4657080000000 1.0
C      1  0.4188430000000  0.4187220000000  0.5317270000000 1.0
C      1  0.5796950000000  0.4200790000000  0.4656540000000 1.0
C      1  0.5738700000000  0.5859170000000  0.5341060000000 1.0
C      1  0.4261220000000  0.5825200000000  0.4701790000000 1.0
C      1  0.5726530000000  0.4154090000000  0.5354040000000 1.0
C      1  0.4277980000000  0.4123670000000  0.4636620000000 1.0
C      1  0.5226320000000  0.5604220000000  0.5874300000000 1.0
C      1  0.4758870000000  0.5572150000000  0.4164420000000 1.0
C      1  0.5187100000000  0.4416770000000  0.5854200000000 1.0
C      1  0.4790520000000  0.4387630000000  0.4142560000000 1.0
C      1  0.4781040000000  0.5563410000000  0.5848850000000 1.0
C      1  0.5228250000000  0.5598540000000  0.4116730000000 1.0
C      1  0.4751420000000  0.4369650000000  0.5872490000000 1.0
C      1  0.5229370000000  0.4404470000000  0.4118210000000 1.0
C      1  0.5199840000000  0.5922900000000  0.4856290000000 1.0
C      1  0.4802280000000  0.6003020000000  0.5164740000000 1.0
C      1  0.5213140000000  0.4055820000000  0.4844720000000 1.0
C      1  0.4796900000000  0.4041400000000  0.5141400000000 1.0
C      1  0.4881560000000  0.5921430000000  0.4862720000000 1.0
C      1  0.5126290000000  0.5997370000000  0.5164430000000 1.0
C      1  0.4894550000000  0.4028210000000  0.4830700000000 1.0
C      1  0.5118760000000  0.4033490000000  0.5156090000000 1.0
C      1  0.5524420000000  0.4423240000000  0.5139770000000 1.0
C      1  0.4475330000000  0.4394640000000  0.4852770000000 1.0
C      1  0.5522990000000  0.5591290000000  0.5138810000000 1.0
C      1  0.4475170000000  0.5527890000000  0.4857690000000 1.0
C      1  0.4437580000000  0.4464180000000  0.5175720000000 1.0
C      1  0.5568710000000  0.4490470000000  0.4810390000000 1.0
C      1  0.4444170000000  0.5608040000000  0.5176750000000 1.0
C      1  0.5570820000000  0.5521420000000  0.4809020000000 1.0
C      1  0.5113470000000  0.4847000000000  0.4417690000000 1.0
C      1  0.4851490000000  0.4776150000000  0.5559330000000 1.0
C      1  0.5155110000000  0.5163380000000  0.4424610000000 1.0
C      1  0.4847010000000  0.5093980000000  0.5507180000000 1.0
C      1  0.4790960000000  0.4809590000000  0.4476400000000 1.0
C      1  0.5169690000000  0.4859730000000  0.5530100000000 1.0
C      1  0.4829980000000  0.5121640000000  0.4479750000000 1.0
C      1  0.5173780000000  0.5174080000000  0.5540660000000 1.0
C      1  0.5303340000000  0.4370080000000  0.5395890000000 1.0
C      1  0.4701310000000  0.4363890000000  0.4600290000000 1.0
C      1  0.5311920000000  0.5651900000000  0.5401530000000 1.0
C      1  0.4703630000000  0.5610060000000  0.4618370000000 1.0
C      1  0.4660270000000  0.4363120000000  0.5414400000000 1.0
C      1  0.5345170000000  0.4385950000000  0.4574390000000 1.0
C      1  0.4689170000000  0.5661730000000  0.5400540000000 1.0
C      1  0.5343570000000  0.5622370000000  0.4573070000000 1.0
C      1  0.4009030000000  0.5024500000000  0.5652130000000 1.0
C      1  0.5992950000000  0.5007170000000  0.4329730000000 1.0
C      1  0.4020080000000  0.4979080000000  0.4371570000000 1.0
C      1  0.5950450000000  0.5002730000000  0.5634350000000 1.0
C      1  0.4692110000000  0.4977140000000  0.4988750000000 1.0
END
