TITL C-2782225-7408-1325 0.00369612223095517 125000 -1187.62145003884 0 0 199 (C1) n - 1
REM
REM in /home/nfs/bkarasulu/CARBON/AIRSS/Generating-Clusters/REBO/Higher-Symm/SD-CG/HFTN-CG
REM
REM
REM
REM
REM
REM ./C.cell (12c818d87b63d06a65506943cc24bca4)
REM
REM compiler GCC version 9.2.1 20190827 (Red Hat 9.2.1-1)
REM options -cpp -mtune=generic -march=x86-64 -g -O0 -fpre-include=/usr/include/finclude/math-vector-fortran.h
REM seed -1015618963 -317507361 798497005 494156697 -1215649261 -1112473525 706784101 -1119737850 1043448803 -1609604781 -684629166 -1297235372 -1608089706 -936223232 -809456248 -1107692509 -255891847 754292907 1190119433 -760979730 1196231191 -296489830 -2008651336 -1791907847 -1810013603 -276826414 -495752249 2114277553 -1187844668 -1482047463 1441724842 404930451 455116780
REM
CELL 1.54180   50.00000   50.00000   50.00000   90.00000   90.00000   90.00000
LATT -1
SFAC C  
C      1  0.5238090000000  0.4604240000000  0.5017060000000 1.0
C      1  0.5286090000000  0.5495720000000  0.5109530000000 1.0
C      1  0.5263400000000  0.4132950000000  0.4463590000000 1.0
C      1  0.5153490000000  0.5973950000000  0.4506640000000 1.0
C      1  0.4684920000000  0.4332660000000  0.5115850000000 1.0
C      1  0.4557470000000  0.5759710000000  0.4962030000000 1.0
C      1  0.5143720000000  0.5521420000000  0.4066880000000 1.0
C      1  0.5044060000000  0.4355000000000  0.3955800000000 1.0
C      1  0.4294070000000  0.5396190000000  0.5236150000000 1.0
C      1  0.4245720000000  0.4554910000000  0.5137750000000 1.0
C      1  0.4569780000000  0.4808270000000  0.5987500000000 1.0
C      1  0.4580530000000  0.5090870000000  0.5991800000000 1.0
C      1  0.4867890000000  0.5107630000000  0.5714230000000 1.0
C      1  0.4851890000000  0.4861390000000  0.5709340000000 1.0
C      1  0.5186450000000  0.5242390000000  0.4234560000000 1.0
C      1  0.5165760000000  0.4935910000000  0.4197070000000 1.0
C      1  0.3936180000000  0.4753130000000  0.5293050000000 1.0
C      1  0.3889470000000  0.5255910000000  0.5291030000000 1.0
C      1  0.4863490000000  0.3940350000000  0.5038670000000 1.0
C      1  0.4906320000000  0.6113570000000  0.5122280000000 1.0
C      1  0.4894350000000  0.5777220000000  0.4917360000000 1.0
C      1  0.4999410000000  0.4306400000000  0.5118400000000 1.0
C      1  0.5524150000000  0.4543820000000  0.5981330000000 1.0
C      1  0.5545390000000  0.5404490000000  0.6051330000000 1.0
C      1  0.5207330000000  0.4770800000000  0.4468290000000 1.0
C      1  0.5195290000000  0.5342090000000  0.4549050000000 1.0
C      1  0.4050110000000  0.4568880000000  0.4380850000000 1.0
C      1  0.4095200000000  0.5389770000000  0.4300320000000 1.0
C      1  0.4946870000000  0.4603430000000  0.3860540000000 1.0
C      1  0.5011370000000  0.5305030000000  0.3881170000000 1.0
C      1  0.4831260000000  0.5202990000000  0.4255230000000 1.0
C      1  0.4878330000000  0.4789270000000  0.4244450000000 1.0
C      1  0.5106950000000  0.5583670000000  0.5371890000000 1.0
C      1  0.5098230000000  0.4642010000000  0.5312230000000 1.0
C      1  0.5893320000000  0.4695150000000  0.4536290000000 1.0
C      1  0.5934710000000  0.5285230000000  0.4504950000000 1.0
C      1  0.4706210000000  0.5303380000000  0.3955300000000 1.0
C      1  0.4678310000000  0.4652030000000  0.4012990000000 1.0
C      1  0.4452380000000  0.5771180000000  0.4475900000000 1.0
C      1  0.4405620000000  0.4208210000000  0.4526990000000 1.0
C      1  0.4015180000000  0.4407910000000  0.4661210000000 1.0
C      1  0.3975460000000  0.5597520000000  0.4530510000000 1.0
C      1  0.4573070000000  0.4905320000000  0.4302080000000 1.0
C      1  0.4520390000000  0.5227220000000  0.4401300000000 1.0
C      1  0.4251980000000  0.5674840000000  0.4256590000000 1.0
C      1  0.4204280000000  0.4288080000000  0.4330060000000 1.0
C      1  0.5185710000000  0.5597990000000  0.5955700000000 1.0
C      1  0.5185060000000  0.4335390000000  0.6011130000000 1.0
C      1  0.5117030000000  0.5229860000000  0.5186550000000 1.0
C      1  0.5248670000000  0.5016940000000  0.5299760000000 1.0
C      1  0.5730900000000  0.5554810000000  0.5427970000000 1.0
C      1  0.5486750000000  0.4494020000000  0.5308980000000 1.0
C      1  0.5293880000000  0.4709970000000  0.5828520000000 1.0
C      1  0.5344380000000  0.5247380000000  0.5850700000000 1.0
C      1  0.5294530000000  0.5872660000000  0.5619380000000 1.0
C      1  0.5277830000000  0.4106970000000  0.5577490000000 1.0
C      1  0.4327780000000  0.4279160000000  0.5581210000000 1.0
C      1  0.4369750000000  0.5707520000000  0.5584380000000 1.0
C      1  0.5499630000000  0.5341160000000  0.5495980000000 1.0
C      1  0.5466930000000  0.4784220000000  0.5371570000000 1.0
C      1  0.5855480000000  0.4810060000000  0.5688850000000 1.0
C      1  0.5936190000000  0.5127720000000  0.5603150000000 1.0
C      1  0.4568490000000  0.4136660000000  0.5463190000000 1.0
C      1  0.4586280000000  0.5776870000000  0.5389050000000 1.0
C      1  0.5888950000000  0.4830870000000  0.5053320000000 1.0
C      1  0.5920700000000  0.5134830000000  0.4973150000000 1.0
C      1  0.5143190000000  0.4637020000000  0.5554130000000 1.0
C      1  0.5241660000000  0.5476860000000  0.5635190000000 1.0
C      1  0.5415740000000  0.3988400000000  0.5288450000000 1.0
C      1  0.5371560000000  0.5881700000000  0.5342960000000 1.0
C      1  0.4115620000000  0.4807980000000  0.5772580000000 1.0
C      1  0.4112580000000  0.5099630000000  0.5773110000000 1.0
C      1  0.4187240000000  0.5132610000000  0.4130970000000 1.0
C      1  0.4095920000000  0.4803800000000  0.4139230000000 1.0
C      1  0.4473470000000  0.5209090000000  0.4719350000000 1.0
C      1  0.4532100000000  0.4899680000000  0.4625900000000 1.0
C      1  0.4935850000000  0.4594710000000  0.4511730000000 1.0
C      1  0.4928550000000  0.5462230000000  0.4443200000000 1.0
C      1  0.4203440000000  0.4886650000000  0.5162310000000 1.0
C      1  0.4131020000000  0.5175870000000  0.5092050000000 1.0
C      1  0.6038630000000  0.5102960000000  0.5300860000000 1.0
C      1  0.6084710000000  0.4770950000000  0.5325450000000 1.0
C      1  0.5088660000000  0.6044150000000  0.4833280000000 1.0
C      1  0.5153510000000  0.4031530000000  0.4990560000000 1.0
C      1  0.4789750000000  0.5611220000000  0.4676300000000 1.0
C      1  0.4931480000000  0.4444090000000  0.4816280000000 1.0
C      1  0.5104840000000  0.5126320000000  0.6035760000000 1.0
C      1  0.5096250000000  0.4839750000000  0.6039950000000 1.0
C      1  0.4436260000000  0.5448710000000  0.5750200000000 1.0
C      1  0.4355470000000  0.4390020000000  0.5845310000000 1.0
C      1  0.4628630000000  0.5169140000000  0.5341990000000 1.0
C      1  0.4499960000000  0.4883870000000  0.5299890000000 1.0
C      1  0.6144280000000  0.5110450000000  0.4644660000000 1.0
C      1  0.6105950000000  0.4841750000000  0.4690210000000 1.0
C      1  0.5477800000000  0.4889410000000  0.4638430000000 1.0
C      1  0.5660740000000  0.5125450000000  0.4785360000000 1.0
C      1  0.4838240000000  0.4638650000000  0.5948060000000 1.0
C      1  0.4833400000000  0.5318400000000  0.5959310000000 1.0
C      1  0.4333990000000  0.4670570000000  0.5907430000000 1.0
C      1  0.4346800000000  0.5221070000000  0.5891730000000 1.0
C      1  0.4786040000000  0.3998280000000  0.5310590000000 1.0
C      1  0.4813450000000  0.5955500000000  0.5412480000000 1.0
C      1  0.4936930000000  0.4241860000000  0.4261350000000 1.0
C      1  0.4906300000000  0.5742370000000  0.4138260000000 1.0
C      1  0.4856270000000  0.5525560000000  0.5542950000000 1.0
C      1  0.4708930000000  0.4393140000000  0.5617200000000 1.0
C      1  0.4533660000000  0.4259930000000  0.4899800000000 1.0
C      1  0.4309780000000  0.5770560000000  0.4848620000000 1.0
C      1  0.5876510000000  0.5440230000000  0.5672190000000 1.0
C      1  0.5928160000000  0.4545380000000  0.5717970000000 1.0
C      1  0.5473370000000  0.5711510000000  0.5859610000000 1.0
C      1  0.5418350000000  0.4239460000000  0.5818220000000 1.0
C      1  0.4506520000000  0.3963060000000  0.4637740000000 1.0
C      1  0.4623920000000  0.5971900000000  0.4630160000000 1.0
C      1  0.5609830000000  0.5123070000000  0.5699530000000 1.0
C      1  0.5534680000000  0.4827540000000  0.5656610000000 1.0
C      1  0.5265180000000  0.4243870000000  0.4160220000000 1.0
C      1  0.5227370000000  0.5787020000000  0.4250410000000 1.0
C      1  0.4165120000000  0.5504000000000  0.5464360000000 1.0
C      1  0.4154820000000  0.4434760000000  0.5420170000000 1.0
C      1  0.5761370000000  0.4841800000000  0.4333670000000 1.0
C      1  0.5764330000000  0.5144930000000  0.4326670000000 1.0
C      1  0.4769670000000  0.3973370000000  0.4752990000000 1.0
C      1  0.4696630000000  0.6117590000000  0.4853270000000 1.0
C      1  0.5757840000000  0.5685230000000  0.4943100000000 1.0
C      1  0.5674700000000  0.4252130000000  0.4947800000000 1.0
C      1  0.6033490000000  0.4572500000000  0.4885980000000 1.0
C      1  0.6113540000000  0.5382380000000  0.4844320000000 1.0
C      1  0.5596540000000  0.4678130000000  0.4172140000000 1.0
C      1  0.5588260000000  0.5306590000000  0.4162890000000 1.0
C      1  0.5123740000000  0.4809900000000  0.3819890000000 1.0
C      1  0.5193840000000  0.5106160000000  0.3820130000000 1.0
C      1  0.5463560000000  0.5155590000000  0.3961160000000 1.0
C      1  0.5403740000000  0.4823850000000  0.4005950000000 1.0
C      1  0.5452180000000  0.4572770000000  0.4559780000000 1.0
C      1  0.5388100000000  0.5546570000000  0.4597680000000 1.0
C      1  0.4405600000000  0.4816160000000  0.4028980000000 1.0
C      1  0.4452640000000  0.5141900000000  0.3997170000000 1.0
C      1  0.3647360000000  0.5119730000000  0.5235240000000 1.0
C      1  0.3679040000000  0.4845990000000  0.5221060000000 1.0
C      1  0.5763860000000  0.5566990000000  0.5900780000000 1.0
C      1  0.5730830000000  0.4376110000000  0.5808030000000 1.0
C      1  0.4951490000000  0.4150520000000  0.5569540000000 1.0
C      1  0.4999530000000  0.5884340000000  0.5637280000000 1.0
C      1  0.5739530000000  0.4401310000000  0.5208010000000 1.0
C      1  0.5857350000000  0.5481200000000  0.5153750000000 1.0
C      1  0.5184040000000  0.4555120000000  0.6186720000000 1.0
C      1  0.5163630000000  0.5402850000000  0.6169860000000 1.0
C      1  0.5906860000000  0.5584980000000  0.4665680000000 1.0
C      1  0.5824720000000  0.4396580000000  0.4684510000000 1.0
C      1  0.5512230000000  0.4393070000000  0.4291530000000 1.0
C      1  0.5511570000000  0.5602980000000  0.4290920000000 1.0
C      1  0.5342970000000  0.4109600000000  0.4782090000000 1.0
C      1  0.5390520000000  0.5926650000000  0.4721030000000 1.0
C      1  0.6014940000000  0.4489180000000  0.5208070000000 1.0
C      1  0.6161220000000  0.5378050000000  0.5168890000000 1.0
C      1  0.5054960000000  0.4885990000000  0.4976850000000 1.0
C      1  0.5133310000000  0.5114590000000  0.4768820000000 1.0
C      1  0.5587180000000  0.5090620000000  0.6125680000000 1.0
C      1  0.5575300000000  0.4843670000000  0.6095220000000 1.0
C      1  0.5398120000000  0.5266260000000  0.4905670000000 1.0
C      1  0.5396260000000  0.4870320000000  0.4942130000000 1.0
C      1  0.5266710000000  0.4281190000000  0.5297240000000 1.0
C      1  0.5108240000000  0.5844020000000  0.5172450000000 1.0
C      1  0.4629050000000  0.5370190000000  0.5530290000000 1.0
C      1  0.4580770000000  0.4660980000000  0.5522090000000 1.0
C      1  0.5608640000000  0.4950960000000  0.5140580000000 1.0
C      1  0.5601920000000  0.5264580000000  0.5185610000000 1.0
C      1  0.4643400000000  0.4374180000000  0.4149820000000 1.0
C      1  0.4654030000000  0.5613640000000  0.3997980000000 1.0
C      1  0.4353670000000  0.4272700000000  0.4091430000000 1.0
C      1  0.4358130000000  0.5711770000000  0.4004310000000 1.0
C      1  0.4178330000000  0.5274230000000  0.4811060000000 1.0
C      1  0.4465580000000  0.4585860000000  0.4679990000000 1.0
C      1  0.5615460000000  0.5784630000000  0.5238810000000 1.0
C      1  0.5586510000000  0.3972720000000  0.5069080000000 1.0
C      1  0.4654210000000  0.4421480000000  0.4477470000000 1.0
C      1  0.4619780000000  0.5534810000000  0.4323050000000 1.0
C      1  0.4116790000000  0.5577260000000  0.4767640000000 1.0
C      1  0.4255790000000  0.4438280000000  0.4850870000000 1.0
C      1  0.4111440000000  0.5147530000000  0.4527490000000 1.0
C      1  0.4084070000000  0.4898950000000  0.4457250000000 1.0
C      1  0.3995110000000  0.4647060000000  0.5563620000000 1.0
C      1  0.3985610000000  0.5284690000000  0.5581490000000 1.0
C      1  0.5589320000000  0.4198230000000  0.4559420000000 1.0
C      1  0.5646000000000  0.5755430000000  0.4566100000000 1.0
C      1  0.5445940000000  0.5662220000000  0.4898600000000 1.0
C      1  0.5409230000000  0.4429130000000  0.4828460000000 1.0
C      1  0.4891830000000  0.5633010000000  0.5839490000000 1.0
C      1  0.4922980000000  0.4338910000000  0.5854440000000 1.0
C      1  0.4749350000000  0.4891520000000  0.5084480000000 1.0
C      1  0.4830280000000  0.5213210000000  0.5097370000000 1.0
C      1  0.4523990000000  0.4486880000000  0.5276030000000 1.0
C      1  0.4560930000000  0.5522130000000  0.5167240000000 1.0
C      1  0.4674450000000  0.5387740000000  0.4874780000000 1.0
C      1  0.4726760000000  0.4709830000000  0.4832260000000 1.0
C      1  0.4954000000000  0.4185860000000  0.4595590000000 1.0
C      1  0.4865300000000  0.5853190000000  0.4439830000000 1.0
C      1  0.4928380000000  0.5046610000000  0.4541540000000 1.0
END
