TITL C-2782226-7400-1181 0.00533400271003892 125000 -1120.27813170576 0 0 196 (C1) n - 1
REM
REM in /home/nfs/bkarasulu/CARBON/AIRSS/Generating-Clusters/REBO/Higher-Symm/SD-CG/HFTN-CG
REM
REM
REM
REM
REM
REM ./C.cell (12c818d87b63d06a65506943cc24bca4)
REM
REM compiler GCC version 9.2.1 20190827 (Red Hat 9.2.1-1)
REM options -cpp -mtune=generic -march=x86-64 -g -O0 -fpre-include=/usr/include/finclude/math-vector-fortran.h
REM seed 1245638099 849285513 167547870 -1160603609 1507462424 134202643 -2096374662 -37321062 -1053339012 1654692895 -701370359 -2002763974 -1333325057 -723118969 1470702369 -239576182 1411833708 122278473 651533290 877926605 2093878388 2121099954 -382869788 -925509531 -955084526 -1503912588 -2006003662 1031456694 -957882517 1785954480 -2004066645 13628313 -1341006195
REM
CELL 1.54180   50.00000   50.00000   50.00000   90.00000   90.00000   90.00000
LATT -1
SFAC C  
C      1  0.5609630000000  0.4242780000000  0.5448130000000 1.0
C      1  0.5385970000000  0.5912050000000  0.5492190000000 1.0
C      1  0.3963360000000  0.4879130000000  0.5486890000000 1.0
C      1  0.4251350000000  0.4282230000000  0.4575290000000 1.0
C      1  0.4697210000000  0.5903900000000  0.4628900000000 1.0
C      1  0.6068400000000  0.4840040000000  0.4597460000000 1.0
C      1  0.5165690000000  0.5842270000000  0.5022280000000 1.0
C      1  0.4161720000000  0.4857130000000  0.5014250000000 1.0
C      1  0.5543060000000  0.4469020000000  0.4977100000000 1.0
C      1  0.4771270000000  0.5818510000000  0.5083680000000 1.0
C      1  0.5863940000000  0.4811550000000  0.4937800000000 1.0
C      1  0.4330380000000  0.4447790000000  0.4927230000000 1.0
C      1  0.3970840000000  0.5330580000000  0.5406540000000 1.0
C      1  0.5024750000000  0.3975750000000  0.5300360000000 1.0
C      1  0.5867150000000  0.5582790000000  0.5350930000000 1.0
C      1  0.6102550000000  0.5408270000000  0.4461220000000 1.0
C      1  0.4885140000000  0.3904950000000  0.4592990000000 1.0
C      1  0.4183610000000  0.5587360000000  0.4639060000000 1.0
C      1  0.5269800000000  0.5216750000000  0.5759740000000 1.0
C      1  0.4655940000000  0.5067080000000  0.5709160000000 1.0
C      1  0.5065100000000  0.4676320000000  0.5696690000000 1.0
C      1  0.4787440000000  0.5135970000000  0.4309320000000 1.0
C      1  0.5329310000000  0.5215350000000  0.4363920000000 1.0
C      1  0.4899460000000  0.4659700000000  0.4358120000000 1.0
C      1  0.5128360000000  0.4113140000000  0.4832870000000 1.0
C      1  0.5785830000000  0.5631460000000  0.4813590000000 1.0
C      1  0.4165510000000  0.5485250000000  0.4948470000000 1.0
C      1  0.4906520000000  0.4049160000000  0.5027810000000 1.0
C      1  0.4230500000000  0.5670270000000  0.5191390000000 1.0
C      1  0.5864930000000  0.5454560000000  0.5067990000000 1.0
C      1  0.5174830000000  0.5623960000000  0.5913980000000 1.0
C      1  0.4359260000000  0.4817860000000  0.5906590000000 1.0
C      1  0.5440290000000  0.4535020000000  0.5843060000000 1.0
C      1  0.4842210000000  0.5753560000000  0.4067400000000 1.0
C      1  0.5674810000000  0.4806480000000  0.4047000000000 1.0
C      1  0.4484550000000  0.4422290000000  0.4075400000000 1.0
C      1  0.5217540000000  0.4695630000000  0.4341470000000 1.0
C      1  0.5089260000000  0.5440390000000  0.4460110000000 1.0
C      1  0.4578300000000  0.4878470000000  0.4282480000000 1.0
C      1  0.4586450000000  0.4678180000000  0.5694820000000 1.0
C      1  0.4962320000000  0.5459120000000  0.5708060000000 1.0
C      1  0.5431000000000  0.4824250000000  0.5662820000000 1.0
C      1  0.3996720000000  0.4449210000000  0.4574000000000 1.0
C      1  0.5966930000000  0.4554340000000  0.4571480000000 1.0
C      1  0.4903280000000  0.6143660000000  0.4633820000000 1.0
C      1  0.5891420000000  0.4431920000000  0.5426720000000 1.0
C      1  0.3975040000000  0.4562540000000  0.5429850000000 1.0
C      1  0.5157560000000  0.6123090000000  0.5351330000000 1.0
C      1  0.4147880000000  0.4984040000000  0.5737980000000 1.0
C      1  0.5379810000000  0.4274530000000  0.5646500000000 1.0
C      1  0.5444010000000  0.5729750000000  0.5742670000000 1.0
C      1  0.5789570000000  0.5065230000000  0.4134850000000 1.0
C      1  0.4655220000000  0.4212070000000  0.4214020000000 1.0
C      1  0.4608250000000  0.5591140000000  0.4230970000000 1.0
C      1  0.5831410000000  0.4424790000000  0.4844530000000 1.0
C      1  0.5180810000000  0.5980680000000  0.4741540000000 1.0
C      1  0.3996920000000  0.4646980000000  0.4840260000000 1.0
C      1  0.4083250000000  0.4481100000000  0.5125120000000 1.0
C      1  0.4901400000000  0.6028070000000  0.5298230000000 1.0
C      1  0.5961120000000  0.4571790000000  0.5123950000000 1.0
C      1  0.4551140000000  0.5898360000000  0.4867980000000 1.0
C      1  0.4418020000000  0.4137890000000  0.4809380000000 1.0
C      1  0.6083720000000  0.5038810000000  0.4837180000000 1.0
C      1  0.5447450000000  0.5921400000000  0.5164440000000 1.0
C      1  0.5551780000000  0.4068650000000  0.5187140000000 1.0
C      1  0.3968440000000  0.5065750000000  0.5201450000000 1.0
C      1  0.5236840000000  0.4404660000000  0.4923190000000 1.0
C      1  0.5492020000000  0.5569930000000  0.4981700000000 1.0
C      1  0.4388560000000  0.5250200000000  0.4947660000000 1.0
C      1  0.4752660000000  0.4352460000000  0.5063730000000 1.0
C      1  0.4641540000000  0.5555140000000  0.5213800000000 1.0
C      1  0.5712040000000  0.5146320000000  0.5093430000000 1.0
C      1  0.5965810000000  0.5164060000000  0.5321780000000 1.0
C      1  0.4407370000000  0.6110670000000  0.5296800000000 1.0
C      1  0.4627640000000  0.4139360000000  0.5299490000000 1.0
C      1  0.4041210000000  0.5124960000000  0.4633460000000 1.0
C      1  0.5431470000000  0.5792010000000  0.4728650000000 1.0
C      1  0.5470470000000  0.4125490000000  0.4637410000000 1.0
C      1  0.4823080000000  0.4021630000000  0.5527390000000 1.0
C      1  0.5923900000000  0.5350180000000  0.5549950000000 1.0
C      1  0.4171260000000  0.5559100000000  0.5460030000000 1.0
C      1  0.5187180000000  0.4027640000000  0.4506190000000 1.0
C      1  0.4125910000000  0.5350010000000  0.4444690000000 1.0
C      1  0.5873910000000  0.5611180000000  0.4505380000000 1.0
C      1  0.5284760000000  0.4317020000000  0.3881740000000 1.0
C      1  0.5302140000000  0.5505570000000  0.3908310000000 1.0
C      1  0.4321000000000  0.4891610000000  0.3853180000000 1.0
C      1  0.4703210000000  0.4394780000000  0.6137320000000 1.0
C      1  0.4633890000000  0.5525050000000  0.6162140000000 1.0
C      1  0.5633700000000  0.4997330000000  0.6157300000000 1.0
C      1  0.5153530000000  0.5723400000000  0.5339500000000 1.0
C      1  0.4256720000000  0.4817830000000  0.5322370000000 1.0
C      1  0.5595540000000  0.4524340000000  0.5274950000000 1.0
C      1  0.4857140000000  0.5655790000000  0.4453830000000 1.0
C      1  0.5723870000000  0.4861480000000  0.4638200000000 1.0
C      1  0.4517320000000  0.4487540000000  0.4646830000000 1.0
C      1  0.4588780000000  0.4386770000000  0.5531670000000 1.0
C      1  0.5693320000000  0.4970840000000  0.5565630000000 1.0
C      1  0.4687230000000  0.5553740000000  0.5610790000000 1.0
C      1  0.5365170000000  0.4403920000000  0.4464390000000 1.0
C      1  0.4287300000000  0.4965040000000  0.4460140000000 1.0
C      1  0.5396190000000  0.5579630000000  0.4505570000000 1.0
C      1  0.4750310000000  0.4718820000000  0.4061090000000 1.0
C      1  0.5239150000000  0.4755100000000  0.4040810000000 1.0
C      1  0.4942660000000  0.5223410000000  0.4037970000000 1.0
C      1  0.5231260000000  0.4861900000000  0.5933020000000 1.0
C      1  0.4755210000000  0.4830620000000  0.5939190000000 1.0
C      1  0.5007450000000  0.5267320000000  0.5977010000000 1.0
C      1  0.5287400000000  0.4722450000000  0.4808390000000 1.0
C      1  0.5232560000000  0.5402230000000  0.4901930000000 1.0
C      1  0.4547350000000  0.4975310000000  0.4817080000000 1.0
C      1  0.4711540000000  0.4651140000000  0.5176790000000 1.0
C      1  0.4869520000000  0.5358370000000  0.5268450000000 1.0
C      1  0.5466040000000  0.4958290000000  0.5237320000000 1.0
C      1  0.5609980000000  0.5314690000000  0.4529780000000 1.0
C      1  0.4515650000000  0.5223160000000  0.4468780000000 1.0
C      1  0.5025750000000  0.4392380000000  0.4516750000000 1.0
C      1  0.4550470000000  0.5301300000000  0.5504620000000 1.0
C      1  0.5499480000000  0.5239090000000  0.5516620000000 1.0
C      1  0.4913130000000  0.4476750000000  0.5473650000000 1.0
C      1  0.5414820000000  0.5021870000000  0.4001880000000 1.0
C      1  0.4661950000000  0.5199640000000  0.3935680000000 1.0
C      1  0.4792940000000  0.4443260000000  0.3920230000000 1.0
C      1  0.4545260000000  0.5040610000000  0.6088690000000 1.0
C      1  0.5291020000000  0.5378240000000  0.6121060000000 1.0
C      1  0.5177610000000  0.4558190000000  0.6059360000000 1.0
C      1  0.4472830000000  0.5361480000000  0.4079430000000 1.0
C      1  0.4951270000000  0.4201050000000  0.4094610000000 1.0
C      1  0.5560450000000  0.5306210000000  0.4135560000000 1.0
C      1  0.5517780000000  0.5423490000000  0.5870040000000 1.0
C      1  0.5089290000000  0.4351410000000  0.5807960000000 1.0
C      1  0.4374200000000  0.5212220000000  0.5849180000000 1.0
C      1  0.4976290000000  0.4715640000000  0.4745240000000 1.0
C      1  0.5312360000000  0.5192090000000  0.4762670000000 1.0
C      1  0.4845820000000  0.5144920000000  0.4808910000000 1.0
C      1  0.5007870000000  0.4778140000000  0.5188970000000 1.0
C      1  0.4739680000000  0.5067820000000  0.5242880000000 1.0
C      1  0.5235340000000  0.5167900000000  0.5224810000000 1.0
C      1  0.5628660000000  0.5131420000000  0.4786340000000 1.0
C      1  0.4614080000000  0.5361920000000  0.4757560000000 1.0
C      1  0.4792660000000  0.4447270000000  0.4759120000000 1.0
C      1  0.4437700000000  0.5138610000000  0.5222330000000 1.0
C      1  0.5406640000000  0.5449160000000  0.5258030000000 1.0
C      1  0.5110000000000  0.4470990000000  0.5193960000000 1.0
C      1  0.5588800000000  0.5562580000000  0.5502850000000 1.0
C      1  0.4238870000000  0.5166520000000  0.5478200000000 1.0
C      1  0.5143120000000  0.4239910000000  0.5428740000000 1.0
C      1  0.4477700000000  0.5554710000000  0.4527090000000 1.0
C      1  0.5869410000000  0.5233660000000  0.4375350000000 1.0
C      1  0.4812330000000  0.4160320000000  0.4467220000000 1.0
C      1  0.4570510000000  0.4004190000000  0.5001870000000 1.0
C      1  0.6100420000000  0.5223580000000  0.5039650000000 1.0
C      1  0.4382620000000  0.5899220000000  0.5126300000000 1.0
C      1  0.5453120000000  0.4069860000000  0.4940730000000 1.0
C      1  0.3996120000000  0.5204390000000  0.4908120000000 1.0
C      1  0.5668430000000  0.5922800000000  0.4937820000000 1.0
C      1  0.4247040000000  0.4680240000000  0.4606890000000 1.0
C      1  0.5625870000000  0.4550270000000  0.4593890000000 1.0
C      1  0.5044870000000  0.5919680000000  0.4446550000000 1.0
C      1  0.5816760000000  0.4763680000000  0.5375640000000 1.0
C      1  0.4306650000000  0.4488800000000  0.5388360000000 1.0
C      1  0.4866910000000  0.5761240000000  0.5466070000000 1.0
C      1  0.5702880000000  0.5591410000000  0.4257170000000 1.0
C      1  0.4230190000000  0.5255270000000  0.4191720000000 1.0
C      1  0.5188580000000  0.4137220000000  0.4224780000000 1.0
C      1  0.4307440000000  0.5523150000000  0.5727790000000 1.0
C      1  0.5788100000000  0.5291070000000  0.5787990000000 1.0
C      1  0.4844490000000  0.4179050000000  0.5758510000000 1.0
C      1  0.5114510000000  0.4535950000000  0.3883350000000 1.0
C      1  0.5204280000000  0.5253300000000  0.3947970000000 1.0
C      1  0.4590940000000  0.4931460000000  0.3879920000000 1.0
C      1  0.4872890000000  0.4615220000000  0.6112110000000 1.0
C      1  0.4751250000000  0.5271390000000  0.6142030000000 1.0
C      1  0.5361620000000  0.5058300000000  0.6123250000000 1.0
C      1  0.5107160000000  0.5306370000000  0.5479310000000 1.0
C      1  0.4719590000000  0.4842100000000  0.5458140000000 1.0
C      1  0.5223530000000  0.4799450000000  0.5418680000000 1.0
C      1  0.4981920000000  0.5142000000000  0.4544960000000 1.0
C      1  0.5249420000000  0.4930210000000  0.4547550000000 1.0
C      1  0.4719950000000  0.4842460000000  0.4582040000000 1.0
C      1  0.4886660000000  0.5757060000000  0.5960510000000 1.0
C      1  0.4357770000000  0.4520680000000  0.5981450000000 1.0
C      1  0.5697060000000  0.4676150000000  0.5921590000000 1.0
C      1  0.5086700000000  0.5790940000000  0.4072270000000 1.0
C      1  0.5667470000000  0.4542070000000  0.4078940000000 1.0
C      1  0.4294260000000  0.4606280000000  0.4127830000000 1.0
C      1  0.5384880000000  0.5679940000000  0.4179600000000 1.0
C      1  0.4170570000000  0.4924710000000  0.4139020000000 1.0
C      1  0.5465010000000  0.4310120000000  0.4151450000000 1.0
C      1  0.4562480000000  0.5678870000000  0.5884280000000 1.0
C      1  0.5809210000000  0.4987660000000  0.5884990000000 1.0
C      1  0.4559320000000  0.4286560000000  0.5860650000000 1.0
C      1  0.4985990000000  0.5557780000000  0.5017280000000 1.0
C      1  0.5543450000000  0.4798890000000  0.4988890000000 1.0
C      1  0.4477940000000  0.4736800000000  0.5000770000000 1.0
C      1  0.5008210000000  0.5057850000000  0.5047740000000 1.0
END
