TITL C-2782234-8014-391 0.001840615510654 125000 -998.270148630366 0 0 171 (C1) n - 1
REM
REM in /home/nfs/bkarasulu/CARBON/AIRSS/Generating-Clusters/REBO/Higher-Symm/SD-CG/HFTN-CG
REM
REM
REM
REM
REM
REM ./C.cell (12c818d87b63d06a65506943cc24bca4)
REM
REM compiler GCC version 9.2.1 20190827 (Red Hat 9.2.1-1)
REM options -cpp -mtune=generic -march=x86-64 -g -O0 -fpre-include=/usr/include/finclude/math-vector-fortran.h
REM seed 1921058954 576675211 409143331 1858210022 1525394265 -1211962910 -338000786 -591546957 1081553804 -42260460 9150415 970402572 -958586211 -1793179949 -1485378791 23465439 -2095429085 1463543878 -365522387 1088858456 -575978315 -2071860691 -1830023900 -818695002 1115666446 -912998056 -782545519 -296929336 663922002 -1921519169 -1464976363 -1666618572 -1485425858
REM
CELL 1.54180   50.00000   50.00000   50.00000   90.00000   90.00000   90.00000
LATT -1
SFAC C  
C      1  0.5488570000000  0.5489880000000  0.5677580000000 1.0
C      1  0.5258520000000  0.4135810000000  0.5057230000000 1.0
C      1  0.5487270000000  0.5347460000000  0.4189720000000 1.0
C      1  0.4602400000000  0.4520670000000  0.5687170000000 1.0
C      1  0.4672270000000  0.5934860000000  0.5133700000000 1.0
C      1  0.4688220000000  0.4650240000000  0.4272590000000 1.0
C      1  0.5770840000000  0.5010120000000  0.4075730000000 1.0
C      1  0.5827480000000  0.5638560000000  0.5391930000000 1.0
C      1  0.5625830000000  0.4247650000000  0.5346710000000 1.0
C      1  0.4276800000000  0.4895080000000  0.4170940000000 1.0
C      1  0.4191770000000  0.4408420000000  0.5451540000000 1.0
C      1  0.4324260000000  0.5758440000000  0.5408090000000 1.0
C      1  0.5683990000000  0.5761260000000  0.4918590000000 1.0
C      1  0.5709210000000  0.4622730000000  0.5679810000000 1.0
C      1  0.5784790000000  0.4656540000000  0.4436530000000 1.0
C      1  0.4265010000000  0.4251500000000  0.4961860000000 1.0
C      1  0.4228820000000  0.5325100000000  0.5778880000000 1.0
C      1  0.4244720000000  0.5375700000000  0.4358540000000 1.0
C      1  0.4358420000000  0.5424850000000  0.5060270000000 1.0
C      1  0.4375190000000  0.4751910000000  0.5362080000000 1.0
C      1  0.4379940000000  0.4783210000000  0.4539660000000 1.0
C      1  0.5573060000000  0.4543280000000  0.5080900000000 1.0
C      1  0.5638150000000  0.5288200000000  0.5366630000000 1.0
C      1  0.5660560000000  0.5174810000000  0.4550070000000 1.0
C      1  0.5581900000000  0.4309630000000  0.5738960000000 1.0
C      1  0.5578440000000  0.4679010000000  0.3960360000000 1.0
C      1  0.5607680000000  0.5956460000000  0.5191000000000 1.0
C      1  0.4397610000000  0.5616640000000  0.5774740000000 1.0
C      1  0.4373250000000  0.5289660000000  0.4051210000000 1.0
C      1  0.4344550000000  0.4056630000000  0.5232970000000 1.0
C      1  0.4442170000000  0.4683290000000  0.4141620000000 1.0
C      1  0.4493810000000  0.5966830000000  0.5350020000000 1.0
C      1  0.4331470000000  0.4446370000000  0.5678270000000 1.0
C      1  0.5675410000000  0.5230850000000  0.3998920000000 1.0
C      1  0.5438230000000  0.4072670000000  0.5261980000000 1.0
C      1  0.5736350000000  0.5585180000000  0.5641870000000 1.0
C      1  0.4362100000000  0.5623170000000  0.4783660000000 1.0
C      1  0.4372660000000  0.4847970000000  0.5689690000000 1.0
C      1  0.4436280000000  0.4449060000000  0.4508460000000 1.0
C      1  0.5686230000000  0.4386990000000  0.4817260000000 1.0
C      1  0.5629250000000  0.5116720000000  0.5660420000000 1.0
C      1  0.5644490000000  0.5507740000000  0.4475760000000 1.0
C      1  0.4790980000000  0.5663740000000  0.5037050000000 1.0
C      1  0.4782550000000  0.4662540000000  0.5519550000000 1.0
C      1  0.4828840000000  0.4735220000000  0.4498300000000 1.0
C      1  0.5077460000000  0.4354170000000  0.5055520000000 1.0
C      1  0.5204070000000  0.5356270000000  0.5577590000000 1.0
C      1  0.5254380000000  0.5346120000000  0.4440870000000 1.0
C      1  0.4780570000000  0.5404670000000  0.4150920000000 1.0
C      1  0.4812780000000  0.5479650000000  0.5794190000000 1.0
C      1  0.4807030000000  0.4034400000000  0.5072190000000 1.0
C      1  0.5226690000000  0.4612750000000  0.4156070000000 1.0
C      1  0.5174590000000  0.4491670000000  0.5815420000000 1.0
C      1  0.5128130000000  0.5896730000000  0.5034310000000 1.0
C      1  0.4957840000000  0.4745380000000  0.3995230000000 1.0
C      1  0.5016030000000  0.5880990000000  0.5329100000000 1.0
C      1  0.4910810000000  0.4300520000000  0.5810980000000 1.0
C      1  0.5045170000000  0.5285340000000  0.4015920000000 1.0
C      1  0.4932940000000  0.4082090000000  0.5357220000000 1.0
C      1  0.5080770000000  0.5662400000000  0.5769430000000 1.0
C      1  0.5118290000000  0.4141080000000  0.5592160000000 1.0
C      1  0.5197590000000  0.4986090000000  0.4019270000000 1.0
C      1  0.5239250000000  0.5832970000000  0.5529220000000 1.0
C      1  0.4846390000000  0.5818230000000  0.5584100000000 1.0
C      1  0.4811770000000  0.5042340000000  0.3959410000000 1.0
C      1  0.4723330000000  0.4156910000000  0.5565630000000 1.0
C      1  0.4916850000000  0.4078950000000  0.4269030000000 1.0
C      1  0.4774980000000  0.6071610000000  0.4640740000000 1.0
C      1  0.4833990000000  0.4727620000000  0.6162280000000 1.0
C      1  0.5145970000000  0.5822290000000  0.4173850000000 1.0
C      1  0.5157840000000  0.3868620000000  0.4681670000000 1.0
C      1  0.5191180000000  0.5261240000000  0.6134870000000 1.0
C      1  0.4842240000000  0.3918680000000  0.4767810000000 1.0
C      1  0.4839120000000  0.5720240000000  0.4219580000000 1.0
C      1  0.4892550000000  0.5227540000000  0.5999020000000 1.0
C      1  0.5082830000000  0.5973120000000  0.4712940000000 1.0
C      1  0.5153610000000  0.4283070000000  0.4202460000000 1.0
C      1  0.5148100000000  0.4729950000000  0.6049650000000 1.0
C      1  0.4607220000000  0.6100950000000  0.4914740000000 1.0
C      1  0.4711320000000  0.4486190000000  0.5985490000000 1.0
C      1  0.4866950000000  0.4441160000000  0.4122560000000 1.0
C      1  0.5341110000000  0.4040660000000  0.4797760000000 1.0
C      1  0.5286510000000  0.5490100000000  0.5925680000000 1.0
C      1  0.5245210000000  0.5522590000000  0.4084060000000 1.0
C      1  0.4698240000000  0.5600250000000  0.4719300000000 1.0
C      1  0.4615670000000  0.5023590000000  0.5529290000000 1.0
C      1  0.4604590000000  0.4380410000000  0.4795740000000 1.0
C      1  0.5294560000000  0.4547900000000  0.4612790000000 1.0
C      1  0.5321940000000  0.4969140000000  0.5615860000000 1.0
C      1  0.5316030000000  0.5525790000000  0.4701460000000 1.0
C      1  0.4810590000000  0.4602750000000  0.5219260000000 1.0
C      1  0.4888800000000  0.5022000000000  0.4518550000000 1.0
C      1  0.4838550000000  0.5393060000000  0.5217430000000 1.0
C      1  0.5137640000000  0.5390910000000  0.5269870000000 1.0
C      1  0.5187460000000  0.5052980000000  0.4528380000000 1.0
C      1  0.5127490000000  0.4617090000000  0.5222430000000 1.0
C      1  0.5551420000000  0.5342660000000  0.4826420000000 1.0
C      1  0.5441760000000  0.5014880000000  0.5325130000000 1.0
C      1  0.5455250000000  0.4712060000000  0.4806300000000 1.0
C      1  0.4480810000000  0.4670670000000  0.4837570000000 1.0
C      1  0.4482930000000  0.5058040000000  0.5246660000000 1.0
C      1  0.4454210000000  0.5240880000000  0.4790230000000 1.0
C      1  0.6065910000000  0.5719480000000  0.4615170000000 1.0
C      1  0.6094210000000  0.4936040000000  0.5709300000000 1.0
C      1  0.6117400000000  0.4611760000000  0.4785200000000 1.0
C      1  0.3939630000000  0.4343680000000  0.4595400000000 1.0
C      1  0.3882770000000  0.4974020000000  0.5757460000000 1.0
C      1  0.3884160000000  0.5540610000000  0.4654950000000 1.0
C      1  0.5282190000000  0.4996520000000  0.4812500000000 1.0
C      1  0.5269320000000  0.5266680000000  0.4999540000000 1.0
C      1  0.5254800000000  0.4871260000000  0.5111520000000 1.0
C      1  0.4753860000000  0.5205150000000  0.4745820000000 1.0
C      1  0.4698240000000  0.4808610000000  0.5027820000000 1.0
C      1  0.4735070000000  0.5138560000000  0.5055820000000 1.0
C      1  0.4553220000000  0.5119120000000  0.3949900000000 1.0
C      1  0.4592040000000  0.5802870000000  0.5700480000000 1.0
C      1  0.4461970000000  0.4102810000000  0.5472050000000 1.0
C      1  0.5451780000000  0.4875330000000  0.3868930000000 1.0
C      1  0.5390370000000  0.4143700000000  0.5652550000000 1.0
C      1  0.5493340000000  0.5907010000000  0.5431420000000 1.0
C      1  0.4522310000000  0.5353980000000  0.5924740000000 1.0
C      1  0.4496760000000  0.4021520000000  0.4932770000000 1.0
C      1  0.4478730000000  0.5555160000000  0.4221070000000 1.0
C      1  0.5489360000000  0.4561750000000  0.5930400000000 1.0
C      1  0.5429900000000  0.5984290000000  0.4910670000000 1.0
C      1  0.5577970000000  0.4544630000000  0.4234870000000 1.0
C      1  0.4657790000000  0.5074710000000  0.5848530000000 1.0
C      1  0.4596230000000  0.4098470000000  0.4615600000000 1.0
C      1  0.4600270000000  0.5753600000000  0.4436240000000 1.0
C      1  0.5408170000000  0.4873150000000  0.5914380000000 1.0
C      1  0.5362570000000  0.5823670000000  0.4635840000000 1.0
C      1  0.5399350000000  0.4343450000000  0.4391980000000 1.0
C      1  0.4140370000000  0.5512910000000  0.4599320000000 1.0
C      1  0.4145270000000  0.5059860000000  0.5746890000000 1.0
C      1  0.4186040000000  0.4343770000000  0.4689360000000 1.0
C      1  0.5878950000000  0.4544040000000  0.4673310000000 1.0
C      1  0.5835520000000  0.4892720000000  0.5685510000000 1.0
C      1  0.5812050000000  0.5666690000000  0.4668460000000 1.0
C      1  0.5452210000000  0.5190890000000  0.5937420000000 1.0
C      1  0.5514090000000  0.4218720000000  0.4664020000000 1.0
C      1  0.5400900000000  0.5703590000000  0.4339770000000 1.0
C      1  0.4561400000000  0.4795530000000  0.5970440000000 1.0
C      1  0.4468780000000  0.5924380000000  0.4678300000000 1.0
C      1  0.4646780000000  0.4258440000000  0.4319090000000 1.0
C      1  0.4418050000000  0.5510740000000  0.5343260000000 1.0
C      1  0.4368410000000  0.4452470000000  0.5194910000000 1.0
C      1  0.4381190000000  0.5092250000000  0.4397430000000 1.0
C      1  0.5538580000000  0.4545390000000  0.5419610000000 1.0
C      1  0.5617860000000  0.5559240000000  0.5161050000000 1.0
C      1  0.5647570000000  0.4923590000000  0.4344830000000 1.0
C      1  0.5680350000000  0.4968150000000  0.4802890000000 1.0
C      1  0.5701590000000  0.5179040000000  0.5070890000000 1.0
C      1  0.5653730000000  0.4849520000000  0.5121440000000 1.0
C      1  0.4256840000000  0.4990690000000  0.4763620000000 1.0
C      1  0.4254270000000  0.4800740000000  0.5047970000000 1.0
C      1  0.4201050000000  0.5132520000000  0.5071300000000 1.0
C      1  0.4671860000000  0.4330640000000  0.5168630000000 1.0
C      1  0.4676100000000  0.5186370000000  0.4354840000000 1.0
C      1  0.4680690000000  0.5413980000000  0.5491200000000 1.0
C      1  0.5308750000000  0.5633710000000  0.5152650000000 1.0
C      1  0.5338560000000  0.4891620000000  0.4311910000000 1.0
C      1  0.5237360000000  0.4593070000000  0.5514450000000 1.0
C      1  0.4904030000000  0.4404260000000  0.4838370000000 1.0
C      1  0.4951990000000  0.5418750000000  0.4580300000000 1.0
C      1  0.4920750000000  0.5175750000000  0.5559570000000 1.0
C      1  0.5043260000000  0.5498320000000  0.4892120000000 1.0
C      1  0.5012640000000  0.4563170000000  0.4635190000000 1.0
C      1  0.5020790000000  0.4858070000000  0.5581440000000 1.0
C      1  0.5015410000000  0.4995170000000  0.6199720000000 1.0
C      1  0.4959930000000  0.5978790000000  0.4395950000000 1.0
C      1  0.4951560000000  0.3867780000000  0.4449150000000 1.0
END
