TITL C-2782235-7892-1287 -0.00231627786308581 125000 -871.447783784529 0 0 152 (C1) n - 1
REM
REM in /home/nfs/bkarasulu/CARBON/AIRSS/Generating-Clusters/REBO/Higher-Symm/SD-CG/HFTN-CG
REM
REM
REM
REM
REM
REM ./C.cell (12c818d87b63d06a65506943cc24bca4)
REM
REM compiler GCC version 9.2.1 20190827 (Red Hat 9.2.1-1)
REM options -cpp -mtune=generic -march=x86-64 -g -O0 -fpre-include=/usr/include/finclude/math-vector-fortran.h
REM seed 1926607169 -56325838 171595328 1965144239 -435913152 -1152192643 405943307 37482398 -2014429229 -1366466937 -651667931 42389494 -1163216970 -359525611 -8649136 1732598359 955743693 -1385946813 1159833170 1937640731 -1565980929 403630544 -1934431048 -841040402 -1185761940 2104182072 277764055 -359635799 790979004 -683826992 1964636704 444363814 -382454079
REM
CELL 1.54180   50.00000   50.00000   50.00000   90.00000   90.00000   90.00000
LATT -1
SFAC C  
C      1  0.4385860000000  0.5237710000000  0.4752930000000 1.0
C      1  0.5262660000000  0.4795450000000  0.4453510000000 1.0
C      1  0.4764590000000  0.4420310000000  0.5264980000000 1.0
C      1  0.5606110000000  0.4789530000000  0.4767040000000 1.0
C      1  0.4413500000000  0.4745950000000  0.5261350000000 1.0
C      1  0.5597900000000  0.5258730000000  0.5240090000000 1.0
C      1  0.4770440000000  0.5194000000000  0.4506430000000 1.0
C      1  0.5215610000000  0.5209590000000  0.5534250000000 1.0
C      1  0.4741680000000  0.4751210000000  0.5486750000000 1.0
C      1  0.5240950000000  0.5598680000000  0.5237290000000 1.0
C      1  0.4773920000000  0.5526220000000  0.4728510000000 1.0
C      1  0.5217780000000  0.4489690000000  0.4703870000000 1.0
C      1  0.4511480000000  0.5229390000000  0.5245210000000 1.0
C      1  0.5256370000000  0.4792440000000  0.5519030000000 1.0
C      1  0.4772350000000  0.4431620000000  0.4735010000000 1.0
C      1  0.5537360000000  0.4734970000000  0.5240680000000 1.0
C      1  0.4392340000000  0.4729240000000  0.4752530000000 1.0
C      1  0.5640850000000  0.5284770000000  0.4739250000000 1.0
C      1  0.4779770000000  0.5224500000000  0.5642470000000 1.0
C      1  0.5269010000000  0.5224010000000  0.4454830000000 1.0
C      1  0.4721070000000  0.4770360000000  0.4531040000000 1.0
C      1  0.5267020000000  0.5615520000000  0.4732340000000 1.0
C      1  0.4785900000000  0.5517050000000  0.5263790000000 1.0
C      1  0.5222370000000  0.4489690000000  0.5263070000000 1.0
C      1  0.5887270000000  0.4500520000000  0.5166460000000 1.0
C      1  0.4516520000000  0.5178100000000  0.5937550000000 1.0
C      1  0.5183800000000  0.5908550000000  0.4476890000000 1.0
C      1  0.4104730000000  0.5494130000000  0.5149110000000 1.0
C      1  0.5930450000000  0.5542620000000  0.4813680000000 1.0
C      1  0.4085110000000  0.4486990000000  0.4831430000000 1.0
C      1  0.5441410000000  0.4826900000000  0.5903590000000 1.0
C      1  0.4502770000000  0.4795890000000  0.4075100000000 1.0
C      1  0.5500760000000  0.5176240000000  0.4080680000000 1.0
C      1  0.4825890000000  0.4106190000000  0.4511360000000 1.0
C      1  0.5129070000000  0.4108010000000  0.5461510000000 1.0
C      1  0.4848850000000  0.5882060000000  0.5473220000000 1.0
C      1  0.5900130000000  0.4528130000000  0.4824190000000 1.0
C      1  0.4550390000000  0.5128880000000  0.4097180000000 1.0
C      1  0.5188640000000  0.5903330000000  0.5484370000000 1.0
C      1  0.4091180000000  0.5495710000000  0.4807290000000 1.0
C      1  0.5908480000000  0.5488940000000  0.5151580000000 1.0
C      1  0.4088240000000  0.4533630000000  0.5172010000000 1.0
C      1  0.5441240000000  0.4841890000000  0.4098820000000 1.0
C      1  0.4504640000000  0.4838570000000  0.5942470000000 1.0
C      1  0.5483170000000  0.5164410000000  0.5905640000000 1.0
C      1  0.4787890000000  0.4088400000000  0.5485340000000 1.0
C      1  0.5167170000000  0.4123810000000  0.4505890000000 1.0
C      1  0.4844030000000  0.5877420000000  0.4504350000000 1.0
C      1  0.4496270000000  0.4202120000000  0.4525600000000 1.0
C      1  0.4241540000000  0.4434560000000  0.4528070000000 1.0
C      1  0.4496550000000  0.4455230000000  0.4074300000000 1.0
C      1  0.5515370000000  0.5815210000000  0.4491640000000 1.0
C      1  0.4525160000000  0.5764100000000  0.5453900000000 1.0
C      1  0.5458290000000  0.4213780000000  0.5446070000000 1.0
C      1  0.5771310000000  0.5584450000000  0.4509130000000 1.0
C      1  0.4269790000000  0.5532110000000  0.5452880000000 1.0
C      1  0.5710180000000  0.4448580000000  0.5459870000000 1.0
C      1  0.5491090000000  0.5516940000000  0.4065060000000 1.0
C      1  0.4530760000000  0.5518070000000  0.5909320000000 1.0
C      1  0.5427120000000  0.4484400000000  0.5899150000000 1.0
C      1  0.4468980000000  0.4217720000000  0.5487760000000 1.0
C      1  0.4230680000000  0.4467640000000  0.5481600000000 1.0
C      1  0.4525650000000  0.4496010000000  0.5919010000000 1.0
C      1  0.5511650000000  0.5787430000000  0.5468850000000 1.0
C      1  0.4517080000000  0.5765830000000  0.4502480000000 1.0
C      1  0.5492940000000  0.4240200000000  0.4516530000000 1.0
C      1  0.5761160000000  0.5549340000000  0.5459820000000 1.0
C      1  0.4257960000000  0.5536480000000  0.4506600000000 1.0
C      1  0.5750300000000  0.4471370000000  0.4517330000000 1.0
C      1  0.5478660000000  0.5505880000000  0.5906650000000 1.0
C      1  0.4564640000000  0.5471090000000  0.4082330000000 1.0
C      1  0.5470620000000  0.4502680000000  0.4075680000000 1.0
C      1  0.4411650000000  0.4838600000000  0.4461390000000 1.0
C      1  0.4840360000000  0.4494830000000  0.4427920000000 1.0
C      1  0.4478340000000  0.4432980000000  0.4851750000000 1.0
C      1  0.5566840000000  0.5183730000000  0.4474970000000 1.0
C      1  0.4506430000000  0.5149870000000  0.5538700000000 1.0
C      1  0.5566060000000  0.4867010000000  0.5527800000000 1.0
C      1  0.5186550000000  0.5509830000000  0.4465900000000 1.0
C      1  0.4865960000000  0.5491640000000  0.5550750000000 1.0
C      1  0.5151720000000  0.4490850000000  0.5567920000000 1.0
C      1  0.5531730000000  0.5545150000000  0.4842820000000 1.0
C      1  0.4499240000000  0.5537250000000  0.5125720000000 1.0
C      1  0.5497340000000  0.4443090000000  0.5121290000000 1.0
C      1  0.4447050000000  0.4858670000000  0.5548640000000 1.0
C      1  0.4862750000000  0.4470500000000  0.5558910000000 1.0
C      1  0.4474180000000  0.4442250000000  0.5154960000000 1.0
C      1  0.5515290000000  0.5161430000000  0.5506830000000 1.0
C      1  0.4470630000000  0.5135310000000  0.4488890000000 1.0
C      1  0.5563680000000  0.4885660000000  0.4475870000000 1.0
C      1  0.5163040000000  0.5506210000000  0.5514110000000 1.0
C      1  0.4893970000000  0.5488310000000  0.4441770000000 1.0
C      1  0.5129020000000  0.4506800000000  0.4405700000000 1.0
C      1  0.5511370000000  0.5529000000000  0.5141280000000 1.0
C      1  0.4489930000000  0.5509130000000  0.4830230000000 1.0
C      1  0.5503230000000  0.4494770000000  0.4829010000000 1.0
C      1  0.5289300000000  0.4254820000000  0.5728870000000 1.0
C      1  0.4286160000000  0.5775300000000  0.5218750000000 1.0
C      1  0.5712820000000  0.5371920000000  0.4267610000000 1.0
C      1  0.4705110000000  0.5704190000000  0.5728950000000 1.0
C      1  0.5323430000000  0.5697850000000  0.4244340000000 1.0
C      1  0.4674730000000  0.4286730000000  0.4259170000000 1.0
C      1  0.5710430000000  0.4211640000000  0.5217670000000 1.0
C      1  0.4257330000000  0.4197820000000  0.4767220000000 1.0
C      1  0.5725240000000  0.5809150000000  0.4759280000000 1.0
C      1  0.4282160000000  0.4621630000000  0.4272100000000 1.0
C      1  0.5663120000000  0.4635790000000  0.5719180000000 1.0
C      1  0.4326090000000  0.5348530000000  0.5704900000000 1.0
C      1  0.5307460000000  0.4302320000000  0.4247100000000 1.0
C      1  0.4288070000000  0.5769210000000  0.4748050000000 1.0
C      1  0.5684610000000  0.5349490000000  0.5697920000000 1.0
C      1  0.4719130000000  0.5671830000000  0.4256960000000 1.0
C      1  0.5318020000000  0.5692310000000  0.5723530000000 1.0
C      1  0.4672710000000  0.4295100000000  0.5737400000000 1.0
C      1  0.5721660000000  0.4242430000000  0.4762460000000 1.0
C      1  0.4233230000000  0.4230420000000  0.5244010000000 1.0
C      1  0.5732430000000  0.5776420000000  0.5212500000000 1.0
C      1  0.4294620000000  0.4658090000000  0.5737500000000 1.0
C      1  0.5680910000000  0.4667340000000  0.4276600000000 1.0
C      1  0.4335760000000  0.5327880000000  0.4277390000000 1.0
C      1  0.4774830000000  0.5825790000000  0.5146390000000 1.0
C      1  0.5926000000000  0.5202870000000  0.4849840000000 1.0
C      1  0.5110880000000  0.4791890000000  0.5826770000000 1.0
C      1  0.5190920000000  0.4187080000000  0.5134190000000 1.0
C      1  0.4920740000000  0.4167350000000  0.4834280000000 1.0
C      1  0.5136370000000  0.5889710000000  0.4814800000000 1.0
C      1  0.4107640000000  0.4822570000000  0.4860540000000 1.0
C      1  0.5852920000000  0.4833850000000  0.5203100000000 1.0
C      1  0.4195440000000  0.5180310000000  0.5205390000000 1.0
C      1  0.4842820000000  0.5075980000000  0.5911840000000 1.0
C      1  0.5186550000000  0.5140560000000  0.4168580000000 1.0
C      1  0.4787320000000  0.4832070000000  0.4219680000000 1.0
C      1  0.4823170000000  0.5822160000000  0.4841250000000 1.0
C      1  0.5880330000000  0.5147340000000  0.5162820000000 1.0
C      1  0.5105190000000  0.4823820000000  0.4163990000000 1.0
C      1  0.5251040000000  0.4184840000000  0.4829920000000 1.0
C      1  0.4870950000000  0.4142920000000  0.5159430000000 1.0
C      1  0.5102960000000  0.5874060000000  0.5152850000000 1.0
C      1  0.4141490000000  0.4871830000000  0.5171630000000 1.0
C      1  0.5888750000000  0.4866150000000  0.4879430000000 1.0
C      1  0.4111920000000  0.5161660000000  0.4887350000000 1.0
C      1  0.4876430000000  0.5148910000000  0.4194140000000 1.0
C      1  0.5170190000000  0.5111050000000  0.5828830000000 1.0
C      1  0.4803500000000  0.4765510000000  0.5818390000000 1.0
C      1  0.5264600000000  0.4814070000000  0.4800210000000 1.0
C      1  0.4880550000000  0.5229870000000  0.4828910000000 1.0
C      1  0.4735170000000  0.4742620000000  0.5148000000000 1.0
C      1  0.5210220000000  0.4818580000000  0.5176870000000 1.0
C      1  0.4833950000000  0.5217150000000  0.5130300000000 1.0
C      1  0.5128760000000  0.5083700000000  0.4694400000000 1.0
C      1  0.5059610000000  0.5072380000000  0.5293490000000 1.0
C      1  0.4721250000000  0.4747690000000  0.4858530000000 1.0
END
