TITL C-2782231-7322-230 0.00217439631743637 125000 -800.821688684617 0 0 136 (C1) n - 1
REM
REM in /home/nfs/bkarasulu/CARBON/AIRSS/Generating-Clusters/REBO/Higher-Symm/SD-CG/HFTN-CG
REM
REM
REM
REM
REM
REM ./C.cell (12c818d87b63d06a65506943cc24bca4)
REM
REM compiler GCC version 9.2.1 20190827 (Red Hat 9.2.1-1)
REM options -cpp -mtune=generic -march=x86-64 -g -O0 -fpre-include=/usr/include/finclude/math-vector-fortran.h
REM seed -1475742096 -364934634 258803050 138306240 1444308023 1739525153 -767209464 1593961771 59134050 1814817828 1512690256 -1286717194 -171027648 1495227749 -1188242115 -1457085188 1763790832 971090170 -1516627455 535761680 2078776536 -418243424 -770658806 -669775004 835690375 208605469 1237240234 1760452043 -522619248 -829963320 -1660204876 962928713 -800684575
REM
CELL 1.54180   50.00000   50.00000   50.00000   90.00000   90.00000   90.00000
LATT -1
SFAC C  
C      1  0.4479300000000  0.4662420000000  0.5798150000000 1.0
C      1  0.5595010000000  0.4684080000000  0.5756620000000 1.0
C      1  0.5752870000000  0.4558430000000  0.4661120000000 1.0
C      1  0.4999500000000  0.4678160000000  0.4081370000000 1.0
C      1  0.4326050000000  0.4566660000000  0.4830720000000 1.0
C      1  0.4489030000000  0.5384060000000  0.5786470000000 1.0
C      1  0.5558130000000  0.5383980000000  0.5749610000000 1.0
C      1  0.5799180000000  0.5314900000000  0.4721280000000 1.0
C      1  0.5015610000000  0.5309960000000  0.4048740000000 1.0
C      1  0.4318340000000  0.5452020000000  0.4828480000000 1.0
C      1  0.4602670000000  0.6072330000000  0.5047680000000 1.0
C      1  0.4872240000000  0.6164970000000  0.5233490000000 1.0
C      1  0.5150830000000  0.6228760000000  0.5069200000000 1.0
C      1  0.4968870000000  0.6080050000000  0.4830310000000 1.0
C      1  0.4678970000000  0.5902530000000  0.4790840000000 1.0
C      1  0.4692400000000  0.3953870000000  0.4999090000000 1.0
C      1  0.4998800000000  0.4050150000000  0.5101160000000 1.0
C      1  0.5107340000000  0.4263470000000  0.4892050000000 1.0
C      1  0.4951950000000  0.4066470000000  0.4679040000000 1.0
C      1  0.4617430000000  0.4115340000000  0.4722600000000 1.0
C      1  0.4792670000000  0.4685350000000  0.5224720000000 1.0
C      1  0.5056330000000  0.4664650000000  0.5400070000000 1.0
C      1  0.5286470000000  0.4649560000000  0.5170280000000 1.0
C      1  0.5193420000000  0.4552500000000  0.4879780000000 1.0
C      1  0.4965010000000  0.4737500000000  0.4767250000000 1.0
C      1  0.4765450000000  0.5332950000000  0.4991060000000 1.0
C      1  0.4996980000000  0.5207010000000  0.5201420000000 1.0
C      1  0.5317870000000  0.5274340000000  0.5185400000000 1.0
C      1  0.5228310000000  0.5194010000000  0.4876860000000 1.0
C      1  0.4946870000000  0.5258090000000  0.4710520000000 1.0
C      1  0.4284250000000  0.4378810000000  0.5097830000000 1.0
C      1  0.4863410000000  0.4368410000000  0.5644860000000 1.0
C      1  0.5621680000000  0.4315940000000  0.5364120000000 1.0
C      1  0.5518220000000  0.4379950000000  0.4489210000000 1.0
C      1  0.4733670000000  0.4308410000000  0.4216250000000 1.0
C      1  0.4219060000000  0.5641410000000  0.5079310000000 1.0
C      1  0.4875890000000  0.5707900000000  0.5695790000000 1.0
C      1  0.5481190000000  0.5680100000000  0.5321710000000 1.0
C      1  0.5453290000000  0.5658680000000  0.4521510000000 1.0
C      1  0.4850100000000  0.5683920000000  0.4291840000000 1.0
C      1  0.4566690000000  0.5103250000000  0.4892690000000 1.0
C      1  0.4863370000000  0.5163130000000  0.5482340000000 1.0
C      1  0.5456090000000  0.5153040000000  0.5430880000000 1.0
C      1  0.5454710000000  0.5024990000000  0.4740490000000 1.0
C      1  0.4968870000000  0.5146660000000  0.4423770000000 1.0
C      1  0.4628660000000  0.4779880000000  0.4978910000000 1.0
C      1  0.4838320000000  0.4850260000000  0.5584530000000 1.0
C      1  0.5421200000000  0.4820870000000  0.5425920000000 1.0
C      1  0.5387480000000  0.4718510000000  0.4655020000000 1.0
C      1  0.4997640000000  0.4807890000000  0.4460380000000 1.0
C      1  0.4721590000000  0.4859210000000  0.5895120000000 1.0
C      1  0.5733830000000  0.4888800000000  0.5541460000000 1.0
C      1  0.5669860000000  0.4817750000000  0.4477480000000 1.0
C      1  0.4781140000000  0.4863110000000  0.4213690000000 1.0
C      1  0.4302900000000  0.4841030000000  0.5033630000000 1.0
C      1  0.4752340000000  0.5178680000000  0.5794720000000 1.0
C      1  0.5748590000000  0.5230160000000  0.5550020000000 1.0
C      1  0.5644090000000  0.5147470000000  0.4511730000000 1.0
C      1  0.4761860000000  0.5169580000000  0.4164210000000 1.0
C      1  0.4265080000000  0.5168100000000  0.5013350000000 1.0
C      1  0.4923580000000  0.4875660000000  0.6129490000000 1.0
C      1  0.5985430000000  0.4857160000000  0.5343170000000 1.0
C      1  0.5723260000000  0.4818290000000  0.4190250000000 1.0
C      1  0.4509510000000  0.4744460000000  0.4286510000000 1.0
C      1  0.4214830000000  0.4770230000000  0.5322200000000 1.0
C      1  0.5054720000000  0.5273960000000  0.5839160000000 1.0
C      1  0.5983570000000  0.5309310000000  0.5365890000000 1.0
C      1  0.5496790000000  0.5258570000000  0.4258750000000 1.0
C      1  0.4506850000000  0.5281420000000  0.4307990000000 1.0
C      1  0.4148680000000  0.5245050000000  0.5286500000000 1.0
C      1  0.5461220000000  0.4438130000000  0.5638020000000 1.0
C      1  0.5698920000000  0.4293290000000  0.4832650000000 1.0
C      1  0.5001000000000  0.4418170000000  0.4185490000000 1.0
C      1  0.4478360000000  0.4373880000000  0.4632760000000 1.0
C      1  0.4528250000000  0.4437250000000  0.5593470000000 1.0
C      1  0.5375840000000  0.5605970000000  0.5637040000000 1.0
C      1  0.5662120000000  0.5576050000000  0.4777530000000 1.0
C      1  0.5086200000000  0.5537420000000  0.4201380000000 1.0
C      1  0.4536410000000  0.5644790000000  0.4682150000000 1.0
C      1  0.4423200000000  0.5590660000000  0.5568040000000 1.0
C      1  0.5228250000000  0.4115120000000  0.4542950000000 1.0
C      1  0.4728430000000  0.3922650000000  0.4477960000000 1.0
C      1  0.4380400000000  0.3906260000000  0.4967480000000 1.0
C      1  0.4747070000000  0.3998510000000  0.5315960000000 1.0
C      1  0.5206480000000  0.4007410000000  0.5331670000000 1.0
C      1  0.5299560000000  0.6042900000000  0.4845780000000 1.0
C      1  0.4817420000000  0.6083640000000  0.4545200000000 1.0
C      1  0.4302350000000  0.6129860000000  0.5034120000000 1.0
C      1  0.4667240000000  0.5942330000000  0.5341770000000 1.0
C      1  0.5176150000000  0.6106470000000  0.5374410000000 1.0
C      1  0.5093310000000  0.5559020000000  0.5754290000000 1.0
C      1  0.5580590000000  0.5629020000000  0.5085400000000 1.0
C      1  0.5354340000000  0.5527580000000  0.4307130000000 1.0
C      1  0.4615320000000  0.5560420000000  0.4415900000000 1.0
C      1  0.4242070000000  0.5514720000000  0.5344040000000 1.0
C      1  0.5127270000000  0.4385990000000  0.5677270000000 1.0
C      1  0.5724990000000  0.4302380000000  0.5110990000000 1.0
C      1  0.5232360000000  0.4335430000000  0.4331650000000 1.0
C      1  0.4539710000000  0.4471660000000  0.4370060000000 1.0
C      1  0.4324410000000  0.4506120000000  0.5352030000000 1.0
C      1  0.5763680000000  0.4804460000000  0.4865430000000 1.0
C      1  0.5273160000000  0.4798650000000  0.3999020000000 1.0
C      1  0.4312650000000  0.4844760000000  0.4634570000000 1.0
C      1  0.4420370000000  0.4903380000000  0.5637210000000 1.0
C      1  0.5407560000000  0.4845530000000  0.5956210000000 1.0
C      1  0.5895870000000  0.5101400000000  0.4933510000000 1.0
C      1  0.5248240000000  0.5131920000000  0.3941820000000 1.0
C      1  0.4274170000000  0.5187450000000  0.4619160000000 1.0
C      1  0.4427470000000  0.5191840000000  0.5563780000000 1.0
C      1  0.5437500000000  0.5186450000000  0.5963700000000 1.0
C      1  0.5270880000000  0.5093070000000  0.5676870000000 1.0
C      1  0.5575700000000  0.5105880000000  0.5048240000000 1.0
C      1  0.5235850000000  0.5072930000000  0.4283510000000 1.0
C      1  0.4604340000000  0.5106180000000  0.4573130000000 1.0
C      1  0.4604360000000  0.5230650000000  0.5272620000000 1.0
C      1  0.5215100000000  0.4772560000000  0.5681320000000 1.0
C      1  0.5537380000000  0.4781630000000  0.5046830000000 1.0
C      1  0.5295360000000  0.4750550000000  0.4338840000000 1.0
C      1  0.4650880000000  0.4790910000000  0.4657460000000 1.0
C      1  0.4591470000000  0.4900690000000  0.5355270000000 1.0
C      1  0.4704580000000  0.4026580000000  0.4228770000000 1.0
C      1  0.4220200000000  0.4110790000000  0.5047470000000 1.0
C      1  0.4674690000000  0.4149340000000  0.5529250000000 1.0
C      1  0.5376580000000  0.4153540000000  0.5469800000000 1.0
C      1  0.5494370000000  0.4116460000000  0.4693230000000 1.0
C      1  0.4862620000000  0.5966060000000  0.4309410000000 1.0
C      1  0.4142210000000  0.5909030000000  0.5042360000000 1.0
C      1  0.4644090000000  0.5770070000000  0.5544550000000 1.0
C      1  0.5326910000000  0.5903560000000  0.5478750000000 1.0
C      1  0.5469330000000  0.5857960000000  0.4756220000000 1.0
C      1  0.5545940000000  0.4997130000000  0.4044320000000 1.0
C      1  0.4306490000000  0.5003810000000  0.4331510000000 1.0
C      1  0.4094200000000  0.5005840000000  0.5433210000000 1.0
C      1  0.5149180000000  0.5034570000000  0.6062600000000 1.0
C      1  0.6043640000000  0.5092900000000  0.5199480000000 1.0
C      1  0.4965640000000  0.4995770000000  0.4933300000000 1.0
END
