TITL C-2782231-7322-1194 0.00182048933272982 125000 -501.167843065563 0 0 87 (C1) n - 1
REM
REM in /home/nfs/bkarasulu/CARBON/AIRSS/Generating-Clusters/REBO/Higher-Symm/SD-CG/HFTN-CG
REM
REM
REM
REM
REM
REM ./C.cell (12c818d87b63d06a65506943cc24bca4)
REM
REM compiler GCC version 9.2.1 20190827 (Red Hat 9.2.1-1)
REM options -cpp -mtune=generic -march=x86-64 -g -O0 -fpre-include=/usr/include/finclude/math-vector-fortran.h
REM seed -1156942981 1648510184 -2093495560 -791481051 -1302344415 332078585 -322268726 1580734847 -177257956 -1436363354 -669009066 -691200342 1637612207 -1995999546 110139597 -893018055 -1580300751 401310543 -1959030663 -912961223 -1716814161 1998033703 1539702441 1594801386 90070519 -1135374522 801864008 -127669658 183036673 -606571919 1549493583 1619990523 -1955161621
REM
CELL 1.54180   50.00000   50.00000   50.00000   90.00000   90.00000   90.00000
LATT -1
SFAC C  
C      1  0.5547590000000  0.5021650000000  0.4620190000000 1.0
C      1  0.5128450000000  0.4644980000000  0.5671160000000 1.0
C      1  0.5027170000000  0.4519750000000  0.5394540000000 1.0
C      1  0.5105840000000  0.5130080000000  0.4989300000000 1.0
C      1  0.4855290000000  0.5082130000000  0.5770770000000 1.0
C      1  0.5035240000000  0.4805320000000  0.4223690000000 1.0
C      1  0.4561670000000  0.5268820000000  0.5429720000000 1.0
C      1  0.5426120000000  0.5251540000000  0.5369640000000 1.0
C      1  0.4617440000000  0.5096620000000  0.4658670000000 1.0
C      1  0.4835580000000  0.5420180000000  0.5041460000000 1.0
C      1  0.4614610000000  0.5436950000000  0.4624460000000 1.0
C      1  0.4179190000000  0.4643720000000  0.4710720000000 1.0
C      1  0.5254760000000  0.4672930000000  0.4365720000000 1.0
C      1  0.4402160000000  0.4925540000000  0.5165970000000 1.0
C      1  0.5128090000000  0.4943810000000  0.5729410000000 1.0
C      1  0.5115330000000  0.4151840000000  0.5638990000000 1.0
C      1  0.5316990000000  0.5176260000000  0.4195320000000 1.0
C      1  0.4653040000000  0.5701750000000  0.5088530000000 1.0
C      1  0.5463570000000  0.5507640000000  0.5535810000000 1.0
C      1  0.4797890000000  0.5203260000000  0.4170480000000 1.0
C      1  0.4995010000000  0.5423480000000  0.4742750000000 1.0
C      1  0.5702300000000  0.4755090000000  0.5130730000000 1.0
C      1  0.4783570000000  0.4730290000000  0.4289390000000 1.0
C      1  0.5008220000000  0.4121540000000  0.5365020000000 1.0
C      1  0.4644320000000  0.4769840000000  0.4562080000000 1.0
C      1  0.5491820000000  0.5216620000000  0.4412600000000 1.0
C      1  0.5043840000000  0.5530770000000  0.5762520000000 1.0
C      1  0.5198590000000  0.4164940000000  0.4471410000000 1.0
C      1  0.4707960000000  0.4464280000000  0.5363280000000 1.0
C      1  0.4793500000000  0.5113220000000  0.4927290000000 1.0
C      1  0.4811370000000  0.4133300000000  0.5165250000000 1.0
C      1  0.5121430000000  0.4090070000000  0.4748630000000 1.0
C      1  0.5723920000000  0.4482330000000  0.5305500000000 1.0
C      1  0.4232880000000  0.4811010000000  0.4974020000000 1.0
C      1  0.5398060000000  0.5640010000000  0.4965340000000 1.0
C      1  0.4540620000000  0.5207240000000  0.4264420000000 1.0
C      1  0.5938890000000  0.5204020000000  0.4948610000000 1.0
C      1  0.4775400000000  0.4536870000000  0.4773520000000 1.0
C      1  0.5590970000000  0.4797850000000  0.5511860000000 1.0
C      1  0.5524890000000  0.4933530000000  0.5008980000000 1.0
C      1  0.5066990000000  0.5849130000000  0.5312250000000 1.0
C      1  0.4473610000000  0.4821710000000  0.5611170000000 1.0
C      1  0.4797340000000  0.6141810000000  0.4947500000000 1.0
C      1  0.5354350000000  0.5170790000000  0.5843030000000 1.0
C      1  0.5497000000000  0.4461970000000  0.4794120000000 1.0
C      1  0.4621660000000  0.5049890000000  0.5610580000000 1.0
C      1  0.5537650000000  0.5478690000000  0.4523590000000 1.0
C      1  0.4535500000000  0.5587060000000  0.4385720000000 1.0
C      1  0.5071120000000  0.4652530000000  0.4890770000000 1.0
C      1  0.4876150000000  0.5339600000000  0.5891760000000 1.0
C      1  0.5416930000000  0.5006510000000  0.5558640000000 1.0
C      1  0.5324990000000  0.5455830000000  0.5784240000000 1.0
C      1  0.5138380000000  0.4481090000000  0.4621230000000 1.0
C      1  0.5147450000000  0.5392690000000  0.4514580000000 1.0
C      1  0.5455030000000  0.4755270000000  0.4624770000000 1.0
C      1  0.4926200000000  0.4281380000000  0.4924160000000 1.0
C      1  0.4420590000000  0.4534720000000  0.4594590000000 1.0
C      1  0.5733340000000  0.4479210000000  0.4979860000000 1.0
C      1  0.4826620000000  0.5684480000000  0.4729130000000 1.0
C      1  0.4321670000000  0.5252180000000  0.4425310000000 1.0
C      1  0.5251150000000  0.4321330000000  0.5271460000000 1.0
C      1  0.5433370000000  0.4397720000000  0.4464490000000 1.0
C      1  0.4781660000000  0.5437990000000  0.5357180000000 1.0
C      1  0.5288390000000  0.4383350000000  0.5664560000000 1.0
C      1  0.5510620000000  0.4376540000000  0.5449810000000 1.0
C      1  0.4309800000000  0.4950260000000  0.4685230000000 1.0
C      1  0.5252310000000  0.4895800000000  0.4945740000000 1.0
C      1  0.5543540000000  0.5471940000000  0.4811290000000 1.0
C      1  0.4787140000000  0.5930650000000  0.5172560000000 1.0
C      1  0.4681730000000  0.4894650000000  0.5110080000000 1.0
C      1  0.5055410000000  0.5077540000000  0.4160370000000 1.0
C      1  0.5665960000000  0.5189030000000  0.4885930000000 1.0
C      1  0.4288410000000  0.5364070000000  0.4974120000000 1.0
C      1  0.4550810000000  0.4289860000000  0.4698140000000 1.0
C      1  0.4209840000000  0.5248930000000  0.4714090000000 1.0
C      1  0.5236850000000  0.5318060000000  0.5138930000000 1.0
C      1  0.5267080000000  0.4312280000000  0.4958890000000 1.0
C      1  0.4488030000000  0.5554470000000  0.4897030000000 1.0
C      1  0.5181260000000  0.5853840000000  0.4990260000000 1.0
C      1  0.4400030000000  0.4371040000000  0.5474740000000 1.0
C      1  0.5209670000000  0.5544710000000  0.4305010000000 1.0
C      1  0.4533430000000  0.4192790000000  0.5250480000000 1.0
C      1  0.4357260000000  0.5210930000000  0.5221020000000 1.0
C      1  0.4961690000000  0.5916150000000  0.4814210000000 1.0
C      1  0.4859980000000  0.4658410000000  0.5144080000000 1.0
C      1  0.5302050000000  0.5619610000000  0.5285440000000 1.0
C      1  0.4956430000000  0.5610440000000  0.5500090000000 1.0
END
