TITL C-2782240-8521-1266 -0.00215004163082808 125000 -790.371918303633 0 0 136 (C1) n - 1
REM
REM in /home/nfs/bkarasulu/CARBON/AIRSS/Generating-Clusters/REBO/Higher-Symm/SD-CG/HFTN-CG
REM
REM
REM
REM
REM
REM ./C.cell (12c818d87b63d06a65506943cc24bca4)
REM
REM compiler GCC version 9.2.1 20190827 (Red Hat 9.2.1-1)
REM options -cpp -mtune=generic -march=x86-64 -g -O0 -fpre-include=/usr/include/finclude/math-vector-fortran.h
REM seed -1988511741 2046067886 625701335 135264386 -1466628990 -1107201974 -950366893 63042137 -686364247 -34837905 1940118816 -585085869 -299294138 2044598389 -791533507 975764988 1811215619 1639276868 777120683 -1890462933 417203736 -833611742 1187813486 592855433 -381392364 1203563190 2117577797 1759518590 1776404800 1030791020 -1342441592 -350506206 1410366586
REM
CELL 1.54180   50.00000   50.00000   50.00000   90.00000   90.00000   90.00000
LATT -1
SFAC C  
C      1  0.5387430000000  0.5089810000000  0.5581090000000 1.0
C      1  0.4900970000000  0.5605730000000  0.4313150000000 1.0
C      1  0.5512850000000  0.5238080000000  0.4306790000000 1.0
C      1  0.5666420000000  0.5080580000000  0.5017020000000 1.0
C      1  0.6041720000000  0.5127640000000  0.5190390000000 1.0
C      1  0.5556890000000  0.5581760000000  0.5968830000000 1.0
C      1  0.5249080000000  0.5697770000000  0.4641030000000 1.0
C      1  0.4970630000000  0.4966310000000  0.4738590000000 1.0
C      1  0.4178780000000  0.4099990000000  0.4923090000000 1.0
C      1  0.4511060000000  0.5506630000000  0.4238860000000 1.0
C      1  0.5922940000000  0.5376500000000  0.4791230000000 1.0
C      1  0.5234460000000  0.4663690000000  0.5481760000000 1.0
C      1  0.5181260000000  0.4267760000000  0.4538260000000 1.0
C      1  0.5957500000000  0.5149300000000  0.4542390000000 1.0
C      1  0.4019590000000  0.4786320000000  0.5464820000000 1.0
C      1  0.4649190000000  0.5023110000000  0.5218300000000 1.0
C      1  0.4660210000000  0.5050700000000  0.4773300000000 1.0
C      1  0.4130770000000  0.5202890000000  0.5145930000000 1.0
C      1  0.4357470000000  0.4304040000000  0.4864650000000 1.0
C      1  0.4481050000000  0.4559060000000  0.5048340000000 1.0
C      1  0.5208950000000  0.4719890000000  0.4762700000000 1.0
C      1  0.5005820000000  0.4669140000000  0.5935200000000 1.0
C      1  0.4535960000000  0.4486670000000  0.5310090000000 1.0
C      1  0.4415630000000  0.4223510000000  0.5389010000000 1.0
C      1  0.5275570000000  0.4904280000000  0.5244850000000 1.0
C      1  0.4419540000000  0.4654820000000  0.4562320000000 1.0
C      1  0.5268030000000  0.5275010000000  0.4165350000000 1.0
C      1  0.4927420000000  0.4862550000000  0.4429380000000 1.0
C      1  0.5072140000000  0.5028080000000  0.5477580000000 1.0
C      1  0.5162210000000  0.4008420000000  0.5297900000000 1.0
C      1  0.4467370000000  0.4029330000000  0.5189560000000 1.0
C      1  0.5301510000000  0.4381850000000  0.5301490000000 1.0
C      1  0.5574890000000  0.4165230000000  0.4941050000000 1.0
C      1  0.5113610000000  0.5004700000000  0.4080390000000 1.0
C      1  0.5617170000000  0.4861940000000  0.4220090000000 1.0
C      1  0.4208800000000  0.5620140000000  0.5404800000000 1.0
C      1  0.5734510000000  0.5509190000000  0.5244930000000 1.0
C      1  0.5625910000000  0.5680970000000  0.4510400000000 1.0
C      1  0.5493570000000  0.4678060000000  0.4903170000000 1.0
C      1  0.4690210000000  0.4036150000000  0.5007460000000 1.0
C      1  0.5542710000000  0.4728950000000  0.5227420000000 1.0
C      1  0.4808720000000  0.5036990000000  0.4043560000000 1.0
C      1  0.4381060000000  0.5127050000000  0.5705390000000 1.0
C      1  0.4870480000000  0.4236780000000  0.5633760000000 1.0
C      1  0.5849340000000  0.4907390000000  0.5696340000000 1.0
C      1  0.4893670000000  0.4191330000000  0.4497680000000 1.0
C      1  0.4814820000000  0.5600220000000  0.5460590000000 1.0
C      1  0.4977750000000  0.5572100000000  0.5677140000000 1.0
C      1  0.4906560000000  0.5473430000000  0.5230830000000 1.0
C      1  0.5672280000000  0.5875410000000  0.4783870000000 1.0
C      1  0.5487500000000  0.5441730000000  0.5740570000000 1.0
C      1  0.5187260000000  0.5054580000000  0.4977230000000 1.0
C      1  0.5016740000000  0.4479930000000  0.5204010000000 1.0
C      1  0.5930650000000  0.5373230000000  0.5077550000000 1.0
C      1  0.3956010000000  0.5155990000000  0.4895960000000 1.0
C      1  0.4850690000000  0.5167610000000  0.4416570000000 1.0
C      1  0.4315070000000  0.5404800000000  0.4677350000000 1.0
C      1  0.4896220000000  0.4947010000000  0.5127650000000 1.0
C      1  0.5134870000000  0.4129160000000  0.5562160000000 1.0
C      1  0.5240270000000  0.5872380000000  0.5108020000000 1.0
C      1  0.5531760000000  0.4401950000000  0.4506760000000 1.0
C      1  0.5450790000000  0.4144910000000  0.4676520000000 1.0
C      1  0.4639970000000  0.4492320000000  0.4556540000000 1.0
C      1  0.5830230000000  0.4603970000000  0.5141000000000 1.0
C      1  0.4226800000000  0.4568720000000  0.4741980000000 1.0
C      1  0.4599490000000  0.4909360000000  0.4206580000000 1.0
C      1  0.4591280000000  0.5331580000000  0.5687310000000 1.0
C      1  0.5571120000000  0.5544300000000  0.4821410000000 1.0
C      1  0.5713190000000  0.4554470000000  0.4693190000000 1.0
C      1  0.5264990000000  0.4592170000000  0.4474880000000 1.0
C      1  0.4930620000000  0.5348990000000  0.4617280000000 1.0
C      1  0.6002200000000  0.4833270000000  0.5111640000000 1.0
C      1  0.5406740000000  0.4124200000000  0.5159320000000 1.0
C      1  0.5537120000000  0.4917010000000  0.5782860000000 1.0
C      1  0.5507590000000  0.5081600000000  0.4549800000000 1.0
C      1  0.5100900000000  0.5286180000000  0.5291000000000 1.0
C      1  0.5895310000000  0.4764750000000  0.4608600000000 1.0
C      1  0.5362100000000  0.5366780000000  0.5254120000000 1.0
C      1  0.5069090000000  0.4442780000000  0.3979590000000 1.0
C      1  0.4542440000000  0.5869120000000  0.4617970000000 1.0
C      1  0.4655110000000  0.4208550000000  0.4729320000000 1.0
C      1  0.5364170000000  0.5885340000000  0.4817280000000 1.0
C      1  0.5317970000000  0.4786250000000  0.4245040000000 1.0
C      1  0.4834260000000  0.5549660000000  0.4948780000000 1.0
C      1  0.4245400000000  0.5130310000000  0.4540830000000 1.0
C      1  0.4929230000000  0.4758820000000  0.5616090000000 1.0
C      1  0.5162260000000  0.5539720000000  0.4212280000000 1.0
C      1  0.5179930000000  0.5424930000000  0.4716350000000 1.0
C      1  0.4510140000000  0.5568490000000  0.5497040000000 1.0
C      1  0.4503360000000  0.5495830000000  0.5164450000000 1.0
C      1  0.4011940000000  0.4782540000000  0.5189510000000 1.0
C      1  0.4938410000000  0.3967220000000  0.5125020000000 1.0
C      1  0.4064260000000  0.5495050000000  0.5215590000000 1.0
C      1  0.5849190000000  0.4905360000000  0.4346950000000 1.0
C      1  0.4870850000000  0.5200160000000  0.5776000000000 1.0
C      1  0.4150720000000  0.4772800000000  0.4949450000000 1.0
C      1  0.4810110000000  0.4503640000000  0.5435350000000 1.0
C      1  0.5657280000000  0.5400600000000  0.5521390000000 1.0
C      1  0.4470800000000  0.4832410000000  0.4916560000000 1.0
C      1  0.5434770000000  0.5229180000000  0.4828350000000 1.0
C      1  0.5046770000000  0.5129070000000  0.6038300000000 1.0
C      1  0.5765230000000  0.4389520000000  0.4955290000000 1.0
C      1  0.4656120000000  0.4938140000000  0.5713380000000 1.0
C      1  0.4573320000000  0.5349690000000  0.4860940000000 1.0
C      1  0.5530260000000  0.4594740000000  0.5738830000000 1.0
C      1  0.4499840000000  0.4635930000000  0.5747700000000 1.0
C      1  0.5179350000000  0.4690320000000  0.3967900000000 1.0
C      1  0.4953640000000  0.4359970000000  0.4222670000000 1.0
C      1  0.5338960000000  0.4373990000000  0.5633210000000 1.0
C      1  0.5015810000000  0.4692120000000  0.5022640000000 1.0
C      1  0.5748490000000  0.5396130000000  0.4495610000000 1.0
C      1  0.5183810000000  0.5325590000000  0.5718410000000 1.0
C      1  0.4777560000000  0.4475170000000  0.5853450000000 1.0
C      1  0.4545830000000  0.4308320000000  0.5665990000000 1.0
C      1  0.4049120000000  0.5484130000000  0.4875910000000 1.0
C      1  0.5587960000000  0.5143590000000  0.5310700000000 1.0
C      1  0.4200470000000  0.4680760000000  0.5713750000000 1.0
C      1  0.4483650000000  0.4943950000000  0.4502090000000 1.0
C      1  0.4760920000000  0.5620610000000  0.4620720000000 1.0
C      1  0.4087690000000  0.5785090000000  0.4786320000000 1.0
C      1  0.5349570000000  0.5706730000000  0.4355090000000 1.0
C      1  0.4142350000000  0.4989940000000  0.5685280000000 1.0
C      1  0.5458730000000  0.5631420000000  0.5110690000000 1.0
C      1  0.4977890000000  0.5832730000000  0.4905850000000 1.0
C      1  0.5211810000000  0.6028570000000  0.5332130000000 1.0
C      1  0.4857590000000  0.4584340000000  0.4401020000000 1.0
C      1  0.4687100000000  0.5297100000000  0.4180080000000 1.0
C      1  0.5708890000000  0.4696980000000  0.5502740000000 1.0
C      1  0.4018300000000  0.5024260000000  0.4655190000000 1.0
C      1  0.5927550000000  0.4981060000000  0.4837080000000 1.0
C      1  0.4396440000000  0.5613670000000  0.4462870000000 1.0
C      1  0.4830580000000  0.5996940000000  0.4731430000000 1.0
C      1  0.4337440000000  0.5883870000000  0.4845730000000 1.0
C      1  0.5095110000000  0.4865230000000  0.6095810000000 1.0
C      1  0.4421550000000  0.5182150000000  0.5189650000000 1.0
C      1  0.4438650000000  0.5799190000000  0.5086410000000 1.0
END
