TITL C-2782229-3092-774 0.000103432365614213 125000 -898.668134970709 0 0 165 (C1) n - 1
REM
REM in /home/nfs/bkarasulu/CARBON/AIRSS/Generating-Clusters/REBO/Higher-Symm/SD-CG/HFTN-CG
REM
REM
REM
REM
REM
REM ./C.cell (12c818d87b63d06a65506943cc24bca4)
REM
REM compiler GCC version 9.2.1 20190827 (Red Hat 9.2.1-1)
REM options -cpp -mtune=generic -march=x86-64 -g -O0 -fpre-include=/usr/include/finclude/math-vector-fortran.h
REM seed 167318891 1985461217 829077426 -1017996558 -1227083991 538984234 -1640879059 1847324141 1307106620 -364350388 1831707182 1759438599 -682441461 -2105798610 1581768552 1573611002 -775383305 -1333669676 -1787856175 770463936 757642531 -1567590647 -1009490593 -354023094 2133800557 -1579979832 -1398445360 -1645607780 -1495497731 1999321830 -1740959779 1297682717 829442986
REM
CELL 1.54180   50.00000   50.00000   50.00000   90.00000   90.00000   90.00000
LATT -1
SFAC C  
C      1  0.4724960000000  0.4851830000000  0.5459880000000 1.0
C      1  0.4823990000000  0.5583200000000  0.4770540000000 1.0
C      1  0.5494340000000  0.4754920000000  0.4815990000000 1.0
C      1  0.5227590000000  0.5122960000000  0.5477540000000 1.0
C      1  0.4763880000000  0.5175630000000  0.4495990000000 1.0
C      1  0.5282450000000  0.4788170000000  0.4467880000000 1.0
C      1  0.5143620000000  0.4470310000000  0.4671730000000 1.0
C      1  0.4795290000000  0.4515520000000  0.5255910000000 1.0
C      1  0.5108310000000  0.5492670000000  0.5240880000000 1.0
C      1  0.4525260000000  0.5303460000000  0.4836090000000 1.0
C      1  0.5485540000000  0.5247000000000  0.5110620000000 1.0
C      1  0.4431560000000  0.4700210000000  0.5136490000000 1.0
C      1  0.4699400000000  0.4854880000000  0.4418120000000 1.0
C      1  0.4789510000000  0.5519620000000  0.5330870000000 1.0
C      1  0.5472240000000  0.4674100000000  0.5141130000000 1.0
C      1  0.5326750000000  0.5123460000000  0.4493850000000 1.0
C      1  0.4645150000000  0.5173810000000  0.5495690000000 1.0
C      1  0.5319190000000  0.4802870000000  0.5487330000000 1.0
C      1  0.5125730000000  0.4464850000000  0.5297300000000 1.0
C      1  0.4820200000000  0.4546330000000  0.4707790000000 1.0
C      1  0.5148970000000  0.5510760000000  0.4696690000000 1.0
C      1  0.4462030000000  0.5345330000000  0.5159770000000 1.0
C      1  0.5530800000000  0.5353570000000  0.4798470000000 1.0
C      1  0.4486470000000  0.4744210000000  0.4805060000000 1.0
C      1  0.4283350000000  0.4514530000000  0.4489770000000 1.0
C      1  0.4530390000000  0.4451010000000  0.4275410000000 1.0
C      1  0.4497100000000  0.4264710000000  0.4548800000000 1.0
C      1  0.5736550000000  0.5495600000000  0.4481950000000 1.0
C      1  0.4236400000000  0.5505770000000  0.5524870000000 1.0
C      1  0.5732740000000  0.4483740000000  0.5495480000000 1.0
C      1  0.5490700000000  0.5510980000000  0.4263020000000 1.0
C      1  0.4478520000000  0.5521330000000  0.5755530000000 1.0
C      1  0.5482650000000  0.4472240000000  0.5725770000000 1.0
C      1  0.5516370000000  0.5755700000000  0.4490750000000 1.0
C      1  0.4461700000000  0.5755530000000  0.5508920000000 1.0
C      1  0.5490830000000  0.4250040000000  0.5483550000000 1.0
C      1  0.4269540000000  0.4549740000000  0.5526090000000 1.0
C      1  0.4531750000000  0.4509680000000  0.5727200000000 1.0
C      1  0.4477150000000  0.4286420000000  0.5490270000000 1.0
C      1  0.5681160000000  0.5432720000000  0.5480870000000 1.0
C      1  0.4293090000000  0.5458570000000  0.4512700000000 1.0
C      1  0.5751120000000  0.4542780000000  0.4465640000000 1.0
C      1  0.5424880000000  0.5495900000000  0.5688700000000 1.0
C      1  0.4547860000000  0.5510250000000  0.4299900000000 1.0
C      1  0.5493010000000  0.4499620000000  0.4248230000000 1.0
C      1  0.5485130000000  0.5703130000000  0.5433460000000 1.0
C      1  0.4487720000000  0.5734910000000  0.4548810000000 1.0
C      1  0.5522220000000  0.4306310000000  0.4520420000000 1.0
C      1  0.5460710000000  0.5357630000000  0.3986340000000 1.0
C      1  0.5301290000000  0.3990400000000  0.5460380000000 1.0
C      1  0.3959610000000  0.5472880000000  0.5371180000000 1.0
C      1  0.4573830000000  0.4582280000000  0.3986560000000 1.0
C      1  0.5463410000000  0.4636810000000  0.6000320000000 1.0
C      1  0.4516530000000  0.5342660000000  0.6020910000000 1.0
C      1  0.4640820000000  0.6021690000000  0.5476870000000 1.0
C      1  0.5335910000000  0.6019290000000  0.4518480000000 1.0
C      1  0.4670130000000  0.4007030000000  0.4607670000000 1.0
C      1  0.6006080000000  0.4517330000000  0.5331790000000 1.0
C      1  0.4016130000000  0.4533380000000  0.4663470000000 1.0
C      1  0.6011070000000  0.5473280000000  0.4646860000000 1.0
C      1  0.5397440000000  0.5330100000000  0.5957200000000 1.0
C      1  0.5368700000000  0.4026010000000  0.4563160000000 1.0
C      1  0.4040880000000  0.5409370000000  0.4697580000000 1.0
C      1  0.4582120000000  0.4659400000000  0.5999160000000 1.0
C      1  0.5464100000000  0.4703000000000  0.3996380000000 1.0
C      1  0.4588200000000  0.5295450000000  0.4063710000000 1.0
C      1  0.4658420000000  0.6001150000000  0.4581230000000 1.0
C      1  0.5326480000000  0.5975700000000  0.5409580000000 1.0
C      1  0.4634150000000  0.4007660000000  0.5476040000000 1.0
C      1  0.6011870000000  0.4586240000000  0.4642840000000 1.0
C      1  0.3997970000000  0.4585410000000  0.5369190000000 1.0
C      1  0.5952950000000  0.5403740000000  0.5320770000000 1.0
C      1  0.5159900000000  0.4422400000000  0.5627530000000 1.0
C      1  0.4396080000000  0.5657740000000  0.5191210000000 1.0
C      1  0.5643840000000  0.5172680000000  0.4426910000000 1.0
C      1  0.4790630000000  0.5575310000000  0.5645220000000 1.0
C      1  0.5178690000000  0.5568850000000  0.4377550000000 1.0
C      1  0.4840170000000  0.4421720000000  0.4415970000000 1.0
C      1  0.5540970000000  0.4362580000000  0.5166350000000 1.0
C      1  0.4459830000000  0.4435290000000  0.4839840000000 1.0
C      1  0.5581540000000  0.5665630000000  0.4806860000000 1.0
C      1  0.4370960000000  0.4832290000000  0.4405810000000 1.0
C      1  0.5628140000000  0.4798150000000  0.5549780000000 1.0
C      1  0.4340870000000  0.5187390000000  0.5584250000000 1.0
C      1  0.5175560000000  0.4423270000000  0.4345470000000 1.0
C      1  0.4435270000000  0.5604190000000  0.4856700000000 1.0
C      1  0.5546620000000  0.5127750000000  0.5528770000000 1.0
C      1  0.4844780000000  0.5563770000000  0.4444730000000 1.0
C      1  0.5117800000000  0.5544960000000  0.5555550000000 1.0
C      1  0.4827410000000  0.4466740000000  0.5563750000000 1.0
C      1  0.5565300000000  0.4439010000000  0.4832400000000 1.0
C      1  0.4405090000000  0.4376450000000  0.5171700000000 1.0
C      1  0.5539700000000  0.5574780000000  0.5129620000000 1.0
C      1  0.4415010000000  0.4854600000000  0.5561740000000 1.0
C      1  0.5595130000000  0.4835500000000  0.4437630000000 1.0
C      1  0.4447320000000  0.5159730000000  0.4463000000000 1.0
C      1  0.4042970000000  0.4829150000000  0.4499870000000 1.0
C      1  0.4876380000000  0.4463440000000  0.4084340000000 1.0
C      1  0.4600670000000  0.4144320000000  0.4912490000000 1.0
C      1  0.5982730000000  0.5185820000000  0.4469300000000 1.0
C      1  0.4001680000000  0.5187260000000  0.5550840000000 1.0
C      1  0.5965960000000  0.4804640000000  0.5508420000000 1.0
C      1  0.5163160000000  0.5513130000000  0.4040590000000 1.0
C      1  0.4805060000000  0.5515500000000  0.5980470000000 1.0
C      1  0.5169620000000  0.4470300000000  0.5966690000000 1.0
C      1  0.5518130000000  0.5999810000000  0.4804080000000 1.0
C      1  0.4463340000000  0.5991910000000  0.5190110000000 1.0
C      1  0.5437810000000  0.4036280000000  0.5155910000000 1.0
C      1  0.4091300000000  0.4899350000000  0.5463170000000 1.0
C      1  0.4891720000000  0.4580200000000  0.5878460000000 1.0
C      1  0.4473880000000  0.4041350000000  0.5179590000000 1.0
C      1  0.5861790000000  0.5086410000000  0.5403440000000 1.0
C      1  0.4155910000000  0.5099450000000  0.4615080000000 1.0
C      1  0.5899140000000  0.4898160000000  0.4566070000000 1.0
C      1  0.5079020000000  0.5407030000000  0.5864130000000 1.0
C      1  0.4898730000000  0.5387560000000  0.4158450000000 1.0
C      1  0.5169030000000  0.4547520000000  0.4025490000000 1.0
C      1  0.5427250000000  0.5899400000000  0.5091510000000 1.0
C      1  0.4556730000000  0.5919730000000  0.4894980000000 1.0
C      1  0.5503420000000  0.4108900000000  0.4861840000000 1.0
C      1  0.4815250000000  0.5184680000000  0.6065200000000 1.0
C      1  0.5183280000000  0.6065910000000  0.4819370000000 1.0
C      1  0.6056550000000  0.4818020000000  0.5179980000000 1.0
C      1  0.5170950000000  0.4800720000000  0.6059210000000 1.0
C      1  0.4851020000000  0.4773570000000  0.3938670000000 1.0
C      1  0.5170020000000  0.5186380000000  0.3944180000000 1.0
C      1  0.4887380000000  0.3970000000000  0.4860090000000 1.0
C      1  0.5117580000000  0.3924280000000  0.5181090000000 1.0
C      1  0.4796760000000  0.6070760000000  0.5177430000000 1.0
C      1  0.3929750000000  0.5170790000000  0.5217850000000 1.0
C      1  0.6068000000000  0.5174490000000  0.4799880000000 1.0
C      1  0.3968970000000  0.4822630000000  0.4834160000000 1.0
C      1  0.4849510000000  0.5086910000000  0.4000220000000 1.0
C      1  0.5117640000000  0.6040960000000  0.5152600000000 1.0
C      1  0.6054840000000  0.4839570000000  0.4865200000000 1.0
C      1  0.5177270000000  0.4872910000000  0.3924210000000 1.0
C      1  0.4836600000000  0.4870770000000  0.6051500000000 1.0
C      1  0.5148560000000  0.5115920000000  0.6031540000000 1.0
C      1  0.4799340000000  0.3934230000000  0.5187760000000 1.0
C      1  0.5195960000000  0.3960080000000  0.4848990000000 1.0
C      1  0.4867490000000  0.6056620000000  0.4843300000000 1.0
C      1  0.3990690000000  0.5154000000000  0.4909930000000 1.0
C      1  0.6030110000000  0.5151040000000  0.5111510000000 1.0
C      1  0.3961880000000  0.4838510000000  0.5150780000000 1.0
C      1  0.5195300000000  0.4344100000000  0.4984680000000 1.0
C      1  0.4363120000000  0.5026300000000  0.5210200000000 1.0
C      1  0.5028870000000  0.5075400000000  0.4366310000000 1.0
C      1  0.4820820000000  0.5705480000000  0.5069000000000 1.0
C      1  0.5146830000000  0.5668620000000  0.4979000000000 1.0
C      1  0.4894230000000  0.4410570000000  0.4977080000000 1.0
C      1  0.5630520000000  0.4956930000000  0.5128530000000 1.0
C      1  0.4410900000000  0.5031220000000  0.4914820000000 1.0
C      1  0.5640110000000  0.5044810000000  0.4805800000000 1.0
C      1  0.5012380000000  0.4815280000000  0.5602270000000 1.0
C      1  0.4998260000000  0.4770540000000  0.4306510000000 1.0
C      1  0.4940420000000  0.5139560000000  0.5629230000000 1.0
C      1  0.5221780000000  0.5205470000000  0.4790440000000 1.0
C      1  0.4752240000000  0.4818800000000  0.5140180000000 1.0
C      1  0.4778240000000  0.5212540000000  0.5182210000000 1.0
C      1  0.5172150000000  0.4791940000000  0.4786530000000 1.0
C      1  0.4783530000000  0.4863030000000  0.4744610000000 1.0
C      1  0.5154800000000  0.4788030000000  0.5186350000000 1.0
C      1  0.5193780000000  0.5210480000000  0.5188680000000 1.0
C      1  0.4828100000000  0.5257660000000  0.4782230000000 1.0
C      1  0.4990390000000  0.5018940000000  0.4980020000000 1.0
END
