TITL C-2782238-9940-1088 -1.90508381109508e-05 125000 -661.26443143082 0 0 111 (C1) n - 1
REM
REM in /home/nfs/bkarasulu/CARBON/AIRSS/Generating-Clusters/REBO/Higher-Symm/SD-CG/HFTN-CG
REM
REM
REM
REM
REM
REM ./C.cell (12c818d87b63d06a65506943cc24bca4)
REM
REM compiler GCC version 9.2.1 20190827 (Red Hat 9.2.1-1)
REM options -cpp -mtune=generic -march=x86-64 -g -O0 -fpre-include=/usr/include/finclude/math-vector-fortran.h
REM seed 1384374664 -1954886873 486049151 -534872930 1872184440 -22216941 -2086219030 -66957711 -1344569985 466029275 -1497751625 -1652618187 -80850760 73893318 -1799524234 257920716 1233200738 -974314082 492657316 -632881086 1699271471 -1271795793 996617445 81828060 -57315003 1932648589 -280520207 -409688205 -1792795796 -1129702466 -441029770 -1861463615 1855636314
REM
CELL 1.54180   50.00000   50.00000   50.00000   90.00000   90.00000   90.00000
LATT -1
SFAC C  
C      1  0.5117220000000  0.4495370000000  0.4330370000000 1.0
C      1  0.4359510000000  0.4467770000000  0.4659480000000 1.0
C      1  0.4462140000000  0.4491150000000  0.5492100000000 1.0
C      1  0.5304630000000  0.4423610000000  0.5647310000000 1.0
C      1  0.5680380000000  0.4447250000000  0.4921620000000 1.0
C      1  0.4325510000000  0.4230370000000  0.4795660000000 1.0
C      1  0.4576520000000  0.4238830000000  0.5535300000000 1.0
C      1  0.5380190000000  0.4180800000000  0.5519100000000 1.0
C      1  0.5608690000000  0.4198060000000  0.4804690000000 1.0
C      1  0.4997070000000  0.4246230000000  0.4321940000000 1.0
C      1  0.4825840000000  0.4646160000000  0.4832300000000 1.0
C      1  0.4763270000000  0.4650090000000  0.5112420000000 1.0
C      1  0.5010150000000  0.4663860000000  0.5262610000000 1.0
C      1  0.5242220000000  0.4682560000000  0.5065780000000 1.0
C      1  0.5108510000000  0.4694350000000  0.4805340000000 1.0
C      1  0.5109130000000  0.4881210000000  0.4221020000000 1.0
C      1  0.4231980000000  0.4839780000000  0.4601760000000 1.0
C      1  0.4421020000000  0.4890230000000  0.5614630000000 1.0
C      1  0.5408630000000  0.4902540000000  0.5656420000000 1.0
C      1  0.5698310000000  0.4925440000000  0.4812380000000 1.0
C      1  0.5234160000000  0.5546140000000  0.4920460000000 1.0
C      1  0.4999080000000  0.5375780000000  0.4793950000000 1.0
C      1  0.4785700000000  0.5357560000000  0.4968940000000 1.0
C      1  0.4893210000000  0.5392240000000  0.5220530000000 1.0
C      1  0.5155920000000  0.5488950000000  0.5211760000000 1.0
C      1  0.5519300000000  0.5483040000000  0.4395280000000 1.0
C      1  0.4609890000000  0.5414750000000  0.4280090000000 1.0
C      1  0.4071150000000  0.5475650000000  0.4941250000000 1.0
C      1  0.4965930000000  0.5429880000000  0.5841340000000 1.0
C      1  0.5748190000000  0.5469010000000  0.5344330000000 1.0
C      1  0.5194300000000  0.4206880000000  0.5089170000000 1.0
C      1  0.5140130000000  0.4201230000000  0.4804310000000 1.0
C      1  0.4850130000000  0.4194150000000  0.4766460000000 1.0
C      1  0.4727370000000  0.4198610000000  0.5034280000000 1.0
C      1  0.4940470000000  0.4200680000000  0.5232150000000 1.0
C      1  0.5379050000000  0.4787580000000  0.4272530000000 1.0
C      1  0.4365380000000  0.4727640000000  0.4361070000000 1.0
C      1  0.4241050000000  0.4820560000000  0.5352350000000 1.0
C      1  0.5140940000000  0.4760270000000  0.5785510000000 1.0
C      1  0.5781970000000  0.4797840000000  0.5119420000000 1.0
C      1  0.4650250000000  0.4835890000000  0.4681650000000 1.0
C      1  0.4591130000000  0.4894700000000  0.5174860000000 1.0
C      1  0.5075050000000  0.4971510000000  0.5320270000000 1.0
C      1  0.5415460000000  0.4952310000000  0.5115020000000 1.0
C      1  0.5176260000000  0.4969120000000  0.4677370000000 1.0
C      1  0.4859350000000  0.4251170000000  0.5498040000000 1.0
C      1  0.5429080000000  0.4250550000000  0.5243300000000 1.0
C      1  0.5372010000000  0.4246080000000  0.4645830000000 1.0
C      1  0.4770760000000  0.4247340000000  0.4497870000000 1.0
C      1  0.4449750000000  0.4260350000000  0.5051490000000 1.0
C      1  0.4172690000000  0.5114060000000  0.4652970000000 1.0
C      1  0.4516170000000  0.5194760000000  0.5732630000000 1.0
C      1  0.5578670000000  0.5188430000000  0.5726890000000 1.0
C      1  0.5833800000000  0.5225390000000  0.4724760000000 1.0
C      1  0.5014560000000  0.5147350000000  0.4147670000000 1.0
C      1  0.4147520000000  0.5050260000000  0.5158950000000 1.0
C      1  0.4924540000000  0.4948670000000  0.5885640000000 1.0
C      1  0.5895640000000  0.4989420000000  0.5379090000000 1.0
C      1  0.5595120000000  0.5000900000000  0.4313600000000 1.0
C      1  0.4485120000000  0.4942890000000  0.4163720000000 1.0
C      1  0.4838110000000  0.5026630000000  0.4483740000000 1.0
C      1  0.4470360000000  0.5003790000000  0.4895590000000 1.0
C      1  0.4701710000000  0.4966100000000  0.5460880000000 1.0
C      1  0.5371840000000  0.5098860000000  0.5401010000000 1.0
C      1  0.5448370000000  0.5140760000000  0.4742630000000 1.0
C      1  0.4349110000000  0.4549540000000  0.5191230000000 1.0
C      1  0.4986350000000  0.4502740000000  0.5651570000000 1.0
C      1  0.5611480000000  0.4538470000000  0.5232930000000 1.0
C      1  0.5404810000000  0.4540760000000  0.4484460000000 1.0
C      1  0.4602300000000  0.4516260000000  0.4446850000000 1.0
C      1  0.4414600000000  0.5169990000000  0.5273640000000 1.0
C      1  0.5039290000000  0.5107320000000  0.5619720000000 1.0
C      1  0.5687000000000  0.5122760000000  0.5156620000000 1.0
C      1  0.5316910000000  0.5143280000000  0.4438810000000 1.0
C      1  0.4526250000000  0.5072950000000  0.4469080000000 1.0
C      1  0.5542160000000  0.5666810000000  0.5430090000000 1.0
C      1  0.5462960000000  0.5690970000000  0.4627420000000 1.0
C      1  0.4858800000000  0.5519130000000  0.4372660000000 1.0
C      1  0.4337630000000  0.5560570000000  0.4897000000000 1.0
C      1  0.4874530000000  0.5668680000000  0.5719720000000 1.0
C      1  0.4328010000000  0.4694650000000  0.4885480000000 1.0
C      1  0.4695910000000  0.4679040000000  0.5620800000000 1.0
C      1  0.5478710000000  0.4626600000000  0.5533690000000 1.0
C      1  0.5618220000000  0.4645780000000  0.4720100000000 1.0
C      1  0.4877150000000  0.4705390000000  0.4379300000000 1.0
C      1  0.5506030000000  0.5427130000000  0.4830630000000 1.0
C      1  0.4960080000000  0.5292350000000  0.4539450000000 1.0
C      1  0.4511230000000  0.5299330000000  0.4847520000000 1.0
C      1  0.4802600000000  0.5254700000000  0.5463110000000 1.0
C      1  0.5359960000000  0.5413550000000  0.5422440000000 1.0
C      1  0.5153660000000  0.5640780000000  0.4490580000000 1.0
C      1  0.4502190000000  0.5784120000000  0.4920860000000 1.0
C      1  0.4740790000000  0.5668340000000  0.5466070000000 1.0
C      1  0.5380510000000  0.5897170000000  0.5408460000000 1.0
C      1  0.5462090000000  0.5940100000000  0.4808490000000 1.0
C      1  0.4708040000000  0.5174000000000  0.4129230000000 1.0
C      1  0.4058210000000  0.5187960000000  0.4914930000000 1.0
C      1  0.4765710000000  0.5212180000000  0.5889450000000 1.0
C      1  0.5784080000000  0.5241200000000  0.5525190000000 1.0
C      1  0.5697890000000  0.5263330000000  0.4454040000000 1.0
C      1  0.5261660000000  0.5312690000000  0.5720440000000 1.0
C      1  0.5763240000000  0.5394850000000  0.5013590000000 1.0
C      1  0.5219790000000  0.5395450000000  0.4259650000000 1.0
C      1  0.4388880000000  0.5348690000000  0.4530530000000 1.0
C      1  0.4513410000000  0.5415880000000  0.5474410000000 1.0
C      1  0.5021170000000  0.5773630000000  0.4776230000000 1.0
C      1  0.4775550000000  0.5801030000000  0.4975530000000 1.0
C      1  0.4876320000000  0.5806380000000  0.5250510000000 1.0
C      1  0.5154870000000  0.5916250000000  0.5233260000000 1.0
C      1  0.5227130000000  0.5944420000000  0.4955130000000 1.0
C      1  0.5118480000000  0.5053590000000  0.4992660000000 1.0
END
