TITL C-2782234-8014-1175 0.00331622331191172 125000 -815.235282986325 0 0 140 (C1) n - 1
REM
REM in /home/nfs/bkarasulu/CARBON/AIRSS/Generating-Clusters/REBO/Higher-Symm/SD-CG/HFTN-CG
REM
REM
REM
REM
REM
REM ./C.cell (12c818d87b63d06a65506943cc24bca4)
REM
REM compiler GCC version 9.2.1 20190827 (Red Hat 9.2.1-1)
REM options -cpp -mtune=generic -march=x86-64 -g -O0 -fpre-include=/usr/include/finclude/math-vector-fortran.h
REM seed 1021133455 415606235 70497569 390858451 1970238240 -1516063481 1834391893 -361117604 1387296961 -1901387639 2040347896 -1479830640 505490838 -731484397 661334020 -1521296809 1790075948 435034791 651444835 -2088181127 -1992936462 -623546184 2010881383 533996481 -1899981874 -540206368 1631519458 200212512 594348688 2003072884 1380687907 -930608314 848247349
REM
CELL 1.54180   50.00000   50.00000   50.00000   90.00000   90.00000   90.00000
LATT -1
SFAC C  
C      1  0.4885750000000  0.4422220000000  0.4256130000000 1.0
C      1  0.4445820000000  0.4190280000000  0.4850190000000 1.0
C      1  0.4222130000000  0.4782740000000  0.4470200000000 1.0
C      1  0.5221540000000  0.5587660000000  0.4183040000000 1.0
C      1  0.4824420000000  0.5535920000000  0.5806660000000 1.0
C      1  0.5104630000000  0.4412570000000  0.5745880000000 1.0
C      1  0.5582220000000  0.5776090000000  0.4877880000000 1.0
C      1  0.4423780000000  0.5801080000000  0.5186630000000 1.0
C      1  0.5547250000000  0.4215740000000  0.5152490000000 1.0
C      1  0.5838490000000  0.5196950000000  0.4403520000000 1.0
C      1  0.4171300000000  0.5204580000000  0.5566330000000 1.0
C      1  0.5743970000000  0.4886520000000  0.5525010000000 1.0
C      1  0.4805930000000  0.4426840000000  0.5819260000000 1.0
C      1  0.4394000000000  0.4202660000000  0.5158960000000 1.0
C      1  0.4178910000000  0.4890160000000  0.5617640000000 1.0
C      1  0.5128970000000  0.5538540000000  0.5754520000000 1.0
C      1  0.4912930000000  0.5555990000000  0.4229210000000 1.0
C      1  0.5185770000000  0.4440610000000  0.4197840000000 1.0
C      1  0.5590470000000  0.5825220000000  0.5187730000000 1.0
C      1  0.4440010000000  0.5770200000000  0.4876610000000 1.0
C      1  0.5592460000000  0.4218750000000  0.4843550000000 1.0
C      1  0.5824700000000  0.5188550000000  0.5585540000000 1.0
C      1  0.4244160000000  0.5093760000000  0.4419350000000 1.0
C      1  0.5793210000000  0.4885910000000  0.4390010000000 1.0
C      1  0.4787220000000  0.3932900000000  0.5184490000000 1.0
C      1  0.3975640000000  0.5126850000000  0.4802690000000 1.0
C      1  0.5107570000000  0.4814290000000  0.3934240000000 1.0
C      1  0.5205720000000  0.6081170000000  0.5148670000000 1.0
C      1  0.4816980000000  0.6048420000000  0.4893190000000 1.0
C      1  0.5209610000000  0.3939470000000  0.4819330000000 1.0
C      1  0.6084420000000  0.4863020000000  0.4761230000000 1.0
C      1  0.3893850000000  0.4871450000000  0.5239540000000 1.0
C      1  0.6057980000000  0.5173550000000  0.5178210000000 1.0
C      1  0.4930720000000  0.5181810000000  0.3937540000000 1.0
C      1  0.5135580000000  0.5215940000000  0.6072310000000 1.0
C      1  0.4871110000000  0.4842330000000  0.6031100000000 1.0
C      1  0.4822320000000  0.3923900000000  0.4908910000000 1.0
C      1  0.3903990000000  0.5147030000000  0.5192810000000 1.0
C      1  0.5147340000000  0.4757330000000  0.6044670000000 1.0
C      1  0.5213020000000  0.6065120000000  0.4869720000000 1.0
C      1  0.4811120000000  0.6058250000000  0.5171850000000 1.0
C      1  0.5175800000000  0.3936150000000  0.5095440000000 1.0
C      1  0.6021030000000  0.4898520000000  0.5151570000000 1.0
C      1  0.3972640000000  0.4852740000000  0.4851110000000 1.0
C      1  0.6099300000000  0.5140840000000  0.4784770000000 1.0
C      1  0.4862870000000  0.5124000000000  0.6028080000000 1.0
C      1  0.5208860000000  0.5197640000000  0.3925400000000 1.0
C      1  0.4833090000000  0.4796950000000  0.3974130000000 1.0
C      1  0.4815090000000  0.4669940000000  0.5503950000000 1.0
C      1  0.4696020000000  0.5467310000000  0.4867380000000 1.0
C      1  0.5483150000000  0.4841000000000  0.4632600000000 1.0
C      1  0.5227230000000  0.5310720000000  0.5442820000000 1.0
C      1  0.4832440000000  0.5310470000000  0.4530860000000 1.0
C      1  0.5149990000000  0.4685150000000  0.4511100000000 1.0
C      1  0.5341810000000  0.4521910000000  0.4831730000000 1.0
C      1  0.4626440000000  0.4518780000000  0.5185130000000 1.0
C      1  0.5322910000000  0.5542370000000  0.5121420000000 1.0
C      1  0.4559830000000  0.5164340000000  0.4647620000000 1.0
C      1  0.5514750000000  0.5180620000000  0.5344600000000 1.0
C      1  0.4478860000000  0.4833850000000  0.5368160000000 1.0
C      1  0.4826950000000  0.4640680000000  0.4581960000000 1.0
C      1  0.4655320000000  0.5479830000000  0.5200800000000 1.0
C      1  0.5433730000000  0.4870600000000  0.5274790000000 1.0
C      1  0.5159010000000  0.5346140000000  0.4486590000000 1.0
C      1  0.4784060000000  0.5322670000000  0.5473380000000 1.0
C      1  0.5144760000000  0.4651680000000  0.5431180000000 1.0
C      1  0.5286130000000  0.4516470000000  0.5166590000000 1.0
C      1  0.4692640000000  0.4504180000000  0.4853090000000 1.0
C      1  0.5353130000000  0.5461470000000  0.4795080000000 1.0
C      1  0.4473010000000  0.5148790000000  0.5312770000000 1.0
C      1  0.5545040000000  0.5143380000000  0.4665650000000 1.0
C      1  0.4521580000000  0.4840860000000  0.4727300000000 1.0
C      1  0.4320030000000  0.5479930000000  0.5139450000000 1.0
C      1  0.5518310000000  0.5167860000000  0.4323640000000 1.0
C      1  0.5139270000000  0.4289840000000  0.5458000000000 1.0
C      1  0.5626940000000  0.4539440000000  0.5130870000000 1.0
C      1  0.4352140000000  0.4499900000000  0.4894630000000 1.0
C      1  0.5697520000000  0.5474610000000  0.4817030000000 1.0
C      1  0.4531440000000  0.4819690000000  0.4382850000000 1.0
C      1  0.5446520000000  0.4824230000000  0.5618990000000 1.0
C      1  0.4478940000000  0.5150310000000  0.5660880000000 1.0
C      1  0.4847620000000  0.5659450000000  0.5498840000000 1.0
C      1  0.5183670000000  0.5686430000000  0.4506200000000 1.0
C      1  0.4845610000000  0.4293020000000  0.4552580000000 1.0
C      1  0.4356640000000  0.5471060000000  0.4797060000000 1.0
C      1  0.5499950000000  0.5156920000000  0.5688600000000 1.0
C      1  0.5182630000000  0.4343510000000  0.4512140000000 1.0
C      1  0.5682930000000  0.4537030000000  0.4791890000000 1.0
C      1  0.4285810000000  0.4517680000000  0.5229270000000 1.0
C      1  0.5662360000000  0.5503070000000  0.5157930000000 1.0
C      1  0.4497840000000  0.4812170000000  0.5707410000000 1.0
C      1  0.5478440000000  0.4828360000000  0.4290340000000 1.0
C      1  0.4552700000000  0.5152050000000  0.4299600000000 1.0
C      1  0.4839680000000  0.5654330000000  0.4534480000000 1.0
C      1  0.5189270000000  0.5650920000000  0.5462140000000 1.0
C      1  0.4800500000000  0.4328080000000  0.5500640000000 1.0
C      1  0.4094810000000  0.4727500000000  0.5384850000000 1.0
C      1  0.4773990000000  0.5315750000000  0.4136690000000 1.0
C      1  0.5354320000000  0.4148720000000  0.4689180000000 1.0
C      1  0.5879310000000  0.5336110000000  0.5333450000000 1.0
C      1  0.4172660000000  0.5260760000000  0.4646010000000 1.0
C      1  0.5867680000000  0.4732800000000  0.4627350000000 1.0
C      1  0.5290140000000  0.4685130000000  0.4109780000000 1.0
C      1  0.4694610000000  0.4677490000000  0.5885230000000 1.0
C      1  0.5283230000000  0.5321580000000  0.5852200000000 1.0
C      1  0.4683650000000  0.5846960000000  0.4742400000000 1.0
C      1  0.5340800000000  0.5890050000000  0.5312330000000 1.0
C      1  0.4634930000000  0.4137580000000  0.5314840000000 1.0
C      1  0.4157230000000  0.4677340000000  0.4724110000000 1.0
C      1  0.4696300000000  0.5288530000000  0.5861770000000 1.0
C      1  0.5300940000000  0.4128920000000  0.5264300000000 1.0
C      1  0.5907200000000  0.5310350000000  0.4657840000000 1.0
C      1  0.4108670000000  0.5311010000000  0.5307790000000 1.0
C      1  0.5815260000000  0.4752510000000  0.5283570000000 1.0
C      1  0.5265230000000  0.4641620000000  0.5811570000000 1.0
C      1  0.4723960000000  0.4652940000000  0.4196010000000 1.0
C      1  0.5355490000000  0.5339450000000  0.4125310000000 1.0
C      1  0.4672440000000  0.5859510000000  0.5323000000000 1.0
C      1  0.5346680000000  0.5855290000000  0.4728320000000 1.0
C      1  0.4693280000000  0.4113070000000  0.4739660000000 1.0
C      1  0.5539200000000  0.5161910000000  0.5005980000000 1.0
C      1  0.5112760000000  0.4988150000000  0.5489340000000 1.0
C      1  0.4980850000000  0.5545350000000  0.5142550000000 1.0
C      1  0.4441510000000  0.4845150000000  0.5061200000000 1.0
C      1  0.5501160000000  0.4860690000000  0.4938570000000 1.0
C      1  0.4469860000000  0.5144950000000  0.4977480000000 1.0
C      1  0.4828890000000  0.5002290000000  0.5588410000000 1.0
C      1  0.5168190000000  0.5022620000000  0.4440920000000 1.0
C      1  0.4872510000000  0.4970030000000  0.4506870000000 1.0
C      1  0.4946140000000  0.4450860000000  0.5154020000000 1.0
C      1  0.5035630000000  0.4459340000000  0.4861850000000 1.0
C      1  0.5035380000000  0.5546660000000  0.4846730000000 1.0
C      1  0.4849070000000  0.4827790000000  0.5229570000000 1.0
C      1  0.4857090000000  0.5197930000000  0.4908200000000 1.0
C      1  0.5182210000000  0.5175270000000  0.4826880000000 1.0
C      1  0.5141030000000  0.4879850000000  0.5105430000000 1.0
C      1  0.5117790000000  0.4843140000000  0.4791790000000 1.0
C      1  0.4860780000000  0.5140800000000  0.5217860000000 1.0
C      1  0.5169020000000  0.5193620000000  0.5152620000000 1.0
C      1  0.4800930000000  0.4884170000000  0.4896950000000 1.0
END
