TITL C-2782232-2968-1019 -8.3159723253594e-05 125000 -77.6321521809784 0 0 15 (Cs) n - 1
REM
REM in /home/nfs/bkarasulu/CARBON/AIRSS/Generating-Clusters/REBO/Higher-Symm/SD-CG/HFTN-CG
REM
REM
REM
REM
REM
REM ./C.cell (12c818d87b63d06a65506943cc24bca4)
REM
REM compiler GCC version 9.2.1 20190827 (Red Hat 9.2.1-1)
REM options -cpp -mtune=generic -march=x86-64 -g -O0 -fpre-include=/usr/include/finclude/math-vector-fortran.h
REM seed 2124325690 625680660 1002518139 1186860964 1138885163 -25647251 1044952557 -797927669 1324805570 1485711929 -184677120 236347420 -277587808 -219796313 1011295240 -938781927 -241496459 395072672 1903354049 -976786174 464814751 -1687374319 -1387356875 -177240774 1617902139 41065485 -1443024474 -1995590044 322529888 633367952 -271109866 40048708 -831382222
REM
CELL 1.54180   50.00000   50.00000   50.00000   90.00000   90.00000   90.00000
LATT -1
SFAC C  
C      1  0.5291790000000  0.4946760000000  0.4683000000000 1.0
C      1  0.4597890000000  0.4926340000000  0.4991440000000 1.0
C      1  0.5167340000000  0.4967270000000  0.5268820000000 1.0
C      1  0.4708310000000  0.4946790000000  0.4682910000000 1.0
C      1  0.5402110000000  0.4926300000000  0.4991570000000 1.0
C      1  0.4832580000000  0.4967290000000  0.5268770000000 1.0
C      1  0.5137640000000  0.4859240000000  0.4481820000000 1.0
C      1  0.4392210000000  0.4784280000000  0.5189020000000 1.0
C      1  0.5413080000000  0.4826890000000  0.5378300000000 1.0
C      1  0.4862510000000  0.4859250000000  0.4481780000000 1.0
C      1  0.5607720000000  0.4784230000000  0.5189210000000 1.0
C      1  0.4586790000000  0.4826930000000  0.5378170000000 1.0
C      1  0.4999980000000  0.5250820000000  0.5187480000000 1.0
C      1  0.5167430000000  0.5151540000000  0.4913870000000 1.0
C      1  0.4832610000000  0.5151560000000  0.4913820000000 1.0
END
