TITL C-2782239-8622-1472 0.00247560697227681 125000 -164.540945791912 0 0 31 (C1) n - 1
REM
REM in /home/nfs/bkarasulu/CARBON/AIRSS/Generating-Clusters/REBO/Higher-Symm/SD-CG/HFTN-CG
REM
REM
REM
REM
REM
REM ./C.cell (12c818d87b63d06a65506943cc24bca4)
REM
REM compiler GCC version 9.2.1 20190827 (Red Hat 9.2.1-1)
REM options -cpp -mtune=generic -march=x86-64 -g -O0 -fpre-include=/usr/include/finclude/math-vector-fortran.h
REM seed -2119387110 -120318298 1952689309 -745497215 -921260181 -1603695265 1267732001 1118524733 1345078942 -1036550362 -2037539042 -30925870 -2042826195 -2110207359 1650936385 -1266887050 1321584617 1255935178 360506713 1536395183 685494084 -1890082236 -800491174 -1389883645 -1112519007 -2079859142 1179271833 1846342341 1260573415 -1451983227 618515740 -1144870486 -1900871340
REM
CELL 1.54180   50.00000   50.00000   50.00000   90.00000   90.00000   90.00000
LATT -1
SFAC C  
C      1  0.5343110000000  0.4663360000000  0.5183760000000 1.0
C      1  0.4987050000000  0.4702060000000  0.5357480000000 1.0
C      1  0.4746160000000  0.4677270000000  0.5155720000000 1.0
C      1  0.4814360000000  0.4680970000000  0.4594490000000 1.0
C      1  0.5066940000000  0.4697820000000  0.4731580000000 1.0
C      1  0.5264370000000  0.4992840000000  0.5606790000000 1.0
C      1  0.4524840000000  0.4964470000000  0.5447240000000 1.0
C      1  0.4449100000000  0.5001460000000  0.4663060000000 1.0
C      1  0.5127020000000  0.4995030000000  0.4377380000000 1.0
C      1  0.5623170000000  0.4948820000000  0.4949010000000 1.0
C      1  0.5230720000000  0.5369070000000  0.5480440000000 1.0
C      1  0.4598620000000  0.5343980000000  0.5350030000000 1.0
C      1  0.4499010000000  0.5309230000000  0.4744290000000 1.0
C      1  0.5111960000000  0.5382770000000  0.4467320000000 1.0
C      1  0.5542550000000  0.5339370000000  0.4928030000000 1.0
C      1  0.4532890000000  0.4855860000000  0.5192250000000 1.0
C      1  0.4668720000000  0.4912160000000  0.4508360000000 1.0
C      1  0.5244010000000  0.4876090000000  0.4598750000000 1.0
C      1  0.5518380000000  0.4874910000000  0.5190630000000 1.0
C      1  0.5012620000000  0.4903430000000  0.5549600000000 1.0
C      1  0.5177850000000  0.5323930000000  0.4773400000000 1.0
C      1  0.5269280000000  0.5279810000000  0.5097970000000 1.0
C      1  0.4984940000000  0.5290490000000  0.5284780000000 1.0
C      1  0.4730360000000  0.5311990000000  0.5060250000000 1.0
C      1  0.4838800000000  0.5333170000000  0.4748230000000 1.0
C      1  0.4854590000000  0.5158390000000  0.4452210000000 1.0
C      1  0.5410870000000  0.5076790000000  0.4750620000000 1.0
C      1  0.5423120000000  0.5114690000000  0.5355490000000 1.0
C      1  0.4797430000000  0.5126110000000  0.5521050000000 1.0
C      1  0.4506050000000  0.5066560000000  0.4987180000000 1.0
C      1  0.5058570000000  0.4639490000000  0.5026510000000 1.0
END
