TITL C-2782225-7408-101 -0.00263064161100645 125000 -701.669338469135 0 0 118 (C1) n - 1
REM
REM in /home/nfs/bkarasulu/CARBON/AIRSS/Generating-Clusters/REBO/Higher-Symm/SD-CG/HFTN-CG
REM
REM
REM
REM
REM
REM ./C.cell (12c818d87b63d06a65506943cc24bca4)
REM
REM compiler GCC version 9.2.1 20190827 (Red Hat 9.2.1-1)
REM options -cpp -mtune=generic -march=x86-64 -g -O0 -fpre-include=/usr/include/finclude/math-vector-fortran.h
REM seed 557914295 1805764411 1969760944 1998306703 -1243620842 -1992758425 56436734 -788462762 -1114993456 294607266 -1746773618 -724146201 -1042604002 1610251471 -637086893 -110735201 1514506708 1117271614 216455400 1417052854 -2043510855 -1220014827 -999877252 425320501 81760409 -479382390 -805523084 -1416348434 -1801269127 -1371428911 -1507173239 -955510935 -181951181
REM
CELL 1.54180   50.00000   50.00000   50.00000   90.00000   90.00000   90.00000
LATT -1
SFAC C  
C      1  0.5450160000000  0.4973240000000  0.4538380000000 1.0
C      1  0.5151590000000  0.5023130000000  0.5699870000000 1.0
C      1  0.4286850000000  0.4974270000000  0.4802020000000 1.0
C      1  0.4517350000000  0.5011240000000  0.4579910000000 1.0
C      1  0.4834550000000  0.5039710000000  0.5633570000000 1.0
C      1  0.5672220000000  0.4995730000000  0.4848670000000 1.0
C      1  0.5341270000000  0.5642450000000  0.5694870000000 1.0
C      1  0.4200340000000  0.5578420000000  0.5008600000000 1.0
C      1  0.5398620000000  0.5537080000000  0.4309920000000 1.0
C      1  0.4617670000000  0.4451330000000  0.5666370000000 1.0
C      1  0.5805020000000  0.4450680000000  0.5010100000000 1.0
C      1  0.4571910000000  0.4426680000000  0.4291610000000 1.0
C      1  0.5518750000000  0.4717580000000  0.4407920000000 1.0
C      1  0.5214250000000  0.4723950000000  0.5751230000000 1.0
C      1  0.4180320000000  0.4678540000000  0.4846520000000 1.0
C      1  0.4464810000000  0.5316160000000  0.4474270000000 1.0
C      1  0.4754900000000  0.5332110000000  0.5632550000000 1.0
C      1  0.5789790000000  0.5288580000000  0.4871080000000 1.0
C      1  0.4828880000000  0.4998250000000  0.6049510000000 1.0
C      1  0.4079110000000  0.5021250000000  0.4428050000000 1.0
C      1  0.6002400000000  0.5005580000000  0.4623700000000 1.0
C      1  0.5099210000000  0.5002570000000  0.6095390000000 1.0
C      1  0.5853410000000  0.5025730000000  0.4395820000000 1.0
C      1  0.3920730000000  0.5028160000000  0.4652680000000 1.0
C      1  0.4722070000000  0.5365510000000  0.5120620000000 1.0
C      1  0.5003710000000  0.5325460000000  0.4636800000000 1.0
C      1  0.5458760000000  0.5293560000000  0.5247700000000 1.0
C      1  0.5360220000000  0.4674690000000  0.5110990000000 1.0
C      1  0.5000770000000  0.4695290000000  0.4597540000000 1.0
C      1  0.4530890000000  0.4620790000000  0.5194460000000 1.0
C      1  0.5078700000000  0.4487290000000  0.4353860000000 1.0
C      1  0.5463460000000  0.4479510000000  0.5378120000000 1.0
C      1  0.4351780000000  0.4350270000000  0.5216400000000 1.0
C      1  0.4912980000000  0.5513660000000  0.4378560000000 1.0
C      1  0.4578430000000  0.5552540000000  0.5349590000000 1.0
C      1  0.5595610000000  0.5607350000000  0.5227510000000 1.0
C      1  0.4868210000000  0.4293570000000  0.5575010000000 1.0
C      1  0.4530550000000  0.4309440000000  0.4578480000000 1.0
C      1  0.5610750000000  0.4348970000000  0.4798640000000 1.0
C      1  0.5109970000000  0.5792190000000  0.5565160000000 1.0
C      1  0.5466770000000  0.5670190000000  0.4587110000000 1.0
C      1  0.4403210000000  0.5730550000000  0.4818240000000 1.0
C      1  0.5533570000000  0.4957140000000  0.5796220000000 1.0
C      1  0.4091440000000  0.4925830000000  0.5146940000000 1.0
C      1  0.5391440000000  0.4956760000000  0.4115710000000 1.0
C      1  0.4438030000000  0.5050170000000  0.5686290000000 1.0
C      1  0.5946280000000  0.5053440000000  0.5151070000000 1.0
C      1  0.4566580000000  0.5069700000000  0.4179750000000 1.0
C      1  0.4660350000000  0.5376350000000  0.4260640000000 1.0
C      1  0.5834590000000  0.5374690000000  0.5152770000000 1.0
C      1  0.4460230000000  0.5340010000000  0.5589140000000 1.0
C      1  0.5311790000000  0.4643310000000  0.4204700000000 1.0
C      1  0.4139880000000  0.4605080000000  0.5132580000000 1.0
C      1  0.5484800000000  0.4647920000000  0.5661670000000 1.0
C      1  0.4795280000000  0.5089160000000  0.4733690000000 1.0
C      1  0.5394140000000  0.5101280000000  0.4978510000000 1.0
C      1  0.4912490000000  0.5103900000000  0.5200570000000 1.0
C      1  0.5158070000000  0.4958770000000  0.4628700000000 1.0
C      1  0.4540660000000  0.4848570000000  0.4944250000000 1.0
C      1  0.5283790000000  0.4837300000000  0.5374000000000 1.0
C      1  0.5230400000000  0.5339340000000  0.5732220000000 1.0
C      1  0.4206590000000  0.5268360000000  0.4869300000000 1.0
C      1  0.5500880000000  0.5285190000000  0.4492090000000 1.0
C      1  0.4750230000000  0.4733530000000  0.5697590000000 1.0
C      1  0.5814700000000  0.4692170000000  0.4792080000000 1.0
C      1  0.4516920000000  0.4698120000000  0.4491480000000 1.0
C      1  0.5566160000000  0.5205860000000  0.5563900000000 1.0
C      1  0.4300550000000  0.5121050000000  0.5228810000000 1.0
C      1  0.5173010000000  0.5148310000000  0.4166590000000 1.0
C      1  0.4440900000000  0.4818060000000  0.5461180000000 1.0
C      1  0.5786210000000  0.4843960000000  0.5281380000000 1.0
C      1  0.4776600000000  0.4879680000000  0.4241330000000 1.0
C      1  0.4289300000000  0.5019230000000  0.4251750000000 1.0
C      1  0.6069100000000  0.4996270000000  0.4891190000000 1.0
C      1  0.4577340000000  0.5002910000000  0.5936560000000 1.0
C      1  0.5659470000000  0.5030040000000  0.4202330000000 1.0
C      1  0.3909940000000  0.5007500000000  0.4929440000000 1.0
C      1  0.5369450000000  0.5001040000000  0.6033050000000 1.0
C      1  0.4804040000000  0.5748360000000  0.5181410000000 1.0
C      1  0.4960190000000  0.5720890000000  0.4650030000000 1.0
C      1  0.5339850000000  0.5787470000000  0.5088020000000 1.0
C      1  0.5224120000000  0.4313480000000  0.5196220000000 1.0
C      1  0.5048750000000  0.4303140000000  0.4644550000000 1.0
C      1  0.4654250000000  0.4258350000000  0.5084700000000 1.0
C      1  0.5115200000000  0.5230340000000  0.5427810000000 1.0
C      1  0.4546620000000  0.5264670000000  0.4886960000000 1.0
C      1  0.5276610000000  0.5322260000000  0.4745960000000 1.0
C      1  0.4966620000000  0.4790000000000  0.5436730000000 1.0
C      1  0.5474300000000  0.4723240000000  0.4849270000000 1.0
C      1  0.4745260000000  0.4692420000000  0.4733420000000 1.0
C      1  0.4308650000000  0.5409010000000  0.5228890000000 1.0
C      1  0.5158880000000  0.5437120000000  0.4200320000000 1.0
C      1  0.5569490000000  0.5528450000000  0.5546350000000 1.0
C      1  0.5749790000000  0.4557540000000  0.5257830000000 1.0
C      1  0.4806560000000  0.4596700000000  0.4235880000000 1.0
C      1  0.4361760000000  0.4491590000000  0.5525580000000 1.0
C      1  0.4725150000000  0.5481760000000  0.4731460000000 1.0
C      1  0.5274860000000  0.5475210000000  0.5032120000000 1.0
C      1  0.5020750000000  0.5483450000000  0.5220590000000 1.0
C      1  0.5284740000000  0.4551420000000  0.4689690000000 1.0
C      1  0.4795570000000  0.4553750000000  0.5019960000000 1.0
C      1  0.5035210000000  0.4598320000000  0.5181090000000 1.0
C      1  0.4311650000000  0.4510260000000  0.4670330000000 1.0
C      1  0.5660460000000  0.4528380000000  0.4554490000000 1.0
C      1  0.5002260000000  0.4532170000000  0.5738240000000 1.0
C      1  0.5677340000000  0.5463810000000  0.4692480000000 1.0
C      1  0.4321460000000  0.5485480000000  0.4644030000000 1.0
C      1  0.4964140000000  0.5520630000000  0.5655600000000 1.0
C      1  0.5294140000000  0.4272130000000  0.4881580000000 1.0
C      1  0.4916830000000  0.4235730000000  0.5299690000000 1.0
C      1  0.4748860000000  0.4256170000000  0.4757760000000 1.0
C      1  0.4718890000000  0.5776080000000  0.4885620000000 1.0
C      1  0.5090930000000  0.5868380000000  0.5288020000000 1.0
C      1  0.5256750000000  0.5764780000000  0.4758390000000 1.0
C      1  0.4998950000000  0.5015090000000  0.4357380000000 1.0
C      1  0.5551130000000  0.4941510000000  0.5401220000000 1.0
C      1  0.4610680000000  0.5002090000000  0.5230670000000 1.0
C      1  0.5066360000000  0.5040070000000  0.4934640000000 1.0
END
