TITL C-2782232-2968-454 0.141589414599461 125000 -848.498131314053 0 0 147 (C1) n - 1
REM
REM in /home/nfs/bkarasulu/CARBON/AIRSS/Generating-Clusters/REBO/Higher-Symm/SD-CG/HFTN-CG
REM
REM
REM
REM
REM
REM ./C.cell (12c818d87b63d06a65506943cc24bca4)
REM
REM compiler GCC version 9.2.1 20190827 (Red Hat 9.2.1-1)
REM options -cpp -mtune=generic -march=x86-64 -g -O0 -fpre-include=/usr/include/finclude/math-vector-fortran.h
REM seed 826159509 309576349 -325505830 519539959 1664466623 -1751337803 -503475203 1780379869 693634099 258778719 908735343 1036719773 1794704434 -194092530 -1571597599 -1088784812 -1589150720 -1312234732 2058677535 -1512771734 -710945186 -804927770 157802017 470747404 -1387352397 -56385736 218283168 1273687975 1570753383 -478223781 -511613380 -1513427078 -364167909
REM
CELL 1.54180   50.00000   50.00000   50.00000   90.00000   90.00000   90.00000
LATT -1
SFAC C  
C      1  0.4975020000000  0.5390730000000  0.5817320000000 1.0
C      1  0.5690240000000  0.5321650000000  0.5533870000000 1.0
C      1  0.5732610000000  0.5421380000000  0.4787550000000 1.0
C      1  0.5236600000000  0.5313840000000  0.4371900000000 1.0
C      1  0.4709370000000  0.5315660000000  0.4433240000000 1.0
C      1  0.4283310000000  0.5349010000000  0.4867900000000 1.0
C      1  0.4350450000000  0.5317700000000  0.5557850000000 1.0
C      1  0.4312800000000  0.5041270000000  0.5383940000000 1.0
C      1  0.4802390000000  0.5122210000000  0.5727690000000 1.0
C      1  0.5414200000000  0.5156240000000  0.5645570000000 1.0
C      1  0.5783330000000  0.5223270000000  0.5053080000000 1.0
C      1  0.5595840000000  0.5133460000000  0.4327450000000 1.0
C      1  0.4797080000000  0.5131540000000  0.4163810000000 1.0
C      1  0.4261180000000  0.5140890000000  0.4599780000000 1.0
C      1  0.4794100000000  0.5516540000000  0.6052280000000 1.0
C      1  0.5660230000000  0.5462150000000  0.5809850000000 1.0
C      1  0.5919260000000  0.5618880000000  0.4947860000000 1.0
C      1  0.5461980000000  0.5491390000000  0.4210180000000 1.0
C      1  0.4854200000000  0.5457270000000  0.3697560000000 1.0
C      1  0.4163600000000  0.5521030000000  0.4617440000000 1.0
C      1  0.4118120000000  0.5522520000000  0.5505630000000 1.0
C      1  0.4976390000000  0.4671100000000  0.4357070000000 1.0
C      1  0.4515220000000  0.4595010000000  0.4653200000000 1.0
C      1  0.4432880000000  0.4597900000000  0.5106140000000 1.0
C      1  0.4757040000000  0.4650810000000  0.5564640000000 1.0
C      1  0.5270040000000  0.4671710000000  0.5552010000000 1.0
C      1  0.5623820000000  0.4703410000000  0.5127440000000 1.0
C      1  0.5470260000000  0.4684050000000  0.4550870000000 1.0
C      1  0.5354050000000  0.4122580000000  0.5128040000000 1.0
C      1  0.5351590000000  0.4129280000000  0.4824800000000 1.0
C      1  0.5123050000000  0.4127030000000  0.4627520000000 1.0
C      1  0.4837970000000  0.4111160000000  0.4719000000000 1.0
C      1  0.4714910000000  0.4097740000000  0.4996150000000 1.0
C      1  0.4829570000000  0.4103750000000  0.5277420000000 1.0
C      1  0.5123870000000  0.4122770000000  0.5321470000000 1.0
C      1  0.5179810000000  0.5449750000000  0.4065320000000 1.0
C      1  0.4473620000000  0.5492750000000  0.4376880000000 1.0
C      1  0.4181390000000  0.5455950000000  0.5121860000000 1.0
C      1  0.4559350000000  0.5338030000000  0.5785420000000 1.0
C      1  0.5272970000000  0.5369560000000  0.5841460000000 1.0
C      1  0.5846350000000  0.5414070000000  0.5282680000000 1.0
C      1  0.5723200000000  0.5402840000000  0.4498510000000 1.0
C      1  0.5364200000000  0.4821910000000  0.6034470000000 1.0
C      1  0.6020320000000  0.4901880000000  0.5357720000000 1.0
C      1  0.5880800000000  0.4853250000000  0.4323520000000 1.0
C      1  0.5025190000000  0.4792260000000  0.3882420000000 1.0
C      1  0.4131540000000  0.4832850000000  0.4380350000000 1.0
C      1  0.3942630000000  0.5029350000000  0.5233660000000 1.0
C      1  0.4528520000000  0.4823650000000  0.5978470000000 1.0
C      1  0.4888360000000  0.4838160000000  0.4114400000000 1.0
C      1  0.4222590000000  0.4729250000000  0.4614030000000 1.0
C      1  0.4200260000000  0.4824280000000  0.5146350000000 1.0
C      1  0.4741000000000  0.4843620000000  0.5805900000000 1.0
C      1  0.5451070000000  0.4855710000000  0.5737630000000 1.0
C      1  0.5845040000000  0.4922860000000  0.5149590000000 1.0
C      1  0.5562910000000  0.4811370000000  0.4275630000000 1.0
C      1  0.5364840000000  0.4376580000000  0.4168630000000 1.0
C      1  0.4554280000000  0.4529780000000  0.4262470000000 1.0
C      1  0.4047080000000  0.4377150000000  0.4844090000000 1.0
C      1  0.4257240000000  0.4529400000000  0.5561640000000 1.0
C      1  0.5003800000000  0.4345200000000  0.5864400000000 1.0
C      1  0.5697800000000  0.4437720000000  0.5562950000000 1.0
C      1  0.5779970000000  0.4580050000000  0.4780690000000 1.0
C      1  0.4854030000000  0.5446710000000  0.5503810000000 1.0
C      1  0.5455940000000  0.5327740000000  0.5287730000000 1.0
C      1  0.5434280000000  0.5392810000000  0.4952600000000 1.0
C      1  0.5215000000000  0.5294330000000  0.4708450000000 1.0
C      1  0.4883510000000  0.5370520000000  0.4721480000000 1.0
C      1  0.4592350000000  0.5214020000000  0.4802810000000 1.0
C      1  0.4573150000000  0.5359060000000  0.5330770000000 1.0
C      1  0.4991970000000  0.4866580000000  0.4614640000000 1.0
C      1  0.4730210000000  0.4828720000000  0.4773510000000 1.0
C      1  0.4653630000000  0.4839000000000  0.5071960000000 1.0
C      1  0.4842480000000  0.4832970000000  0.5308200000000 1.0
C      1  0.5159000000000  0.4845930000000  0.5307290000000 1.0
C      1  0.5312070000000  0.4825340000000  0.5058490000000 1.0
C      1  0.5260780000000  0.4853950000000  0.4746090000000 1.0
C      1  0.4206950000000  0.5725300000000  0.5273320000000 1.0
C      1  0.4678450000000  0.5657780000000  0.5793880000000 1.0
C      1  0.5426400000000  0.5669870000000  0.5798170000000 1.0
C      1  0.5775010000000  0.5735220000000  0.5202350000000 1.0
C      1  0.5679130000000  0.5696770000000  0.4343630000000 1.0
C      1  0.5118730000000  0.5603220000000  0.3782100000000 1.0
C      1  0.4370540000000  0.5742920000000  0.4558960000000 1.0
C      1  0.5291970000000  0.4736670000000  0.3851720000000 1.0
C      1  0.4272440000000  0.4918520000000  0.4137850000000 1.0
C      1  0.3828460000000  0.4875420000000  0.5012840000000 1.0
C      1  0.4276220000000  0.4880670000000  0.5879650000000 1.0
C      1  0.5200750000000  0.4666200000000  0.6182160000000 1.0
C      1  0.5957630000000  0.4843480000000  0.5617870000000 1.0
C      1  0.5948380000000  0.4894330000000  0.4565220000000 1.0
C      1  0.4352790000000  0.4386750000000  0.4453800000000 1.0
C      1  0.4178940000000  0.4410240000000  0.5109200000000 1.0
C      1  0.4519600000000  0.4433460000000  0.5614290000000 1.0
C      1  0.5232910000000  0.4383940000000  0.5696320000000 1.0
C      1  0.5751520000000  0.4431200000000  0.5281340000000 1.0
C      1  0.5663040000000  0.4420950000000  0.4554320000000 1.0
C      1  0.5082070000000  0.4377030000000  0.4221250000000 1.0
C      1  0.4907390000000  0.5130170000000  0.5425400000000 1.0
C      1  0.5222290000000  0.5145620000000  0.5392790000000 1.0
C      1  0.5504740000000  0.5058700000000  0.4996230000000 1.0
C      1  0.5461010000000  0.5079510000000  0.4604720000000 1.0
C      1  0.4987940000000  0.5119970000000  0.4430720000000 1.0
C      1  0.4531380000000  0.4980800000000  0.4558770000000 1.0
C      1  0.4518950000000  0.5122770000000  0.5121560000000 1.0
C      1  0.5452510000000  0.4631790000000  0.4058550000000 1.0
C      1  0.4520010000000  0.4823330000000  0.4285960000000 1.0
C      1  0.4052040000000  0.4699420000000  0.4865250000000 1.0
C      1  0.4226520000000  0.4813760000000  0.5606640000000 1.0
C      1  0.5035460000000  0.4455380000000  0.6125370000000 1.0
C      1  0.5722710000000  0.4702200000000  0.5682600000000 1.0
C      1  0.5706590000000  0.4912460000000  0.4776300000000 1.0
C      1  0.5515450000000  0.5399940000000  0.6079260000000 1.0
C      1  0.6133090000000  0.5563410000000  0.5173630000000 1.0
C      1  0.5773350000000  0.5364650000000  0.4159540000000 1.0
C      1  0.4903820000000  0.5319310000000  0.3955710000000 1.0
C      1  0.4188640000000  0.5325960000000  0.4355180000000 1.0
C      1  0.4005050000000  0.5285300000000  0.5308500000000 1.0
C      1  0.4559970000000  0.5339370000000  0.6128700000000 1.0
C      1  0.5312120000000  0.4458620000000  0.4739510000000 1.0
C      1  0.5012820000000  0.4451780000000  0.4606560000000 1.0
C      1  0.4745090000000  0.4429830000000  0.4778870000000 1.0
C      1  0.4690630000000  0.4426250000000  0.5091030000000 1.0
C      1  0.4879870000000  0.4437260000000  0.5348200000000 1.0
C      1  0.5208700000000  0.4449600000000  0.5304470000000 1.0
C      1  0.5423110000000  0.4445460000000  0.5054870000000 1.0
C      1  0.4744420000000  0.4301560000000  0.5758810000000 1.0
C      1  0.5493980000000  0.4267960000000  0.5674000000000 1.0
C      1  0.5884180000000  0.4429750000000  0.5003270000000 1.0
C      1  0.5558600000000  0.4254620000000  0.4347050000000 1.0
C      1  0.4779830000000  0.4378550000000  0.4171240000000 1.0
C      1  0.4131330000000  0.4277580000000  0.4591540000000 1.0
C      1  0.4096480000000  0.4385860000000  0.5376760000000 1.0
C      1  0.5762060000000  0.5940840000000  0.4339620000000 1.0
C      1  0.5261530000000  0.5801480000000  0.3659410000000 1.0
C      1  0.4470500000000  0.5876610000000  0.4786170000000 1.0
C      1  0.4279430000000  0.5978820000000  0.5239050000000 1.0
C      1  0.4678030000000  0.5887480000000  0.5652220000000 1.0
C      1  0.5398750000000  0.5831640000000  0.5579700000000 1.0
C      1  0.5559210000000  0.5853990000000  0.5310180000000 1.0
C      1  0.4683470000000  0.5654140000000  0.5210580000000 1.0
C      1  0.4950350000000  0.5705970000000  0.5353480000000 1.0
C      1  0.5228480000000  0.5777310000000  0.5298520000000 1.0
C      1  0.5316190000000  0.5693160000000  0.5003840000000 1.0
C      1  0.5146140000000  0.5781810000000  0.4809090000000 1.0
C      1  0.4891300000000  0.5666270000000  0.4788620000000 1.0
C      1  0.4671480000000  0.5758170000000  0.4945240000000 1.0
END
