TITL C-2782235-7892-44 -0.00103280777439661 125000 -419.469266889755 0 0 71 (C1) n - 1
REM
REM in /home/nfs/bkarasulu/CARBON/AIRSS/Generating-Clusters/REBO/Higher-Symm/SD-CG/HFTN-CG
REM
REM
REM
REM
REM
REM ./C.cell (12c818d87b63d06a65506943cc24bca4)
REM
REM compiler GCC version 9.2.1 20190827 (Red Hat 9.2.1-1)
REM options -cpp -mtune=generic -march=x86-64 -g -O0 -fpre-include=/usr/include/finclude/math-vector-fortran.h
REM seed -1752851618 -883152584 -22916896 -2051401616 134924333 -546873014 931351686 -854531662 2059500790 -597951911 297182846 -983045065 680749596 -1865592359 1992181812 -32599013 1512941047 -636603116 -86085567 1334983701 489494845 1273815576 -1122033720 535355297 1294111120 1064637970 1057462347 -1702432710 1139443227 -1296430033 355023205 -1436735310 756460267
REM
CELL 1.54180   50.00000   50.00000   50.00000   90.00000   90.00000   90.00000
LATT -1
SFAC C  
C      1  0.4745960000000  0.5679900000000  0.5272820000000 1.0
C      1  0.5593430000000  0.5512460000000  0.5225530000000 1.0
C      1  0.5648130000000  0.4613490000000  0.5263190000000 1.0
C      1  0.4814790000000  0.4282770000000  0.5258770000000 1.0
C      1  0.4244980000000  0.4926770000000  0.5236420000000 1.0
C      1  0.4684740000000  0.4652920000000  0.5595300000000 1.0
C      1  0.4664180000000  0.5156860000000  0.5553020000000 1.0
C      1  0.5081230000000  0.5452650000000  0.5591980000000 1.0
C      1  0.5400040000000  0.5067460000000  0.5525310000000 1.0
C      1  0.5211300000000  0.4603700000000  0.5550360000000 1.0
C      1  0.4741220000000  0.5194120000000  0.5233620000000 1.0
C      1  0.5117480000000  0.5298930000000  0.5307660000000 1.0
C      1  0.5380000000000  0.5007670000000  0.5246510000000 1.0
C      1  0.5104710000000  0.4719460000000  0.5277340000000 1.0
C      1  0.4717260000000  0.4803620000000  0.5303490000000 1.0
C      1  0.4815850000000  0.4862170000000  0.4588300000000 1.0
C      1  0.4814070000000  0.5141050000000  0.4589380000000 1.0
C      1  0.5077900000000  0.5231140000000  0.4586130000000 1.0
C      1  0.5243460000000  0.5006500000000  0.4591120000000 1.0
C      1  0.5082050000000  0.4779190000000  0.4592340000000 1.0
C      1  0.4713980000000  0.4465100000000  0.4805950000000 1.0
C      1  0.4387770000000  0.5111750000000  0.4804360000000 1.0
C      1  0.4929830000000  0.5619440000000  0.4804580000000 1.0
C      1  0.5563900000000  0.5277540000000  0.4807100000000 1.0
C      1  0.5440510000000  0.4553620000000  0.4815230000000 1.0
C      1  0.4359100000000  0.5229980000000  0.5123030000000 1.0
C      1  0.5047050000000  0.5704770000000  0.5109580000000 1.0
C      1  0.5696160000000  0.5206640000000  0.5109890000000 1.0
C      1  0.5390560000000  0.4426500000000  0.5126480000000 1.0
C      1  0.4565400000000  0.4461440000000  0.5105560000000 1.0
C      1  0.5072880000000  0.5243750000000  0.4186400000000 1.0
C      1  0.5260100000000  0.5015570000000  0.4191400000000 1.0
C      1  0.5100550000000  0.4767430000000  0.4192950000000 1.0
C      1  0.4815390000000  0.4843530000000  0.4188750000000 1.0
C      1  0.4797310000000  0.5138180000000  0.4189080000000 1.0
C      1  0.5410190000000  0.4834160000000  0.5681570000000 1.0
C      1  0.4975110000000  0.4514330000000  0.5703830000000 1.0
C      1  0.4521460000000  0.4921260000000  0.5630060000000 1.0
C      1  0.4779090000000  0.5362600000000  0.5701760000000 1.0
C      1  0.5371730000000  0.5341160000000  0.5612740000000 1.0
C      1  0.5003310000000  0.4342160000000  0.4815040000000 1.0
C      1  0.4355870000000  0.4795570000000  0.4787070000000 1.0
C      1  0.4625620000000  0.5536170000000  0.4820690000000 1.0
C      1  0.5408760000000  0.5550100000000  0.4786930000000 1.0
C      1  0.5642900000000  0.4798210000000  0.4813880000000 1.0
C      1  0.4589610000000  0.4986230000000  0.5048770000000 1.0
C      1  0.4915560000000  0.5393030000000  0.5058440000000 1.0
C      1  0.5336970000000  0.5257770000000  0.5060960000000 1.0
C      1  0.5336400000000  0.4758190000000  0.5066800000000 1.0
C      1  0.4865460000000  0.4625930000000  0.5066820000000 1.0
C      1  0.5380180000000  0.5653290000000  0.5062260000000 1.0
C      1  0.5719550000000  0.4867100000000  0.5091830000000 1.0
C      1  0.5079000000000  0.4291220000000  0.5100010000000 1.0
C      1  0.4322130000000  0.4692400000000  0.5063910000000 1.0
C      1  0.4539900000000  0.5518510000000  0.5106890000000 1.0
C      1  0.5203590000000  0.4492330000000  0.4638200000000 1.0
C      1  0.4575270000000  0.4661810000000  0.4623100000000 1.0
C      1  0.4548860000000  0.5303860000000  0.4634750000000 1.0
C      1  0.5154570000000  0.5535300000000  0.4620170000000 1.0
C      1  0.5553450000000  0.5029700000000  0.4635550000000 1.0
C      1  0.4805980000000  0.5638470000000  0.5547610000000 1.0
C      1  0.5565910000000  0.5517970000000  0.5507250000000 1.0
C      1  0.5547800000000  0.4589640000000  0.5536280000000 1.0
C      1  0.4778000000000  0.4333230000000  0.5536330000000 1.0
C      1  0.4261130000000  0.4901200000000  0.5518180000000 1.0
C      1  0.5195630000000  0.4522740000000  0.4309570000000 1.0
C      1  0.4610760000000  0.4678170000000  0.4299920000000 1.0
C      1  0.4575980000000  0.5282770000000  0.4303670000000 1.0
C      1  0.5139540000000  0.5498690000000  0.4296870000000 1.0
C      1  0.5522190000000  0.5030420000000  0.4307510000000 1.0
C      1  0.4985570000000  0.5005110000000  0.5370120000000 1.0
END
