TITL C-2782235-7892-456 0.000425085061516114 125000 -415.517156740695 0 0 76 (C1) n - 1
REM
REM in /home/nfs/bkarasulu/CARBON/AIRSS/Generating-Clusters/REBO/Higher-Symm/SD-CG/HFTN-CG
REM
REM
REM
REM
REM
REM ./C.cell (12c818d87b63d06a65506943cc24bca4)
REM
REM compiler GCC version 9.2.1 20190827 (Red Hat 9.2.1-1)
REM options -cpp -mtune=generic -march=x86-64 -g -O0 -fpre-include=/usr/include/finclude/math-vector-fortran.h
REM seed 312277589 -1785911223 878243676 -1830095104 -415812285 -1500599607 1969035897 1777440536 -697772945 745157297 -1815822563 -873191604 935901331 430238540 -1731316784 1244207782 1248358543 -1318084899 487629688 -2016666481 101865047 -300183436 1777381821 -2107116792 2119084001 2147313074 -1729593190 -2125578814 -2144978084 1461347880 -571019211 -1721806371 -402678239
REM
CELL 1.54180   50.00000   50.00000   50.00000   90.00000   90.00000   90.00000
LATT -1
SFAC C  
C      1  0.4442540000000  0.4877920000000  0.5447170000000 1.0
C      1  0.4935390000000  0.5502910000000  0.4428970000000 1.0
C      1  0.5423620000000  0.4462410000000  0.4859750000000 1.0
C      1  0.5538540000000  0.4912560000000  0.4546710000000 1.0
C      1  0.5537560000000  0.5090320000000  0.5433900000000 1.0
C      1  0.4426870000000  0.5143990000000  0.4595560000000 1.0
C      1  0.5071020000000  0.5387810000000  0.5508830000000 1.0
C      1  0.5106050000000  0.4634360000000  0.4580730000000 1.0
C      1  0.4924110000000  0.4501970000000  0.5563220000000 1.0
C      1  0.4573490000000  0.4476950000000  0.5163180000000 1.0
C      1  0.4595440000000  0.5449230000000  0.4802290000000 1.0
C      1  0.5439620000000  0.5534430000000  0.5122500000000 1.0
C      1  0.4544170000000  0.4241670000000  0.4653500000000 1.0
C      1  0.4137730000000  0.4510670000000  0.4649390000000 1.0
C      1  0.4623840000000  0.4768040000000  0.4109230000000 1.0
C      1  0.5257420000000  0.3919200000000  0.5241000000000 1.0
C      1  0.5161540000000  0.6084390000000  0.4797000000000 1.0
C      1  0.4685850000000  0.5889750000000  0.5317990000000 1.0
C      1  0.6045470000000  0.4676730000000  0.5177950000000 1.0
C      1  0.6060850000000  0.5298990000000  0.4809950000000 1.0
C      1  0.4062680000000  0.5423860000000  0.5223790000000 1.0
C      1  0.5331880000000  0.4754430000000  0.6039190000000 1.0
C      1  0.5267620000000  0.5148280000000  0.3937230000000 1.0
C      1  0.4632240000000  0.5369330000000  0.5844040000000 1.0
C      1  0.4826910000000  0.5687580000000  0.4278490000000 1.0
C      1  0.5590260000000  0.4339870000000  0.4697670000000 1.0
C      1  0.4322320000000  0.4759180000000  0.5648030000000 1.0
C      1  0.5165270000000  0.5595270000000  0.5640170000000 1.0
C      1  0.5262060000000  0.4442040000000  0.4494400000000 1.0
C      1  0.4785920000000  0.4321900000000  0.5694550000000 1.0
C      1  0.4403460000000  0.4371810000000  0.5335430000000 1.0
C      1  0.4444870000000  0.5557430000000  0.4615150000000 1.0
C      1  0.5602630000000  0.5652580000000  0.5291690000000 1.0
C      1  0.5649270000000  0.4757240000000  0.4365920000000 1.0
C      1  0.5645830000000  0.5256060000000  0.5607050000000 1.0
C      1  0.4300030000000  0.5257580000000  0.4395100000000 1.0
C      1  0.5821690000000  0.5212360000000  0.4848520000000 1.0
C      1  0.5232410000000  0.4802040000000  0.5806720000000 1.0
C      1  0.4791630000000  0.5693850000000  0.5187880000000 1.0
C      1  0.4239290000000  0.5251250000000  0.5151240000000 1.0
C      1  0.4267500000000  0.4687680000000  0.4783990000000 1.0
C      1  0.5810700000000  0.4773350000000  0.5136360000000 1.0
C      1  0.4753490000000  0.4864690000000  0.4309470000000 1.0
C      1  0.4762510000000  0.5209810000000  0.5689720000000 1.0
C      1  0.5195310000000  0.5148740000000  0.4184170000000 1.0
C      1  0.5141310000000  0.5830910000000  0.4839710000000 1.0
C      1  0.5188940000000  0.4160840000000  0.5185150000000 1.0
C      1  0.4711730000000  0.4362140000000  0.4807100000000 1.0
C      1  0.4287010000000  0.5009240000000  0.4841390000000 1.0
C      1  0.5051020000000  0.4888240000000  0.4445080000000 1.0
C      1  0.4853070000000  0.4354120000000  0.5112160000000 1.0
C      1  0.5624000000000  0.5056040000000  0.5152810000000 1.0
C      1  0.5624020000000  0.4937670000000  0.4829590000000 1.0
C      1  0.4324860000000  0.4932680000000  0.5175150000000 1.0
C      1  0.4945380000000  0.4792540000000  0.5623700000000 1.0
C      1  0.4934760000000  0.5207140000000  0.4390440000000 1.0
C      1  0.5068550000000  0.5103820000000  0.5612980000000 1.0
C      1  0.5142990000000  0.4381090000000  0.4929790000000 1.0
C      1  0.5159520000000  0.5604190000000  0.5071930000000 1.0
C      1  0.4841220000000  0.5577130000000  0.4893370000000 1.0
C      1  0.4715950000000  0.5044010000000  0.4595580000000 1.0
C      1  0.4920830000000  0.4619840000000  0.4825830000000 1.0
C      1  0.4513110000000  0.4724050000000  0.5001130000000 1.0
C      1  0.5306130000000  0.4907390000000  0.5495020000000 1.0
C      1  0.5302790000000  0.5094180000000  0.4497340000000 1.0
C      1  0.4726450000000  0.4985370000000  0.5446930000000 1.0
C      1  0.5094700000000  0.4454370000000  0.5318220000000 1.0
C      1  0.5092120000000  0.5539980000000  0.4684930000000 1.0
C      1  0.4949660000000  0.5399050000000  0.5231980000000 1.0
C      1  0.5498060000000  0.4696650000000  0.5035950000000 1.0
C      1  0.5512140000000  0.5302270000000  0.4944980000000 1.0
C      1  0.4523870000000  0.5215470000000  0.4976430000000 1.0
C      1  0.5301690000000  0.5313810000000  0.4711380000000 1.0
C      1  0.5292350000000  0.4690490000000  0.5276260000000 1.0
C      1  0.4786890000000  0.5121310000000  0.5150580000000 1.0
C      1  0.4770050000000  0.4901410000000  0.4888220000000 1.0
END
