TITL C-2782233-7966-554 0.00381514959457876 125000 -1056.9658490481 0 0 184 (C1) n - 1
REM
REM in /home/nfs/bkarasulu/CARBON/AIRSS/Generating-Clusters/REBO/Higher-Symm/SD-CG/HFTN-CG
REM
REM
REM
REM
REM
REM ./C.cell (12c818d87b63d06a65506943cc24bca4)
REM
REM compiler GCC version 9.2.1 20190827 (Red Hat 9.2.1-1)
REM options -cpp -mtune=generic -march=x86-64 -g -O0 -fpre-include=/usr/include/finclude/math-vector-fortran.h
REM seed -2121606258 1452503826 1814844542 -1813502898 1811849741 1884590258 -1360975494 1758594306 -1737118908 1505917756 1146837583 -74782688 -561839091 138233873 -1233728947 -289804128 1237954506 226919401 -218811018 -802585709 424314024 139123754 731506212 1813248768 1568078184 2044047575 -158645905 416271146 1947438614 63763313 -1355011997 879238834 -1039823581
REM
CELL 1.54180   50.00000   50.00000   50.00000   90.00000   90.00000   90.00000
LATT -1
SFAC C  
C      1  0.4256500000000  0.4990130000000  0.4747650000000 1.0
C      1  0.4252280000000  0.4761020000000  0.4916690000000 1.0
C      1  0.4247590000000  0.4820800000000  0.5191800000000 1.0
C      1  0.4077350000000  0.5321560000000  0.5420340000000 1.0
C      1  0.4255850000000  0.5242660000000  0.4912420000000 1.0
C      1  0.5709070000000  0.5035080000000  0.4645180000000 1.0
C      1  0.5749510000000  0.4655900000000  0.4955430000000 1.0
C      1  0.5801140000000  0.4837200000000  0.5233770000000 1.0
C      1  0.5633000000000  0.5293610000000  0.5299480000000 1.0
C      1  0.5732270000000  0.5239490000000  0.5033640000000 1.0
C      1  0.5335090000000  0.5113530000000  0.4761640000000 1.0
C      1  0.5378720000000  0.4802680000000  0.4775610000000 1.0
C      1  0.5378180000000  0.4737140000000  0.5073410000000 1.0
C      1  0.5371770000000  0.5001950000000  0.5228460000000 1.0
C      1  0.5332940000000  0.5243970000000  0.5039830000000 1.0
C      1  0.4626820000000  0.5137440000000  0.4780140000000 1.0
C      1  0.4624490000000  0.4843820000000  0.4796900000000 1.0
C      1  0.4634200000000  0.4758110000000  0.5086640000000 1.0
C      1  0.4625600000000  0.5008510000000  0.5251440000000 1.0
C      1  0.4627700000000  0.5234380000000  0.5057770000000 1.0
C      1  0.5216560000000  0.6000680000000  0.4988560000000 1.0
C      1  0.5219910000000  0.5311400000000  0.4047920000000 1.0
C      1  0.5211940000000  0.4167980000000  0.4394310000000 1.0
C      1  0.5230550000000  0.4126360000000  0.5585860000000 1.0
C      1  0.5187920000000  0.5312300000000  0.5968670000000 1.0
C      1  0.4873510000000  0.5958750000000  0.5002770000000 1.0
C      1  0.4877450000000  0.5362410000000  0.4090850000000 1.0
C      1  0.4873130000000  0.4226820000000  0.4428940000000 1.0
C      1  0.4893970000000  0.4152730000000  0.5518110000000 1.0
C      1  0.4848040000000  0.5261270000000  0.5973730000000 1.0
C      1  0.5169410000000  0.4619310000000  0.4624830000000 1.0
C      1  0.5189830000000  0.4517760000000  0.5213060000000 1.0
C      1  0.5117510000000  0.4916300000000  0.5418600000000 1.0
C      1  0.5114170000000  0.5476930000000  0.5026220000000 1.0
C      1  0.5162370000000  0.5213930000000  0.4520980000000 1.0
C      1  0.4857710000000  0.4695870000000  0.4665380000000 1.0
C      1  0.4882010000000  0.4576220000000  0.5165030000000 1.0
C      1  0.4826930000000  0.5028460000000  0.5480640000000 1.0
C      1  0.4811450000000  0.5465840000000  0.5104440000000 1.0
C      1  0.4857060000000  0.5220390000000  0.4595020000000 1.0
C      1  0.4063930000000  0.5344910000000  0.5669900000000 1.0
C      1  0.4145310000000  0.5551520000000  0.4802840000000 1.0
C      1  0.4178070000000  0.4981300000000  0.4447470000000 1.0
C      1  0.4226210000000  0.4454330000000  0.4832210000000 1.0
C      1  0.4179260000000  0.4659550000000  0.5440360000000 1.0
C      1  0.5874900000000  0.5322310000000  0.5503100000000 1.0
C      1  0.5844610000000  0.5435960000000  0.4849770000000 1.0
C      1  0.5891020000000  0.4903450000000  0.4451230000000 1.0
C      1  0.5860700000000  0.4373590000000  0.4863980000000 1.0
C      1  0.5869710000000  0.4695460000000  0.5476740000000 1.0
C      1  0.4482870000000  0.5355590000000  0.4563490000000 1.0
C      1  0.4480570000000  0.4703580000000  0.4533700000000 1.0
C      1  0.4495690000000  0.4509280000000  0.5226850000000 1.0
C      1  0.4437100000000  0.5116220000000  0.5481350000000 1.0
C      1  0.4412740000000  0.5474890000000  0.5089210000000 1.0
C      1  0.5551520000000  0.5269810000000  0.4584060000000 1.0
C      1  0.5530010000000  0.4716710000000  0.4489730000000 1.0
C      1  0.5587650000000  0.4505030000000  0.5192300000000 1.0
C      1  0.5479930000000  0.5027040000000  0.5538600000000 1.0
C      1  0.5489420000000  0.5547840000000  0.5034060000000 1.0
C      1  0.5176280000000  0.5620900000000  0.4148320000000 1.0
C      1  0.5188660000000  0.4373860000000  0.4140380000000 1.0
C      1  0.5186380000000  0.3994430000000  0.5296510000000 1.0
C      1  0.5185780000000  0.4994200000000  0.5994900000000 1.0
C      1  0.5148910000000  0.5952230000000  0.5292000000000 1.0
C      1  0.4864120000000  0.5626910000000  0.4284770000000 1.0
C      1  0.4858240000000  0.4451500000000  0.4177710000000 1.0
C      1  0.4867440000000  0.4081600000000  0.5198630000000 1.0
C      1  0.4853410000000  0.4946580000000  0.6058950000000 1.0
C      1  0.4810620000000  0.5921770000000  0.5335190000000 1.0
C      1  0.4279850000000  0.4342380000000  0.5517650000000 1.0
C      1  0.4251790000000  0.5179340000000  0.5825920000000 1.0
C      1  0.4229580000000  0.5819180000000  0.5001440000000 1.0
C      1  0.4223280000000  0.5270330000000  0.4272440000000 1.0
C      1  0.4233240000000  0.4377540000000  0.4504340000000 1.0
C      1  0.5828840000000  0.4360440000000  0.5475730000000 1.0
C      1  0.5694450000000  0.5361430000000  0.5783970000000 1.0
C      1  0.5826660000000  0.5740130000000  0.4989500000000 1.0
C      1  0.5822210000000  0.5204190000000  0.4301060000000 1.0
C      1  0.5830320000000  0.4322380000000  0.4537850000000 1.0
C      1  0.4827500000000  0.4479460000000  0.5446980000000 1.0
C      1  0.4820430000000  0.5290700000000  0.5636020000000 1.0
C      1  0.4820240000000  0.5673810000000  0.4844120000000 1.0
C      1  0.4840670000000  0.5108450000000  0.4287940000000 1.0
C      1  0.4840670000000  0.4379520000000  0.4714220000000 1.0
C      1  0.5205250000000  0.4454640000000  0.5539670000000 1.0
C      1  0.5113310000000  0.5420090000000  0.5658370000000 1.0
C      1  0.5214450000000  0.5714540000000  0.4813150000000 1.0
C      1  0.5234640000000  0.5061760000000  0.4271410000000 1.0
C      1  0.5236440000000  0.4332400000000  0.4688560000000 1.0
C      1  0.4536950000000  0.4214710000000  0.4515200000000 1.0
C      1  0.4582100000000  0.4230640000000  0.5637400000000 1.0
C      1  0.4526130000000  0.5360770000000  0.5919340000000 1.0
C      1  0.4536780000000  0.5944950000000  0.4913930000000 1.0
C      1  0.4535130000000  0.5302460000000  0.4125970000000 1.0
C      1  0.5535810000000  0.4145460000000  0.4507720000000 1.0
C      1  0.5540900000000  0.4265310000000  0.5636120000000 1.0
C      1  0.5452860000000  0.5482230000000  0.5860310000000 1.0
C      1  0.5543360000000  0.5923040000000  0.4910460000000 1.0
C      1  0.5550630000000  0.5210810000000  0.4088420000000 1.0
C      1  0.5343590000000  0.5323420000000  0.5463330000000 1.0
C      1  0.5533920000000  0.5640830000000  0.4719630000000 1.0
C      1  0.5521640000000  0.4941980000000  0.4304990000000 1.0
C      1  0.5549960000000  0.4298620000000  0.4817890000000 1.0
C      1  0.5493100000000  0.4571310000000  0.5476710000000 1.0
C      1  0.4517610000000  0.5390940000000  0.5587520000000 1.0
C      1  0.4518460000000  0.5619500000000  0.4836680000000 1.0
C      1  0.4542320000000  0.5074210000000  0.4395460000000 1.0
C      1  0.4537050000000  0.4459630000000  0.4742300000000 1.0
C      1  0.4550790000000  0.4585610000000  0.5554240000000 1.0
C      1  0.4086390000000  0.4956200000000  0.5581480000000 1.0
C      1  0.4024060000000  0.5556390000000  0.5113940000000 1.0
C      1  0.4047870000000  0.5338470000000  0.4564220000000 1.0
C      1  0.4057380000000  0.4677520000000  0.4548870000000 1.0
C      1  0.4010990000000  0.4484440000000  0.5074490000000 1.0
C      1  0.5993940000000  0.5005510000000  0.5540240000000 1.0
C      1  0.5955300000000  0.5511600000000  0.5224110000000 1.0
C      1  0.5975930000000  0.5321590000000  0.4585150000000 1.0
C      1  0.5966280000000  0.4636030000000  0.4582370000000 1.0
C      1  0.5985480000000  0.4425310000000  0.5176850000000 1.0
C      1  0.3892500000000  0.5243390000000  0.5078270000000 1.0
C      1  0.3889640000000  0.5141910000000  0.4792200000000 1.0
C      1  0.3885020000000  0.4850680000000  0.4786480000000 1.0
C      1  0.3878360000000  0.4740160000000  0.5064030000000 1.0
C      1  0.3896540000000  0.4980900000000  0.5295570000000 1.0
C      1  0.6123960000000  0.5239950000000  0.5098880000000 1.0
C      1  0.6087200000000  0.5121520000000  0.4812220000000 1.0
C      1  0.6089620000000  0.4812350000000  0.4814810000000 1.0
C      1  0.6150760000000  0.4712360000000  0.5094270000000 1.0
C      1  0.6167480000000  0.4987300000000  0.5264450000000 1.0
C      1  0.4579330000000  0.5664380000000  0.4445570000000 1.0
C      1  0.4590510000000  0.4675230000000  0.4198340000000 1.0
C      1  0.4564400000000  0.4202110000000  0.5092070000000 1.0
C      1  0.4606580000000  0.4776540000000  0.5898010000000 1.0
C      1  0.4528590000000  0.5770930000000  0.5463380000000 1.0
C      1  0.5441500000000  0.5717390000000  0.4339390000000 1.0
C      1  0.5453370000000  0.4589840000000  0.4118970000000 1.0
C      1  0.5476570000000  0.4030460000000  0.5115580000000 1.0
C      1  0.5484770000000  0.4858470000000  0.5897940000000 1.0
C      1  0.5397270000000  0.5765170000000  0.5433900000000 1.0
C      1  0.5146660000000  0.4466550000000  0.5877680000000 1.0
C      1  0.5063270000000  0.5732870000000  0.5786590000000 1.0
C      1  0.5118130000000  0.5967740000000  0.4605500000000 1.0
C      1  0.5126950000000  0.4917820000000  0.3987030000000 1.0
C      1  0.5097360000000  0.4026180000000  0.4748780000000 1.0
C      1  0.4882470000000  0.4455100000000  0.5775910000000 1.0
C      1  0.4818230000000  0.5803340000000  0.5867840000000 1.0
C      1  0.4869850000000  0.6039470000000  0.4551640000000 1.0
C      1  0.4863240000000  0.4931150000000  0.3997020000000 1.0
C      1  0.4850470000000  0.3943050000000  0.4787220000000 1.0
C      1  0.5680380000000  0.4503770000000  0.4336990000000 1.0
C      1  0.5712420000000  0.4206710000000  0.5193960000000 1.0
C      1  0.5722680000000  0.5037910000000  0.5739510000000 1.0
C      1  0.5661650000000  0.5689180000000  0.5279710000000 1.0
C      1  0.5638310000000  0.5478500000000  0.4387760000000 1.0
C      1  0.4262150000000  0.4619530000000  0.4281580000000 1.0
C      1  0.4250380000000  0.4292870000000  0.5195630000000 1.0
C      1  0.4385890000000  0.4899150000000  0.5738300000000 1.0
C      1  0.4286400000000  0.5675860000000  0.5304520000000 1.0
C      1  0.4259770000000  0.5568900000000  0.4421390000000 1.0
C      1  0.4888950000000  0.4852510000000  0.5739620000000 1.0
C      1  0.4794110000000  0.5595410000000  0.5386730000000 1.0
C      1  0.4922570000000  0.5537870000000  0.4605620000000 1.0
C      1  0.4888180000000  0.4737080000000  0.4366540000000 1.0
C      1  0.4931220000000  0.4322470000000  0.4979750000000 1.0
C      1  0.5205650000000  0.4818790000000  0.5704730000000 1.0
C      1  0.5109500000000  0.5625810000000  0.5315750000000 1.0
C      1  0.5205630000000  0.5521570000000  0.4464090000000 1.0
C      1  0.5184410000000  0.4664710000000  0.4297050000000 1.0
C      1  0.5217120000000  0.4228750000000  0.5072140000000 1.0
C      1  0.5453260000000  0.4900080000000  0.3978640000000 1.0
C      1  0.5414410000000  0.3990370000000  0.4788720000000 1.0
C      1  0.5471370000000  0.4544090000000  0.5819800000000 1.0
C      1  0.5361360000000  0.5722270000000  0.5735700000000 1.0
C      1  0.5445170000000  0.5941380000000  0.4581340000000 1.0
C      1  0.4544640000000  0.4972060000000  0.4059460000000 1.0
C      1  0.4607360000000  0.4069340000000  0.4806290000000 1.0
C      1  0.4583990000000  0.4454640000000  0.5894610000000 1.0
C      1  0.4550360000000  0.5671500000000  0.5778110000000 1.0
C      1  0.4626970000000  0.5925360000000  0.4601380000000 1.0
C      1  0.5710000000000  0.4962820000000  0.4931110000000 1.0
C      1  0.4249850000000  0.5136220000000  0.5218000000000 1.0
C      1  0.4994650000000  0.4954760000000  0.5112730000000 1.0
C      1  0.4989800000000  0.4990400000000  0.4867510000000 1.0
END
