TITL C-2782228-2999-1494 0.00186177552436639 125000 -631.12990057946 0 0 108 (C3i) n - 1
REM
REM in /home/nfs/bkarasulu/CARBON/AIRSS/Generating-Clusters/REBO/Higher-Symm/SD-CG/HFTN-CG
REM
REM
REM
REM
REM
REM ./C.cell (12c818d87b63d06a65506943cc24bca4)
REM
REM compiler GCC version 9.2.1 20190827 (Red Hat 9.2.1-1)
REM options -cpp -mtune=generic -march=x86-64 -g -O0 -fpre-include=/usr/include/finclude/math-vector-fortran.h
REM seed 683440806 -983316856 -1482479816 2088541236 1393425867 -520215531 -1274582080 -1515736746 1356341544 1084986915 819869349 71348563 1640316646 1509013155 564959505 305666332 999586442 -986436706 -53407717 -1298382881 -1199297233 1493069612 778788807 240771166 -988861020 -1563648832 1287283931 64461036 -1681634750 -464675719 1777838177 22012080 2086636620
REM
CELL 1.54180   50.00000   50.00000   50.00000   90.00000   90.00000   90.00000
LATT -1
SFAC C  
C      1  0.4743090000000  0.4706840000000  0.4072060000000 1.0
C      1  0.5256870000000  0.4049790000000  0.4789890000000 1.0
C      1  0.4743200000000  0.4342940000000  0.5717880000000 1.0
C      1  0.5256910000000  0.5293160000000  0.5927940000000 1.0
C      1  0.4743130000000  0.5950210000000  0.5210110000000 1.0
C      1  0.5256800000000  0.5657060000000  0.4282120000000 1.0
C      1  0.5348440000000  0.4908530000000  0.4554200000000 1.0
C      1  0.4651540000000  0.4568190000000  0.4856360000000 1.0
C      1  0.5348490000000  0.4659690000000  0.5302100000000 1.0
C      1  0.4651560000000  0.5091470000000  0.5445800000000 1.0
C      1  0.5348460000000  0.5431810000000  0.5143640000000 1.0
C      1  0.4651510000000  0.5340310000000  0.4697900000000 1.0
C      1  0.4260990000000  0.4544780000000  0.5196090000000 1.0
C      1  0.5739070000000  0.4942200000000  0.5492190000000 1.0
C      1  0.4260970000000  0.5397360000000  0.5296240000000 1.0
C      1  0.5739010000000  0.5455220000000  0.4803910000000 1.0
C      1  0.4260930000000  0.5057800000000  0.4507810000000 1.0
C      1  0.5739030000000  0.4602640000000  0.4703760000000 1.0
C      1  0.4882080000000  0.5483260000000  0.4877260000000 1.0
C      1  0.5117860000000  0.5135340000000  0.4520100000000 1.0
C      1  0.4882090000000  0.4652060000000  0.4642860000000 1.0
C      1  0.5117920000000  0.4516740000000  0.5122740000000 1.0
C      1  0.4882140000000  0.4864660000000  0.5479900000000 1.0
C      1  0.5117910000000  0.5347940000000  0.5357140000000 1.0
C      1  0.5455540000000  0.5621650000000  0.4893240000000 1.0
C      1  0.4544390000000  0.5218370000000  0.4408310000000 1.0
C      1  0.5455540000000  0.4596760000000  0.4514990000000 1.0
C      1  0.4544460000000  0.4378350000000  0.5106760000000 1.0
C      1  0.5455610000000  0.4781630000000  0.5591690000000 1.0
C      1  0.4544460000000  0.5403240000000  0.5485010000000 1.0
C      1  0.4988880000000  0.5806070000000  0.5238880000000 1.0
C      1  0.5011060000000  0.5609910000000  0.4421370000000 1.0
C      1  0.4988840000000  0.4803840000000  0.4182490000000 1.0
C      1  0.5011120000000  0.4193930000000  0.4761120000000 1.0
C      1  0.4988940000000  0.4390090000000  0.5578630000000 1.0
C      1  0.5011160000000  0.5196160000000  0.5817510000000 1.0
C      1  0.5660510000000  0.4317050000000  0.4855690000000 1.0
C      1  0.4339540000000  0.4533560000000  0.5519370000000 1.0
C      1  0.5660540000000  0.5216560000000  0.5663560000000 1.0
C      1  0.4339490000000  0.5682950000000  0.5144310000000 1.0
C      1  0.5660460000000  0.5466440000000  0.4480630000000 1.0
C      1  0.4339460000000  0.4783440000000  0.4336440000000 1.0
C      1  0.4543600000000  0.4618770000000  0.4260960000000 1.0
C      1  0.5456380000000  0.4169350000000  0.4960580000000 1.0
C      1  0.4543700000000  0.4550540000000  0.5699710000000 1.0
C      1  0.5456400000000  0.5381230000000  0.5739040000000 1.0
C      1  0.4543620000000  0.5830650000000  0.5039420000000 1.0
C      1  0.5456300000000  0.5449460000000  0.4300290000000 1.0
C      1  0.4752540000000  0.4141940000000  0.5148630000000 1.0
C      1  0.5247550000000  0.4699680000000  0.5817390000000 1.0
C      1  0.4752530000000  0.5557720000000  0.5668800000000 1.0
C      1  0.5247460000000  0.5858060000000  0.4851370000000 1.0
C      1  0.4752450000000  0.5300320000000  0.4182610000000 1.0
C      1  0.5247470000000  0.4442280000000  0.4331200000000 1.0
C      1  0.5742870000000  0.5484960000000  0.5139070000000 1.0
C      1  0.4257090000000  0.5362930000000  0.4649630000000 1.0
C      1  0.5742850000000  0.4878030000000  0.4510420000000 1.0
C      1  0.4257130000000  0.4515040000000  0.4860930000000 1.0
C      1  0.5742910000000  0.4637070000000  0.5350370000000 1.0
C      1  0.4257150000000  0.5121970000000  0.5489580000000 1.0
C      1  0.4742270000000  0.5562770000000  0.4324850000000 1.0
C      1  0.5257630000000  0.4696680000000  0.4175020000000 1.0
C      1  0.4742340000000  0.4133890000000  0.4850220000000 1.0
C      1  0.5257730000000  0.4437230000000  0.5675150000000 1.0
C      1  0.4742370000000  0.5303320000000  0.5824980000000 1.0
C      1  0.5257660000000  0.5866110000000  0.5149780000000 1.0
C      1  0.4515980000000  0.5316680000000  0.4971000000000 1.0
C      1  0.5483980000000  0.5133220000000  0.4711190000000 1.0
C      1  0.4515980000000  0.4816500000000  0.4740280000000 1.0
C      1  0.5484020000000  0.4683320000000  0.5029000000000 1.0
C      1  0.4516020000000  0.4866780000000  0.5288810000000 1.0
C      1  0.5484020000000  0.5183500000000  0.5259720000000 1.0
C      1  0.5064240000000  0.4489840000000  0.4819770000000 1.0
C      1  0.4935800000000  0.4588840000000  0.5351700000000 1.0
C      1  0.5064260000000  0.5099000000000  0.5531920000000 1.0
C      1  0.4935760000000  0.5510160000000  0.5180230000000 1.0
C      1  0.5064200000000  0.5411160000000  0.4648300000000 1.0
C      1  0.4935740000000  0.4901000000000  0.4468080000000 1.0
C      1  0.4487700000000  0.5102980000000  0.5740660000000 1.0
C      1  0.5512340000000  0.5692910000000  0.5281090000000 1.0
C      1  0.4487610000000  0.5589890000000  0.4540520000000 1.0
C      1  0.5512300000000  0.4897020000000  0.4259340000000 1.0
C      1  0.4487660000000  0.4307090000000  0.4718910000000 1.0
C      1  0.5512390000000  0.4410110000000  0.5459480000000 1.0
C      1  0.5005550000000  0.4157110000000  0.5256590000000 1.0
C      1  0.4994540000000  0.4800760000000  0.5858260000000 1.0
C      1  0.5005540000000  0.5643660000000  0.5601670000000 1.0
C      1  0.4994450000000  0.5842890000000  0.4743410000000 1.0
C      1  0.5005460000000  0.5199240000000  0.4141740000000 1.0
C      1  0.4994460000000  0.4356340000000  0.4398330000000 1.0
C      1  0.5348780000000  0.4599410000000  0.4807130000000 1.0
C      1  0.4651250000000  0.4632680000000  0.5250530000000 1.0
C      1  0.5348810000000  0.5033300000000  0.5443330000000 1.0
C      1  0.4651220000000  0.5400590000000  0.5192870000000 1.0
C      1  0.5348750000000  0.5367320000000  0.4749470000000 1.0
C      1  0.4651190000000  0.4966700000000  0.4556670000000 1.0
C      1  0.4219220000000  0.4859230000000  0.5321900000000 1.0
C      1  0.5780810000000  0.5208380000000  0.5282770000000 1.0
C      1  0.4219190000000  0.5349090000000  0.4961010000000 1.0
C      1  0.5780780000000  0.5140770000000  0.4678100000000 1.0
C      1  0.4219190000000  0.4791620000000  0.4717230000000 1.0
C      1  0.5780810000000  0.4650910000000  0.5038990000000 1.0
C      1  0.5324000000000  0.4270210000000  0.5218340000000 1.0
C      1  0.4676080000000  0.4824190000000  0.5741220000000 1.0
C      1  0.5323980000000  0.5554010000000  0.5522830000000 1.0
C      1  0.4676000000000  0.5729790000000  0.4781660000000 1.0
C      1  0.5323920000000  0.5175810000000  0.4258780000000 1.0
C      1  0.4676020000000  0.4445990000000  0.4477170000000 1.0
END
