TITL C-2782226-7400-124 -0.00111820763144938 125000 -909.661154031922 0 0 159 (C1) n - 1
REM
REM in /home/nfs/bkarasulu/CARBON/AIRSS/Generating-Clusters/REBO/Higher-Symm/SD-CG/HFTN-CG
REM
REM
REM
REM
REM
REM ./C.cell (12c818d87b63d06a65506943cc24bca4)
REM
REM compiler GCC version 9.2.1 20190827 (Red Hat 9.2.1-1)
REM options -cpp -mtune=generic -march=x86-64 -g -O0 -fpre-include=/usr/include/finclude/math-vector-fortran.h
REM seed -838622350 -985378237 -1124388040 1754004333 1887481310 1838787211 -2146368059 990486331 516518789 -1041463866 1902307859 1753110605 -953705365 -1147826184 1506731444 -2128695105 316515396 838500185 1832807779 1532472314 1945913905 -1273450989 1616179654 -212876506 -1879064520 1340390884 2064053251 1294948207 -1285783916 1342118432 2063544007 -2109845867 2099766931
REM
CELL 1.54180   50.00000   50.00000   50.00000   90.00000   90.00000   90.00000
LATT -1
SFAC C  
C      1  0.4020080000000  0.4929670000000  0.4778060000000 1.0
C      1  0.5009520000000  0.5034720000000  0.4697400000000 1.0
C      1  0.5021600000000  0.4520720000000  0.5431070000000 1.0
C      1  0.5508380000000  0.5409910000000  0.5922980000000 1.0
C      1  0.4341380000000  0.5840620000000  0.5220330000000 1.0
C      1  0.4840630000000  0.5895320000000  0.5093190000000 1.0
C      1  0.5393190000000  0.5913470000000  0.4980840000000 1.0
C      1  0.4719250000000  0.4658680000000  0.4473360000000 1.0
C      1  0.4735840000000  0.4172380000000  0.5418310000000 1.0
C      1  0.5089950000000  0.4701820000000  0.5806060000000 1.0
C      1  0.5093220000000  0.5021860000000  0.6055120000000 1.0
C      1  0.5041660000000  0.5279090000000  0.4060920000000 1.0
C      1  0.4668340000000  0.4396810000000  0.4295340000000 1.0
C      1  0.5852830000000  0.5553210000000  0.5089470000000 1.0
C      1  0.5477290000000  0.4555230000000  0.5449980000000 1.0
C      1  0.5085060000000  0.5553760000000  0.4183440000000 1.0
C      1  0.5632340000000  0.4952230000000  0.4640990000000 1.0
C      1  0.5601300000000  0.4711930000000  0.5105110000000 1.0
C      1  0.4384890000000  0.4547840000000  0.5570880000000 1.0
C      1  0.5949350000000  0.5376560000000  0.5329010000000 1.0
C      1  0.4206560000000  0.5416790000000  0.5463440000000 1.0
C      1  0.5017730000000  0.4672790000000  0.4108710000000 1.0
C      1  0.4242410000000  0.5200490000000  0.5677870000000 1.0
C      1  0.4537460000000  0.4677750000000  0.4854590000000 1.0
C      1  0.5315400000000  0.4478010000000  0.5728860000000 1.0
C      1  0.5620380000000  0.5780150000000  0.5199870000000 1.0
C      1  0.5365490000000  0.4417820000000  0.4167370000000 1.0
C      1  0.4876020000000  0.3997920000000  0.4470960000000 1.0
C      1  0.4267550000000  0.4820610000000  0.4195880000000 1.0
C      1  0.5273380000000  0.5019430000000  0.4479080000000 1.0
C      1  0.5936520000000  0.4812790000000  0.4707520000000 1.0
C      1  0.5566270000000  0.4692270000000  0.4151860000000 1.0
C      1  0.4799650000000  0.4411740000000  0.5633910000000 1.0
C      1  0.4769960000000  0.4868600000000  0.4137380000000 1.0
C      1  0.4282800000000  0.4496450000000  0.4301530000000 1.0
C      1  0.5974870000000  0.5361440000000  0.4802630000000 1.0
C      1  0.5699510000000  0.4880500000000  0.5363900000000 1.0
C      1  0.4253350000000  0.5699950000000  0.5403280000000 1.0
C      1  0.4738470000000  0.4880000000000  0.4723840000000 1.0
C      1  0.5114310000000  0.5802510000000  0.5484890000000 1.0
C      1  0.4766220000000  0.5864460000000  0.4424980000000 1.0
C      1  0.4391570000000  0.5069760000000  0.4730090000000 1.0
C      1  0.5834200000000  0.5490240000000  0.5563250000000 1.0
C      1  0.5517900000000  0.6070710000000  0.4786070000000 1.0
C      1  0.4922900000000  0.3734740000000  0.4536790000000 1.0
C      1  0.5023050000000  0.5508620000000  0.5335600000000 1.0
C      1  0.5434750000000  0.4873930000000  0.4869060000000 1.0
C      1  0.5355590000000  0.5909040000000  0.5375070000000 1.0
C      1  0.4919620000000  0.4570040000000  0.4990290000000 1.0
C      1  0.5699320000000  0.4795400000000  0.5679630000000 1.0
C      1  0.4804700000000  0.5682510000000  0.4199730000000 1.0
C      1  0.5437620000000  0.4476650000000  0.4910560000000 1.0
C      1  0.4545450000000  0.4429510000000  0.5848210000000 1.0
C      1  0.4116820000000  0.4910740000000  0.5250880000000 1.0
C      1  0.4117570000000  0.5250750000000  0.5195830000000 1.0
C      1  0.4774790000000  0.4873140000000  0.5169710000000 1.0
C      1  0.4447000000000  0.5086170000000  0.4215290000000 1.0
C      1  0.5074420000000  0.4283680000000  0.5228370000000 1.0
C      1  0.5009810000000  0.4079290000000  0.5565910000000 1.0
C      1  0.4244990000000  0.4410490000000  0.4862010000000 1.0
C      1  0.4702150000000  0.4444670000000  0.5207610000000 1.0
C      1  0.5486130000000  0.4738720000000  0.5842070000000 1.0
C      1  0.5568640000000  0.5744440000000  0.4462160000000 1.0
C      1  0.5287990000000  0.5306580000000  0.4655110000000 1.0
C      1  0.4526200000000  0.5832550000000  0.4974300000000 1.0
C      1  0.4501390000000  0.5433720000000  0.5057170000000 1.0
C      1  0.4781620000000  0.5814420000000  0.5406360000000 1.0
C      1  0.5119830000000  0.5759440000000  0.5813900000000 1.0
C      1  0.5124030000000  0.5409680000000  0.5706510000000 1.0
C      1  0.5518040000000  0.5011130000000  0.4261280000000 1.0
C      1  0.4971650000000  0.4423220000000  0.4236150000000 1.0
C      1  0.4535170000000  0.4644160000000  0.4120290000000 1.0
C      1  0.4443760000000  0.4154220000000  0.5295560000000 1.0
C      1  0.5799520000000  0.5150480000000  0.4337860000000 1.0
C      1  0.4792110000000  0.5645390000000  0.4887040000000 1.0
C      1  0.4689190000000  0.5508540000000  0.5297430000000 1.0
C      1  0.4726790000000  0.5200180000000  0.4057050000000 1.0
C      1  0.5606970000000  0.5632290000000  0.5502360000000 1.0
C      1  0.5585550000000  0.5251210000000  0.4572970000000 1.0
C      1  0.4898000000000  0.6085010000000  0.4531640000000 1.0
C      1  0.5396820000000  0.4126550000000  0.4244090000000 1.0
C      1  0.5925920000000  0.5080380000000  0.5277380000000 1.0
C      1  0.5711880000000  0.5542230000000  0.4615640000000 1.0
C      1  0.5381090000000  0.3974860000000  0.5010830000000 1.0
C      1  0.5006140000000  0.5304820000000  0.5995290000000 1.0
C      1  0.5099550000000  0.6009650000000  0.5058800000000 1.0
C      1  0.5779510000000  0.4750050000000  0.4410560000000 1.0
C      1  0.5110950000000  0.4197770000000  0.4403090000000 1.0
C      1  0.5562210000000  0.4348970000000  0.5267910000000 1.0
C      1  0.5348040000000  0.4922680000000  0.6014900000000 1.0
C      1  0.4364460000000  0.4990190000000  0.5027210000000 1.0
C      1  0.5396500000000  0.5671000000000  0.4217390000000 1.0
C      1  0.5295750000000  0.5812130000000  0.4577070000000 1.0
C      1  0.5198560000000  0.4924920000000  0.5623670000000 1.0
C      1  0.5150980000000  0.5549930000000  0.4508490000000 1.0
C      1  0.4191800000000  0.5426000000000  0.4916630000000 1.0
C      1  0.5472440000000  0.4098150000000  0.4539530000000 1.0
C      1  0.5863560000000  0.5163510000000  0.5002000000000 1.0
C      1  0.4478340000000  0.4196070000000  0.4989860000000 1.0
C      1  0.3975540000000  0.4277710000000  0.5433130000000 1.0
C      1  0.5985850000000  0.5129320000000  0.4591390000000 1.0
C      1  0.4289590000000  0.4663750000000  0.5090000000000 1.0
C      1  0.5468700000000  0.5070310000000  0.5504950000000 1.0
C      1  0.4419540000000  0.5154050000000  0.5323300000000 1.0
C      1  0.4839860000000  0.4802620000000  0.5500410000000 1.0
C      1  0.4569730000000  0.4925840000000  0.5947530000000 1.0
C      1  0.4757870000000  0.5590410000000  0.4585840000000 1.0
C      1  0.4855830000000  0.4819950000000  0.6025140000000 1.0
C      1  0.5258020000000  0.4793150000000  0.4055880000000 1.0
C      1  0.4889370000000  0.5377860000000  0.4978060000000 1.0
C      1  0.5548630000000  0.4575690000000  0.4541270000000 1.0
C      1  0.5604780000000  0.5456160000000  0.4914400000000 1.0
C      1  0.4405160000000  0.5509620000000  0.4417070000000 1.0
C      1  0.5240090000000  0.4286150000000  0.4706300000000 1.0
C      1  0.4655080000000  0.5273980000000  0.5505320000000 1.0
C      1  0.4756950000000  0.5024680000000  0.5686470000000 1.0
C      1  0.4738060000000  0.5403290000000  0.5810110000000 1.0
C      1  0.5247170000000  0.5093490000000  0.4072410000000 1.0
C      1  0.4570940000000  0.5346420000000  0.4739140000000 1.0
C      1  0.4601240000000  0.5486980000000  0.4193240000000 1.0
C      1  0.4944640000000  0.4335880000000  0.4758450000000 1.0
C      1  0.4821150000000  0.4185020000000  0.5029580000000 1.0
C      1  0.5632440000000  0.4322850000000  0.4677820000000 1.0
C      1  0.5808050000000  0.4372230000000  0.5109410000000 1.0
C      1  0.4248380000000  0.4313180000000  0.5435570000000 1.0
C      1  0.5074870000000  0.5035220000000  0.5186460000000 1.0
C      1  0.5351270000000  0.5486550000000  0.5432430000000 1.0
C      1  0.5341360000000  0.5600450000000  0.4981700000000 1.0
C      1  0.5211590000000  0.4681120000000  0.5020780000000 1.0
C      1  0.4475640000000  0.5208840000000  0.5852840000000 1.0
C      1  0.4625560000000  0.4392610000000  0.4754630000000 1.0
C      1  0.4575010000000  0.4670620000000  0.5366750000000 1.0
C      1  0.5409770000000  0.5242150000000  0.5248260000000 1.0
C      1  0.5235740000000  0.4765590000000  0.5334670000000 1.0
C      1  0.5287450000000  0.4586920000000  0.4416380000000 1.0
C      1  0.4851420000000  0.4504530000000  0.5948120000000 1.0
C      1  0.5156620000000  0.6051220000000  0.4616870000000 1.0
C      1  0.5568440000000  0.5250760000000  0.5742000000000 1.0
C      1  0.5249230000000  0.5541990000000  0.6024840000000 1.0
C      1  0.5338250000000  0.4190530000000  0.5171760000000 1.0
C      1  0.4145900000000  0.4958400000000  0.5573420000000 1.0
C      1  0.4911510000000  0.5308010000000  0.4520440000000 1.0
C      1  0.4364430000000  0.4334480000000  0.4547160000000 1.0
C      1  0.4722410000000  0.5052590000000  0.4424110000000 1.0
C      1  0.4204750000000  0.4711190000000  0.4706460000000 1.0
C      1  0.5187980000000  0.4200820000000  0.5689020000000 1.0
C      1  0.4718350000000  0.5169310000000  0.5065710000000 1.0
C      1  0.4621350000000  0.4130580000000  0.4454170000000 1.0
C      1  0.4416170000000  0.4812900000000  0.4501980000000 1.0
C      1  0.5555710000000  0.5144930000000  0.4981430000000 1.0
C      1  0.4015720000000  0.5173450000000  0.4818120000000 1.0
C      1  0.5079490000000  0.5198830000000  0.5469120000000 1.0
C      1  0.4812880000000  0.5695200000000  0.5720890000000 1.0
C      1  0.5187050000000  0.5294300000000  0.4980620000000 1.0
C      1  0.5880500000000  0.4612370000000  0.4941190000000 1.0
C      1  0.4376660000000  0.4705650000000  0.5872430000000 1.0
C      1  0.4320010000000  0.5233830000000  0.4451740000000 1.0
C      1  0.4389000000000  0.5636920000000  0.4733040000000 1.0
C      1  0.5043570000000  0.4762960000000  0.4496580000000 1.0
END
