TITL C-2782233-7966-830 -0.00267343656329918 125000 -460.866460152442 0 0 78 (C1) n - 1
REM
REM in /home/nfs/bkarasulu/CARBON/AIRSS/Generating-Clusters/REBO/Higher-Symm/SD-CG/HFTN-CG
REM
REM
REM
REM
REM
REM ./C.cell (12c818d87b63d06a65506943cc24bca4)
REM
REM compiler GCC version 9.2.1 20190827 (Red Hat 9.2.1-1)
REM options -cpp -mtune=generic -march=x86-64 -g -O0 -fpre-include=/usr/include/finclude/math-vector-fortran.h
REM seed -232742842 223548580 1626131005 443381740 -383322706 -565593788 1175330226 -178877420 391920588 -1109596795 1513273564 -1465044709 1449130305 -1732294646 1634399508 1893383388 -1503782380 121134040 -61703711 -1296657673 -699315695 1641068211 -678275846 -294824358 1868378497 2016188318 1491692005 -2024695594 -729681082 1258200492 2142248025 1487324191 626899412
REM
CELL 1.54180   50.00000   50.00000   50.00000   90.00000   90.00000   90.00000
LATT -1
SFAC C  
C      1  0.5212280000000  0.4802440000000  0.4273000000000 1.0
C      1  0.5272300000000  0.5079580000000  0.4277100000000 1.0
C      1  0.5061980000000  0.5268520000000  0.4289620000000 1.0
C      1  0.4793980000000  0.5181820000000  0.4293330000000 1.0
C      1  0.4734220000000  0.4906480000000  0.4280730000000 1.0
C      1  0.4942330000000  0.4714140000000  0.4263450000000 1.0
C      1  0.5755420000000  0.4803610000000  0.4836790000000 1.0
C      1  0.5546840000000  0.5553830000000  0.4841700000000 1.0
C      1  0.4790880000000  0.5745180000000  0.4846580000000 1.0
C      1  0.4242780000000  0.5181760000000  0.4842110000000 1.0
C      1  0.4458550000000  0.4427160000000  0.4823010000000 1.0
C      1  0.5214810000000  0.4237640000000  0.4821340000000 1.0
C      1  0.5408110000000  0.5672270000000  0.5051430000000 1.0
C      1  0.4619380000000  0.5680990000000  0.5054290000000 1.0
C      1  0.4215970000000  0.5004080000000  0.5052480000000 1.0
C      1  0.4603840000000  0.4320560000000  0.5032810000000 1.0
C      1  0.5376320000000  0.4317200000000  0.5032850000000 1.0
C      1  0.5779680000000  0.4983620000000  0.5047230000000 1.0
C      1  0.5256240000000  0.5608490000000  0.5349610000000 1.0
C      1  0.4599350000000  0.5521240000000  0.5352780000000 1.0
C      1  0.4355170000000  0.4910640000000  0.5346510000000 1.0
C      1  0.4759340000000  0.4413800000000  0.5318500000000 1.0
C      1  0.5382160000000  0.4489970000000  0.5326270000000 1.0
C      1  0.5645130000000  0.5085990000000  0.5343010000000 1.0
C      1  0.5232230000000  0.4772550000000  0.4674490000000 1.0
C      1  0.5296590000000  0.5081470000000  0.4675810000000 1.0
C      1  0.5064120000000  0.5283040000000  0.4691380000000 1.0
C      1  0.4766850000000  0.5184040000000  0.4725980000000 1.0
C      1  0.4715900000000  0.4875200000000  0.4687260000000 1.0
C      1  0.4940140000000  0.4671430000000  0.4660330000000 1.0
C      1  0.4442000000000  0.4946050000000  0.5645040000000 1.0
C      1  0.4778250000000  0.4508040000000  0.5613110000000 1.0
C      1  0.5325210000000  0.4565870000000  0.5621760000000 1.0
C      1  0.5551730000000  0.5072320000000  0.5640770000000 1.0
C      1  0.5220260000000  0.5521560000000  0.5647960000000 1.0
C      1  0.4661290000000  0.5461020000000  0.5656530000000 1.0
C      1  0.5199650000000  0.4753040000000  0.5293250000000 1.0
C      1  0.5323840000000  0.5067400000000  0.5315300000000 1.0
C      1  0.5118630000000  0.5319120000000  0.5321330000000 1.0
C      1  0.4806130000000  0.5259790000000  0.5349830000000 1.0
C      1  0.4679110000000  0.4962660000000  0.5327200000000 1.0
C      1  0.4875220000000  0.4708020000000  0.5281920000000 1.0
C      1  0.4580270000000  0.4515230000000  0.4579890000000 1.0
C      1  0.5195790000000  0.4378040000000  0.4572620000000 1.0
C      1  0.5615270000000  0.4854340000000  0.4593560000000 1.0
C      1  0.5425850000000  0.5453160000000  0.4604270000000 1.0
C      1  0.4813920000000  0.5585930000000  0.4612740000000 1.0
C      1  0.4390520000000  0.5119660000000  0.4607030000000 1.0
C      1  0.5807440000000  0.4538440000000  0.4923160000000 1.0
C      1  0.5803650000000  0.5465960000000  0.4924290000000 1.0
C      1  0.4994520000000  0.5924040000000  0.4929060000000 1.0
C      1  0.4196270000000  0.5448680000000  0.4925090000000 1.0
C      1  0.4208940000000  0.4526020000000  0.4914570000000 1.0
C      1  0.5010340000000  0.4063710000000  0.4913440000000 1.0
C      1  0.4674740000000  0.4911830000000  0.5003040000000 1.0
C      1  0.4965400000000  0.4742640000000  0.4969920000000 1.0
C      1  0.5275000000000  0.4842870000000  0.4991430000000 1.0
C      1  0.5293700000000  0.5172090000000  0.4996300000000 1.0
C      1  0.4998570000000  0.5341420000000  0.5010010000000 1.0
C      1  0.4685140000000  0.5239870000000  0.5039630000000 1.0
C      1  0.5264090000000  0.5206180000000  0.5748570000000 1.0
C      1  0.4959070000000  0.5339810000000  0.5753100000000 1.0
C      1  0.4691380000000  0.5141990000000  0.5753190000000 1.0
C      1  0.4730970000000  0.4812300000000  0.5742600000000 1.0
C      1  0.5034590000000  0.4681140000000  0.5735650000000 1.0
C      1  0.5301530000000  0.4876610000000  0.5741190000000 1.0
C      1  0.4345490000000  0.5561740000000  0.5130260000000 1.0
C      1  0.4194640000000  0.4706450000000  0.5126120000000 1.0
C      1  0.4844220000000  0.4150680000000  0.5119550000000 1.0
C      1  0.5648050000000  0.4429580000000  0.5123080000000 1.0
C      1  0.5824310000000  0.5277790000000  0.5127680000000 1.0
C      1  0.5171940000000  0.5854170000000  0.5130960000000 1.0
C      1  0.5527610000000  0.5158310000000  0.4468840000000 1.0
C      1  0.5116770000000  0.5524160000000  0.4485690000000 1.0
C      1  0.4605040000000  0.5349990000000  0.4497250000000 1.0
C      1  0.4483490000000  0.4821810000000  0.4471950000000 1.0
C      1  0.4885800000000  0.4443410000000  0.4447440000000 1.0
C      1  0.5411520000000  0.4616330000000  0.4461050000000 1.0
END
