TITL C-2782237-5345-762 0.00359325272591115 125000 -779.011743228482 0 0 137 (C1) n - 1
REM
REM in /home/nfs/bkarasulu/CARBON/AIRSS/Generating-Clusters/REBO/Higher-Symm/SD-CG/HFTN-CG
REM
REM
REM
REM
REM
REM ./C.cell (12c818d87b63d06a65506943cc24bca4)
REM
REM compiler GCC version 9.2.1 20190827 (Red Hat 9.2.1-1)
REM options -cpp -mtune=generic -march=x86-64 -g -O0 -fpre-include=/usr/include/finclude/math-vector-fortran.h
REM seed 10406327 -1046968514 -811277435 2123960539 -1966575285 -118829447 1564701952 1177567119 -238532778 983657032 2127883318 -1155004477 1868278402 185069420 -1670774649 676686427 -2105585882 -377544145 1391343976 165247161 -1735472331 -194764093 -68395660 -1655308438 -519182338 1352733155 -1690777521 -732957799 783484182 1007244989 -1938142583 -985224766 -1254554377
REM
CELL 1.54180   50.00000   50.00000   50.00000   90.00000   90.00000   90.00000
LATT -1
SFAC C  
C      1  0.4772990000000  0.5160390000000  0.4241550000000 1.0
C      1  0.5257590000000  0.4823510000000  0.4241260000000 1.0
C      1  0.5408720000000  0.4458920000000  0.5654000000000 1.0
C      1  0.4647410000000  0.5514560000000  0.5541390000000 1.0
C      1  0.5305440000000  0.5544220000000  0.5611430000000 1.0
C      1  0.4729750000000  0.4499070000000  0.5619880000000 1.0
C      1  0.4698680000000  0.5367110000000  0.4747030000000 1.0
C      1  0.5343110000000  0.4711630000000  0.4797470000000 1.0
C      1  0.4827750000000  0.4292390000000  0.5155280000000 1.0
C      1  0.5227310000000  0.5643400000000  0.5095410000000 1.0
C      1  0.5034950000000  0.5715200000000  0.4491420000000 1.0
C      1  0.5036620000000  0.4356300000000  0.4402930000000 1.0
C      1  0.4729190000000  0.5442220000000  0.5012900000000 1.0
C      1  0.5276450000000  0.4536430000000  0.5007610000000 1.0
C      1  0.5789140000000  0.4806600000000  0.5504630000000 1.0
C      1  0.4166510000000  0.5104670000000  0.5534030000000 1.0
C      1  0.4620590000000  0.4386930000000  0.4145890000000 1.0
C      1  0.5400640000000  0.5623830000000  0.4186870000000 1.0
C      1  0.4318930000000  0.5377140000000  0.5161100000000 1.0
C      1  0.5722320000000  0.4602360000000  0.5050480000000 1.0
C      1  0.4495120000000  0.4923020000000  0.5080040000000 1.0
C      1  0.5520670000000  0.5067500000000  0.5137650000000 1.0
C      1  0.4921380000000  0.6032280000000  0.5029160000000 1.0
C      1  0.5049080000000  0.3974140000000  0.5057260000000 1.0
C      1  0.5104800000000  0.5525160000000  0.4835190000000 1.0
C      1  0.4901220000000  0.4470530000000  0.4887590000000 1.0
C      1  0.4087010000000  0.4489420000000  0.4846910000000 1.0
C      1  0.5803230000000  0.5556010000000  0.4802500000000 1.0
C      1  0.5024330000000  0.5198860000000  0.4901480000000 1.0
C      1  0.4970700000000  0.4777610000000  0.4926720000000 1.0
C      1  0.4448630000000  0.4739720000000  0.4214390000000 1.0
C      1  0.5584730000000  0.5180100000000  0.4113890000000 1.0
C      1  0.5348720000000  0.5097400000000  0.4696170000000 1.0
C      1  0.4571850000000  0.4865120000000  0.4621630000000 1.0
C      1  0.4353100000000  0.5686360000000  0.4529420000000 1.0
C      1  0.5554010000000  0.4384250000000  0.4475170000000 1.0
C      1  0.5444440000000  0.4266570000000  0.4770410000000 1.0
C      1  0.4530610000000  0.5729560000000  0.4818930000000 1.0
C      1  0.4399030000000  0.4157440000000  0.5055330000000 1.0
C      1  0.5602490000000  0.5827920000000  0.5036880000000 1.0
C      1  0.5185130000000  0.4292500000000  0.5458800000000 1.0
C      1  0.4849400000000  0.5742400000000  0.5425550000000 1.0
C      1  0.4300900000000  0.5481290000000  0.4778940000000 1.0
C      1  0.5696180000000  0.4498630000000  0.4741740000000 1.0
C      1  0.4797780000000  0.5003410000000  0.5071700000000 1.0
C      1  0.5193770000000  0.4987220000000  0.5087440000000 1.0
C      1  0.4445560000000  0.4462200000000  0.5633520000000 1.0
C      1  0.5588140000000  0.5570940000000  0.5634260000000 1.0
C      1  0.4291550000000  0.4703720000000  0.4579350000000 1.0
C      1  0.5616110000000  0.5266060000000  0.4600660000000 1.0
C      1  0.5476130000000  0.4964400000000  0.4040850000000 1.0
C      1  0.4551010000000  0.4949380000000  0.4139830000000 1.0
C      1  0.5449990000000  0.4836990000000  0.4502360000000 1.0
C      1  0.4566900000000  0.5179190000000  0.4506650000000 1.0
C      1  0.4935640000000  0.4755060000000  0.4169430000000 1.0
C      1  0.5018660000000  0.5346120000000  0.4161690000000 1.0
C      1  0.4436170000000  0.4680040000000  0.4879540000000 1.0
C      1  0.5500540000000  0.5319490000000  0.4910090000000 1.0
C      1  0.5263600000000  0.4497060000000  0.5940210000000 1.0
C      1  0.4775750000000  0.5565150000000  0.5916210000000 1.0
C      1  0.5618060000000  0.4866110000000  0.4877200000000 1.0
C      1  0.4376660000000  0.5184510000000  0.4897410000000 1.0
C      1  0.5005150000000  0.5684370000000  0.5692240000000 1.0
C      1  0.5026570000000  0.4369120000000  0.5724550000000 1.0
C      1  0.5552530000000  0.5395850000000  0.4329650000000 1.0
C      1  0.4470620000000  0.4476650000000  0.4418570000000 1.0
C      1  0.4550840000000  0.5571770000000  0.4293710000000 1.0
C      1  0.5557170000000  0.4340160000000  0.4157260000000 1.0
C      1  0.5482870000000  0.4196360000000  0.5088200000000 1.0
C      1  0.4493610000000  0.5814750000000  0.5122630000000 1.0
C      1  0.5493360000000  0.5239020000000  0.5433590000000 1.0
C      1  0.4540480000000  0.4739230000000  0.5362540000000 1.0
C      1  0.5155520000000  0.5127250000000  0.4345360000000 1.0
C      1  0.4847010000000  0.4899440000000  0.4453830000000 1.0
C      1  0.5232740000000  0.5418800000000  0.5305520000000 1.0
C      1  0.4803670000000  0.4568530000000  0.5298910000000 1.0
C      1  0.5447900000000  0.5059610000000  0.5702170000000 1.0
C      1  0.4567200000000  0.4894720000000  0.5637450000000 1.0
C      1  0.5900630000000  0.4770390000000  0.4710710000000 1.0
C      1  0.4172580000000  0.5189890000000  0.4645170000000 1.0
C      1  0.4754460000000  0.4076410000000  0.5305880000000 1.0
C      1  0.5248940000000  0.5893040000000  0.5209900000000 1.0
C      1  0.4977310000000  0.5257610000000  0.4570480000000 1.0
C      1  0.5085190000000  0.4884710000000  0.4653480000000 1.0
C      1  0.5166740000000  0.5028550000000  0.5422030000000 1.0
C      1  0.4852990000000  0.4984730000000  0.5374800000000 1.0
C      1  0.5549500000000  0.4774990000000  0.5289900000000 1.0
C      1  0.4333000000000  0.5117350000000  0.5288060000000 1.0
C      1  0.5318350000000  0.5543660000000  0.4569440000000 1.0
C      1  0.4751410000000  0.4387850000000  0.4590620000000 1.0
C      1  0.4948390000000  0.4760040000000  0.5613800000000 1.0
C      1  0.5116490000000  0.5272490000000  0.5654260000000 1.0
C      1  0.5125830000000  0.4537240000000  0.5243020000000 1.0
C      1  0.4900240000000  0.5469280000000  0.5237410000000 1.0
C      1  0.4067660000000  0.4832670000000  0.5375970000000 1.0
C      1  0.5863960000000  0.5089180000000  0.5428910000000 1.0
C      1  0.5120060000000  0.4285690000000  0.4700900000000 1.0
C      1  0.4843490000000  0.5738380000000  0.4769850000000 1.0
C      1  0.4855260000000  0.5269090000000  0.5486360000000 1.0
C      1  0.5270090000000  0.4709040000000  0.5473880000000 1.0
C      1  0.4665840000000  0.5070880000000  0.5819670000000 1.0
C      1  0.5205100000000  0.5007580000000  0.5935160000000 1.0
C      1  0.4058060000000  0.4914020000000  0.4619980000000 1.0
C      1  0.5890530000000  0.5091230000000  0.4635920000000 1.0
C      1  0.4914760000000  0.4075550000000  0.4833940000000 1.0
C      1  0.5126160000000  0.5924330000000  0.4830560000000 1.0
C      1  0.4736390000000  0.5928600000000  0.5219570000000 1.0
C      1  0.5249030000000  0.4103490000000  0.5219120000000 1.0
C      1  0.4357860000000  0.5625240000000  0.5292700000000 1.0
C      1  0.5660070000000  0.4371290000000  0.5241980000000 1.0
C      1  0.5126890000000  0.5603490000000  0.4209440000000 1.0
C      1  0.4880850000000  0.4471720000000  0.4153510000000 1.0
C      1  0.5867790000000  0.5155870000000  0.5118920000000 1.0
C      1  0.3933130000000  0.4857140000000  0.5120230000000 1.0
C      1  0.5083960000000  0.5445520000000  0.5928750000000 1.0
C      1  0.4954140000000  0.4637500000000  0.5923760000000 1.0
C      1  0.5690110000000  0.5521620000000  0.5110320000000 1.0
C      1  0.4298980000000  0.4445700000000  0.5085910000000 1.0
C      1  0.5416310000000  0.4780080000000  0.5890410000000 1.0
C      1  0.4551910000000  0.5355310000000  0.5812610000000 1.0
C      1  0.4793970000000  0.5503830000000  0.4451530000000 1.0
C      1  0.5297690000000  0.4488380000000  0.4284180000000 1.0
C      1  0.4304610000000  0.5368370000000  0.4398910000000 1.0
C      1  0.5720480000000  0.4786280000000  0.4442430000000 1.0
C      1  0.5399090000000  0.5857060000000  0.4804270000000 1.0
C      1  0.4588750000000  0.4163170000000  0.4787360000000 1.0
C      1  0.4494320000000  0.4003690000000  0.5259180000000 1.0
C      1  0.5516540000000  0.6006140000000  0.5266340000000 1.0
C      1  0.4324710000000  0.5407770000000  0.5561050000000 1.0
C      1  0.5688910000000  0.4481190000000  0.5516340000000 1.0
C      1  0.3968640000000  0.4749410000000  0.4853880000000 1.0
C      1  0.5915020000000  0.5280970000000  0.4865680000000 1.0
C      1  0.5762170000000  0.5416240000000  0.5400010000000 1.0
C      1  0.4262970000000  0.4578110000000  0.5374000000000 1.0
C      1  0.4288090000000  0.4310260000000  0.4709820000000 1.0
C      1  0.5600980000000  0.5671820000000  0.4644460000000 1.0
C      1  0.4926830000000  0.5042110000000  0.5929120000000 1.0
END
