TITL C-2782235-7892-1257 0.00174563821911912 125000 -288.662263197201 0 0 52 (C1) n - 1
REM
REM in /home/nfs/bkarasulu/CARBON/AIRSS/Generating-Clusters/REBO/Higher-Symm/SD-CG/HFTN-CG
REM
REM
REM
REM
REM
REM ./C.cell (12c818d87b63d06a65506943cc24bca4)
REM
REM compiler GCC version 9.2.1 20190827 (Red Hat 9.2.1-1)
REM options -cpp -mtune=generic -march=x86-64 -g -O0 -fpre-include=/usr/include/finclude/math-vector-fortran.h
REM seed -603001766 1120408954 -681033490 -899881817 -1995170654 1428868048 -934610039 -1136041135 -1144413189 -1323243535 -287952397 -798259282 -488337189 -1038435673 751183522 38713206 722271196 -3918882 -869435379 -484779735 -328761246 -1191231715 -1963268914 -1155139447 1694986648 1483616401 49809864 -1403516216 1232898491 1389394205 1564090108 1979028245 285571639
REM
CELL 1.54180   50.00000   50.00000   50.00000   90.00000   90.00000   90.00000
LATT -1
SFAC C  
C      1  0.4744070000000  0.5049110000000  0.4660880000000 1.0
C      1  0.5269690000000  0.5146730000000  0.4685230000000 1.0
C      1  0.5356550000000  0.4386710000000  0.4998700000000 1.0
C      1  0.4694180000000  0.4406340000000  0.5009880000000 1.0
C      1  0.4865380000000  0.4497690000000  0.5217440000000 1.0
C      1  0.5187480000000  0.4449780000000  0.5220760000000 1.0
C      1  0.4840890000000  0.5715380000000  0.4853520000000 1.0
C      1  0.5172200000000  0.5650070000000  0.4893910000000 1.0
C      1  0.4476400000000  0.4900900000000  0.5403170000000 1.0
C      1  0.5495780000000  0.4902170000000  0.5377540000000 1.0
C      1  0.5134940000000  0.5070170000000  0.5402390000000 1.0
C      1  0.4816160000000  0.5099970000000  0.5455630000000 1.0
C      1  0.4560310000000  0.4771920000000  0.5099180000000 1.0
C      1  0.5430120000000  0.4770870000000  0.5079410000000 1.0
C      1  0.4755400000000  0.4584280000000  0.4538290000000 1.0
C      1  0.5232480000000  0.4587400000000  0.4533120000000 1.0
C      1  0.5135500000000  0.4807080000000  0.4372130000000 1.0
C      1  0.4846170000000  0.4800490000000  0.4366760000000 1.0
C      1  0.5234610000000  0.5094600000000  0.4380650000000 1.0
C      1  0.4737710000000  0.5101000000000  0.4348650000000 1.0
C      1  0.4650240000000  0.5571040000000  0.5002490000000 1.0
C      1  0.5456080000000  0.5578970000000  0.4918990000000 1.0
C      1  0.4591370000000  0.4619730000000  0.4790920000000 1.0
C      1  0.5413150000000  0.4622820000000  0.4772230000000 1.0
C      1  0.4438980000000  0.5396770000000  0.5173080000000 1.0
C      1  0.5577680000000  0.5365380000000  0.5137090000000 1.0
C      1  0.5249830000000  0.4836850000000  0.5608010000000 1.0
C      1  0.4726610000000  0.4829190000000  0.5632820000000 1.0
C      1  0.4555430000000  0.5180930000000  0.4160900000000 1.0
C      1  0.5422750000000  0.5171590000000  0.4191930000000 1.0
C      1  0.4747180000000  0.4510420000000  0.5508830000000 1.0
C      1  0.5271710000000  0.4506010000000  0.5524580000000 1.0
C      1  0.4481810000000  0.4935030000000  0.4828900000000 1.0
C      1  0.5500240000000  0.4948240000000  0.4819260000000 1.0
C      1  0.4676470000000  0.5278340000000  0.4877850000000 1.0
C      1  0.5520640000000  0.5339010000000  0.4745660000000 1.0
C      1  0.5723210000000  0.5168010000000  0.4917460000000 1.0
C      1  0.4345480000000  0.5211040000000  0.4933220000000 1.0
C      1  0.4840780000000  0.4841610000000  0.5251490000000 1.0
C      1  0.5147980000000  0.4779260000000  0.5226560000000 1.0
C      1  0.4527550000000  0.5236940000000  0.5390570000000 1.0
C      1  0.5428580000000  0.5223750000000  0.5330340000000 1.0
C      1  0.5569800000000  0.4613470000000  0.5541000000000 1.0
C      1  0.4444640000000  0.4581310000000  0.5504530000000 1.0
C      1  0.4999970000000  0.4633120000000  0.5686520000000 1.0
C      1  0.5013560000000  0.5410440000000  0.5045090000000 1.0
C      1  0.4907820000000  0.5449430000000  0.5284750000000 1.0
C      1  0.4804390000000  0.5494310000000  0.5521380000000 1.0
C      1  0.4993540000000  0.5522730000000  0.4629330000000 1.0
C      1  0.4996240000000  0.4420450000000  0.4575830000000 1.0
C      1  0.4985240000000  0.5305640000000  0.4452250000000 1.0
C      1  0.5002900000000  0.5176880000000  0.4829970000000 1.0
END
