TITL C-2782236-320-914 -0.00943675100868656 125000 -216.184234357826 0 0 40 (D2) n - 1
REM
REM in /home/nfs/bkarasulu/CARBON/AIRSS/Generating-Clusters/REBO/Higher-Symm/SD-CG/HFTN-CG
REM
REM
REM
REM
REM
REM ./C.cell (12c818d87b63d06a65506943cc24bca4)
REM
REM compiler GCC version 9.2.1 20190827 (Red Hat 9.2.1-1)
REM options -cpp -mtune=generic -march=x86-64 -g -O0 -fpre-include=/usr/include/finclude/math-vector-fortran.h
REM seed 1740044871 245512630 -438165044 -51082879 437915862 373159253 958434343 1614363386 1677186128 -607661649 -1856156785 1597376356 -2082923928 1988274673 -1949234765 1358037712 1625757299 -470515616 756641158 25609638 919752834 582991298 1711863664 126827280 -861596362 1058847591 -1929322189 -115922755 -1809218132 -1141150187 1496210224 1199002879 -1026459895
REM
CELL 1.54180   50.00000   50.00000   50.00000   90.00000   90.00000   90.00000
LATT -1
SFAC C  
C      1  0.5329950000000  0.5418610000000  0.5159620000000 1.0
C      1  0.4669480000000  0.5418440000000  0.4841100000000 1.0
C      1  0.5365520000000  0.4550450000000  0.5162100000000 1.0
C      1  0.4635090000000  0.4550240000000  0.4837110000000 1.0
C      1  0.4634110000000  0.5449260000000  0.5162050000000 1.0
C      1  0.5365280000000  0.5450040000000  0.4838730000000 1.0
C      1  0.4669680000000  0.4581110000000  0.5158140000000 1.0
C      1  0.5330890000000  0.4581840000000  0.4841130000000 1.0
C      1  0.5171770000000  0.4811280000000  0.5639300000000 1.0
C      1  0.4828490000000  0.4812160000000  0.4360380000000 1.0
C      1  0.5138770000000  0.5141200000000  0.5639050000000 1.0
C      1  0.4861030000000  0.5142120000000  0.4361200000000 1.0
C      1  0.4859760000000  0.4857690000000  0.5638480000000 1.0
C      1  0.5140430000000  0.4858990000000  0.4361270000000 1.0
C      1  0.4826760000000  0.5187600000000  0.5639230000000 1.0
C      1  0.5172980000000  0.5188950000000  0.4361100000000 1.0
C      1  0.5118430000000  0.5158790000000  0.5193330000000 1.0
C      1  0.4881350000000  0.5158970000000  0.4806950000000 1.0
C      1  0.5191160000000  0.4840400000000  0.5195160000000 1.0
C      1  0.4809060000000  0.4840480000000  0.4804560000000 1.0
C      1  0.4808390000000  0.5159260000000  0.5195000000000 1.0
C      1  0.5191390000000  0.5159860000000  0.4805280000000 1.0
C      1  0.4881130000000  0.4840870000000  0.5192780000000 1.0
C      1  0.5119090000000  0.4841370000000  0.4806950000000 1.0
C      1  0.5353650000000  0.4642800000000  0.5495630000000 1.0
C      1  0.4646840000000  0.4643180000000  0.4503750000000 1.0
C      1  0.5324850000000  0.5312180000000  0.5490220000000 1.0
C      1  0.4674720000000  0.5312590000000  0.4510320000000 1.0
C      1  0.4674020000000  0.4686970000000  0.5488930000000 1.0
C      1  0.5326400000000  0.4688260000000  0.4510530000000 1.0
C      1  0.4645220000000  0.5356340000000  0.5495440000000 1.0
C      1  0.5354300000000  0.5357680000000  0.4505180000000 1.0
C      1  0.4533560000000  0.5121940000000  0.4747110000000 1.0
C      1  0.5466280000000  0.5122130000000  0.5253100000000 1.0
C      1  0.4466650000000  0.4825210000000  0.4725930000000 1.0
C      1  0.5533590000000  0.4825460000000  0.5273770000000 1.0
C      1  0.5533980000000  0.5175270000000  0.4727460000000 1.0
C      1  0.4465790000000  0.5174070000000  0.5272850000000 1.0
C      1  0.5467020000000  0.4878500000000  0.4747970000000 1.0
C      1  0.4533140000000  0.4877430000000  0.5251810000000 1.0
END
