TITL C-2782232-2968-346 0.0154878867693334 125000 -520.42984945692 0 0 89 (C1) n - 1
REM
REM in /home/nfs/bkarasulu/CARBON/AIRSS/Generating-Clusters/REBO/Higher-Symm/SD-CG/HFTN-CG
REM
REM
REM
REM
REM
REM ./C.cell (12c818d87b63d06a65506943cc24bca4)
REM
REM compiler GCC version 9.2.1 20190827 (Red Hat 9.2.1-1)
REM options -cpp -mtune=generic -march=x86-64 -g -O0 -fpre-include=/usr/include/finclude/math-vector-fortran.h
REM seed 1075983980 -1547080112 -1749720359 43569109 1064501313 2138889601 -489174947 1400902249 37215546 -713360078 -439362920 1848903028 2048962308 1532610206 -157860358 1201856897 -665564126 -1366484178 -2030736967 -1788450523 915472237 96325520 -1808441080 -2097230468 -173741024 1688916411 1110527724 -472717993 1316254273 -2002448523 1419334484 -2039557480 1171879323
REM
CELL 1.54180   50.00000   50.00000   50.00000   90.00000   90.00000   90.00000
LATT -1
SFAC C  
C      1  0.4443390000000  0.4615620000000  0.5167710000000 1.0
C      1  0.4902160000000  0.4422200000000  0.5654590000000 1.0
C      1  0.5620150000000  0.4486320000000  0.5309830000000 1.0
C      1  0.5503980000000  0.4460640000000  0.4560730000000 1.0
C      1  0.4737470000000  0.4481080000000  0.4423400000000 1.0
C      1  0.4482640000000  0.5575830000000  0.5257340000000 1.0
C      1  0.4840980000000  0.5448070000000  0.5584430000000 1.0
C      1  0.5596750000000  0.5488330000000  0.5190220000000 1.0
C      1  0.5386200000000  0.5428070000000  0.4386790000000 1.0
C      1  0.4677640000000  0.5501120000000  0.4498240000000 1.0
C      1  0.4593870000000  0.4505310000000  0.4720130000000 1.0
C      1  0.4627510000000  0.4404680000000  0.5357870000000 1.0
C      1  0.5198290000000  0.4469210000000  0.5511480000000 1.0
C      1  0.5552840000000  0.4496590000000  0.4989570000000 1.0
C      1  0.5172060000000  0.4497850000000  0.4507460000000 1.0
C      1  0.4632390000000  0.5673790000000  0.4794980000000 1.0
C      1  0.4561280000000  0.5473960000000  0.5514710000000 1.0
C      1  0.5081830000000  0.5605330000000  0.5404950000000 1.0
C      1  0.5498810000000  0.5608620000000  0.4886440000000 1.0
C      1  0.5118970000000  0.5639300000000  0.4366260000000 1.0
C      1  0.4616020000000  0.5189480000000  0.4376750000000 1.0
C      1  0.4303920000000  0.5384550000000  0.5128090000000 1.0
C      1  0.4901300000000  0.5148140000000  0.5703320000000 1.0
C      1  0.5610400000000  0.5223550000000  0.5326450000000 1.0
C      1  0.5506970000000  0.5169240000000  0.4457690000000 1.0
C      1  0.4757350000000  0.4740400000000  0.4307910000000 1.0
C      1  0.4336490000000  0.4895560000000  0.5131710000000 1.0
C      1  0.4779850000000  0.4674180000000  0.5703340000000 1.0
C      1  0.5623100000000  0.4746210000000  0.5422430000000 1.0
C      1  0.5632270000000  0.4716050000000  0.4562510000000 1.0
C      1  0.4836650000000  0.4752690000000  0.5188970000000 1.0
C      1  0.5177150000000  0.4747360000000  0.5219470000000 1.0
C      1  0.5299950000000  0.4834500000000  0.4910980000000 1.0
C      1  0.5027210000000  0.4898230000000  0.4712260000000 1.0
C      1  0.4746480000000  0.4915330000000  0.4903660000000 1.0
C      1  0.4810140000000  0.5203500000000  0.5210890000000 1.0
C      1  0.5143220000000  0.5141150000000  0.5175610000000 1.0
C      1  0.5254410000000  0.5227190000000  0.4867920000000 1.0
C      1  0.4974280000000  0.5294270000000  0.4695670000000 1.0
C      1  0.4702730000000  0.5294460000000  0.4900470000000 1.0
C      1  0.4425160000000  0.4605620000000  0.5535690000000 1.0
C      1  0.5232900000000  0.4735760000000  0.5724870000000 1.0
C      1  0.5771030000000  0.4754280000000  0.5050970000000 1.0
C      1  0.5253140000000  0.4748030000000  0.4286890000000 1.0
C      1  0.4410740000000  0.4770690000000  0.4632660000000 1.0
C      1  0.4393070000000  0.5192550000000  0.5565080000000 1.0
C      1  0.5206240000000  0.5355410000000  0.5600890000000 1.0
C      1  0.5730860000000  0.5359730000000  0.4873910000000 1.0
C      1  0.5076630000000  0.5354360000000  0.4204940000000 1.0
C      1  0.4364690000000  0.5506100000000  0.4612350000000 1.0
C      1  0.4663620000000  0.5719190000000  0.5087000000000 1.0
C      1  0.4935200000000  0.5796860000000  0.5162620000000 1.0
C      1  0.5305650000000  0.5662480000000  0.5162810000000 1.0
C      1  0.5329730000000  0.5658790000000  0.4632610000000 1.0
C      1  0.4931970000000  0.5686910000000  0.4634170000000 1.0
C      1  0.4693800000000  0.4420360000000  0.5023790000000 1.0
C      1  0.4941440000000  0.4325370000000  0.5330840000000 1.0
C      1  0.5314940000000  0.4373150000000  0.5206100000000 1.0
C      1  0.5291860000000  0.4381080000000  0.4809310000000 1.0
C      1  0.4912810000000  0.4373870000000  0.4692960000000 1.0
C      1  0.5125760000000  0.5157960000000  0.3988450000000 1.0
C      1  0.4186070000000  0.5264420000000  0.4523490000000 1.0
C      1  0.4267950000000  0.4996710000000  0.5765600000000 1.0
C      1  0.5273020000000  0.5239890000000  0.5869020000000 1.0
C      1  0.5981750000000  0.5214680000000  0.4924160000000 1.0
C      1  0.5165210000000  0.4910330000000  0.4019280000000 1.0
C      1  0.4195960000000  0.5017760000000  0.4550610000000 1.0
C      1  0.4265580000000  0.4745060000000  0.5730770000000 1.0
C      1  0.5320960000000  0.4993950000000  0.5920670000000 1.0
C      1  0.6012050000000  0.4973150000000  0.4990760000000 1.0
C      1  0.5585910000000  0.4858740000000  0.4824560000000 1.0
C      1  0.5001720000000  0.4890000000000  0.4406720000000 1.0
C      1  0.4445680000000  0.4991230000000  0.4861670000000 1.0
C      1  0.4680070000000  0.4798610000000  0.5431290000000 1.0
C      1  0.5336880000000  0.4839260000000  0.5453050000000 1.0
C      1  0.5520240000000  0.5161350000000  0.4763860000000 1.0
C      1  0.4929360000000  0.5199240000000  0.4424190000000 1.0
C      1  0.4404090000000  0.5308410000000  0.4855350000000 1.0
C      1  0.4688410000000  0.5099510000000  0.5462860000000 1.0
C      1  0.5326730000000  0.5147590000000  0.5409840000000 1.0
C      1  0.5768200000000  0.4980570000000  0.5306160000000 1.0
C      1  0.4955050000000  0.4884060000000  0.5809340000000 1.0
C      1  0.4532800000000  0.4913230000000  0.4363800000000 1.0
C      1  0.4269090000000  0.5141030000000  0.5281360000000 1.0
C      1  0.5518120000000  0.4891890000000  0.4365740000000 1.0
C      1  0.5139420000000  0.5783600000000  0.4888160000000 1.0
C      1  0.5022740000000  0.4270530000000  0.5019110000000 1.0
C      1  0.5031380000000  0.4656690000000  0.4934580000000 1.0
C      1  0.5008340000000  0.5435170000000  0.5023190000000 1.0
END
