TITL C-2782225-7408-545 0.00177215901757127 125000 -964.772963480216 0 0 167 (C1) n - 1
REM
REM in /home/nfs/bkarasulu/CARBON/AIRSS/Generating-Clusters/REBO/Higher-Symm/SD-CG/HFTN-CG
REM
REM
REM
REM
REM
REM ./C.cell (12c818d87b63d06a65506943cc24bca4)
REM
REM compiler GCC version 9.2.1 20190827 (Red Hat 9.2.1-1)
REM options -cpp -mtune=generic -march=x86-64 -g -O0 -fpre-include=/usr/include/finclude/math-vector-fortran.h
REM seed -961299472 -918012147 -94018243 -1726634762 860578034 -1755424328 1097322359 1078805813 1793237701 -1465552704 467753519 -1117574049 -184269060 125801530 -606043415 1425844453 -925726717 -1715921428 -1752993212 1701512153 2086711695 -917701492 2115797421 -935414263 2079335797 1425864082 -1228584900 -1732533091 56827226 -1165734444 -1178488659 -922674988 -53830830
REM
CELL 1.54180   50.00000   50.00000   50.00000   90.00000   90.00000   90.00000
LATT -1
SFAC C  
C      1  0.4335680000000  0.5043290000000  0.4709990000000 1.0
C      1  0.4316290000000  0.5046120000000  0.5396070000000 1.0
C      1  0.4883470000000  0.5087080000000  0.5753560000000 1.0
C      1  0.5518650000000  0.5008820000000  0.5581780000000 1.0
C      1  0.5604570000000  0.5164330000000  0.4916280000000 1.0
C      1  0.5325040000000  0.5135370000000  0.4462950000000 1.0
C      1  0.4790180000000  0.5171100000000  0.4326320000000 1.0
C      1  0.4687650000000  0.4844700000000  0.5081180000000 1.0
C      1  0.4914960000000  0.4822420000000  0.5322690000000 1.0
C      1  0.5226580000000  0.4881870000000  0.5316790000000 1.0
C      1  0.5381400000000  0.4781400000000  0.5078490000000 1.0
C      1  0.5265290000000  0.4771610000000  0.4764820000000 1.0
C      1  0.4970610000000  0.4790100000000  0.4611440000000 1.0
C      1  0.4725370000000  0.4877140000000  0.4779520000000 1.0
C      1  0.5764330000000  0.5881640000000  0.5068120000000 1.0
C      1  0.5493650000000  0.5817540000000  0.4524790000000 1.0
C      1  0.4969810000000  0.5882530000000  0.4282430000000 1.0
C      1  0.4450930000000  0.5815890000000  0.4557150000000 1.0
C      1  0.4351730000000  0.5788940000000  0.5170320000000 1.0
C      1  0.4828720000000  0.5814090000000  0.5549900000000 1.0
C      1  0.5394500000000  0.5873140000000  0.5571030000000 1.0
C      1  0.5069570000000  0.5323340000000  0.5494070000000 1.0
C      1  0.5334430000000  0.5631550000000  0.5263330000000 1.0
C      1  0.5475830000000  0.5540640000000  0.4904170000000 1.0
C      1  0.5123360000000  0.5448370000000  0.4607420000000 1.0
C      1  0.4671310000000  0.5580740000000  0.4526080000000 1.0
C      1  0.4527420000000  0.5298090000000  0.5008670000000 1.0
C      1  0.4775390000000  0.5498470000000  0.5525010000000 1.0
C      1  0.4670560000000  0.4400630000000  0.6042380000000 1.0
C      1  0.5482260000000  0.4492350000000  0.5851990000000 1.0
C      1  0.6021050000000  0.4410430000000  0.5121660000000 1.0
C      1  0.5728820000000  0.4455520000000  0.4295980000000 1.0
C      1  0.4867010000000  0.4394460000000  0.3921600000000 1.0
C      1  0.4191470000000  0.4541760000000  0.4469130000000 1.0
C      1  0.4052970000000  0.4532850000000  0.5300830000000 1.0
C      1  0.5267090000000  0.4701590000000  0.5564460000000 1.0
C      1  0.5695850000000  0.4757650000000  0.5131680000000 1.0
C      1  0.5509110000000  0.4773030000000  0.4570780000000 1.0
C      1  0.4973570000000  0.4774460000000  0.4292580000000 1.0
C      1  0.4526300000000  0.4706340000000  0.4612390000000 1.0
C      1  0.4385760000000  0.4749980000000  0.5141060000000 1.0
C      1  0.4727320000000  0.4760560000000  0.5589540000000 1.0
C      1  0.5591990000000  0.4746780000000  0.5790060000000 1.0
C      1  0.6071640000000  0.4650740000000  0.4997160000000 1.0
C      1  0.5656910000000  0.4693790000000  0.4175690000000 1.0
C      1  0.4739380000000  0.4637840000000  0.3944030000000 1.0
C      1  0.4142860000000  0.4800700000000  0.4563820000000 1.0
C      1  0.4108200000000  0.4778440000000  0.5434850000000 1.0
C      1  0.4809710000000  0.4632480000000  0.6095300000000 1.0
C      1  0.5866420000000  0.4853010000000  0.5690140000000 1.0
C      1  0.6010630000000  0.4871260000000  0.4842100000000 1.0
C      1  0.5494450000000  0.4909840000000  0.4112790000000 1.0
C      1  0.4622370000000  0.4842190000000  0.4064160000000 1.0
C      1  0.3964800000000  0.4922240000000  0.4783610000000 1.0
C      1  0.4172430000000  0.4893290000000  0.5729240000000 1.0
C      1  0.4975660000000  0.4832980000000  0.6044740000000 1.0
C      1  0.5642850000000  0.4608710000000  0.4830150000000 1.0
C      1  0.5266710000000  0.4643790000000  0.4385910000000 1.0
C      1  0.4709900000000  0.4591910000000  0.4382050000000 1.0
C      1  0.4400950000000  0.4557820000000  0.4874640000000 1.0
C      1  0.4481270000000  0.4635440000000  0.5428390000000 1.0
C      1  0.4991150000000  0.4584310000000  0.5650940000000 1.0
C      1  0.5545070000000  0.4603210000000  0.5395010000000 1.0
C      1  0.4902710000000  0.6115830000000  0.5276300000000 1.0
C      1  0.5192570000000  0.6239630000000  0.5201200000000 1.0
C      1  0.5301300000000  0.6078940000000  0.4977950000000 1.0
C      1  0.5135720000000  0.6011420000000  0.4772480000000 1.0
C      1  0.4859660000000  0.6123020000000  0.4699990000000 1.0
C      1  0.4584950000000  0.6242330000000  0.4817710000000 1.0
C      1  0.4612350000000  0.6227890000000  0.5156620000000 1.0
C      1  0.5000840000000  0.4470590000000  0.4627920000000 1.0
C      1  0.4748650000000  0.4385340000000  0.4793450000000 1.0
C      1  0.4642080000000  0.4448760000000  0.5089880000000 1.0
C      1  0.4833480000000  0.4505260000000  0.5293290000000 1.0
C      1  0.5125010000000  0.4376730000000  0.5288950000000 1.0
C      1  0.5354960000000  0.4463900000000  0.5072290000000 1.0
C      1  0.5261320000000  0.4374520000000  0.4781160000000 1.0
C      1  0.4654380000000  0.4015190000000  0.5203900000000 1.0
C      1  0.4935720000000  0.4036990000000  0.5381450000000 1.0
C      1  0.5249700000000  0.3999070000000  0.5275990000000 1.0
C      1  0.5362760000000  0.3998430000000  0.4963220000000 1.0
C      1  0.5187530000000  0.3997760000000  0.4675870000000 1.0
C      1  0.4856370000000  0.4034760000000  0.4637140000000 1.0
C      1  0.4615410000000  0.4016390000000  0.4868200000000 1.0
C      1  0.5451280000000  0.4262540000000  0.5679500000000 1.0
C      1  0.5805610000000  0.4237650000000  0.5059300000000 1.0
C      1  0.5548100000000  0.4272570000000  0.4416290000000 1.0
C      1  0.4879300000000  0.4213120000000  0.4138920000000 1.0
C      1  0.4278020000000  0.4301430000000  0.4593370000000 1.0
C      1  0.4215770000000  0.4290220000000  0.5282330000000 1.0
C      1  0.4720790000000  0.4225030000000  0.5826570000000 1.0
C      1  0.5799140000000  0.5287750000000  0.4584920000000 1.0
C      1  0.5143410000000  0.5310590000000  0.4100940000000 1.0
C      1  0.4404730000000  0.5268350000000  0.4333490000000 1.0
C      1  0.4139960000000  0.5288500000000  0.5117540000000 1.0
C      1  0.4532320000000  0.5280860000000  0.5801530000000 1.0
C      1  0.5300770000000  0.5226710000000  0.5836780000000 1.0
C      1  0.5798620000000  0.5285330000000  0.5377570000000 1.0
C      1  0.5194670000000  0.4121950000000  0.5588550000000 1.0
C      1  0.5566610000000  0.4106920000000  0.5213510000000 1.0
C      1  0.5514840000000  0.4093420000000  0.4673220000000 1.0
C      1  0.5064240000000  0.4148140000000  0.4395640000000 1.0
C      1  0.4540870000000  0.4144950000000  0.4561240000000 1.0
C      1  0.4348730000000  0.4081510000000  0.5070330000000 1.0
C      1  0.4646820000000  0.4146130000000  0.5518950000000 1.0
C      1  0.5176860000000  0.4913500000000  0.5781660000000 1.0
C      1  0.5777700000000  0.4943410000000  0.5371090000000 1.0
C      1  0.5726310000000  0.4968670000000  0.4682940000000 1.0
C      1  0.5176290000000  0.4989020000000  0.4207390000000 1.0
C      1  0.4533460000000  0.4950660000000  0.4375110000000 1.0
C      1  0.4209630000000  0.4970500000000  0.5019300000000 1.0
C      1  0.4504900000000  0.4967440000000  0.5672290000000 1.0
C      1  0.5585030000000  0.5344730000000  0.4385920000000 1.0
C      1  0.4844460000000  0.5373290000000  0.4054480000000 1.0
C      1  0.4229440000000  0.5337590000000  0.4586680000000 1.0
C      1  0.4176920000000  0.5341030000000  0.5423150000000 1.0
C      1  0.4793100000000  0.5359670000000  0.5945400000000 1.0
C      1  0.5569760000000  0.5311020000000  0.5703520000000 1.0
C      1  0.5854510000000  0.5322170000000  0.5087480000000 1.0
C      1  0.5872530000000  0.5162050000000  0.5687350000000 1.0
C      1  0.6018340000000  0.5186240000000  0.4829180000000 1.0
C      1  0.5473490000000  0.5224720000000  0.4104300000000 1.0
C      1  0.4572690000000  0.5171370000000  0.4049620000000 1.0
C      1  0.3998080000000  0.5231530000000  0.4811870000000 1.0
C      1  0.4204010000000  0.5214740000000  0.5738150000000 1.0
C      1  0.5044130000000  0.5166320000000  0.6055240000000 1.0
C      1  0.4210460000000  0.4298310000000  0.4884300000000 1.0
C      1  0.4434220000000  0.4358570000000  0.5452670000000 1.0
C      1  0.4968580000000  0.4307310000000  0.5690760000000 1.0
C      1  0.5588810000000  0.4322530000000  0.5438020000000 1.0
C      1  0.5677120000000  0.4327340000000  0.4821380000000 1.0
C      1  0.5284070000000  0.4362020000000  0.4367390000000 1.0
C      1  0.4702540000000  0.4311140000000  0.4352050000000 1.0
C      1  0.4582100000000  0.6109990000000  0.4501640000000 1.0
C      1  0.4374480000000  0.6066520000000  0.4996550000000 1.0
C      1  0.4635060000000  0.6071960000000  0.5458040000000 1.0
C      1  0.5175070000000  0.5924830000000  0.5330280000000 1.0
C      1  0.5449890000000  0.5835450000000  0.5040480000000 1.0
C      1  0.5222910000000  0.5756360000000  0.4664310000000 1.0
C      1  0.4850260000000  0.5825860000000  0.4571580000000 1.0
C      1  0.4435300000000  0.5487530000000  0.5560730000000 1.0
C      1  0.5075800000000  0.5465410000000  0.5792160000000 1.0
C      1  0.5579430000000  0.5519940000000  0.5466190000000 1.0
C      1  0.5785160000000  0.5506570000000  0.4816650000000 1.0
C      1  0.5290010000000  0.5503860000000  0.4323080000000 1.0
C      1  0.4589040000000  0.5532370000000  0.4214930000000 1.0
C      1  0.4290910000000  0.5485540000000  0.4886840000000 1.0
C      1  0.4579650000000  0.5100430000000  0.5244110000000 1.0
C      1  0.4775950000000  0.5174120000000  0.5452350000000 1.0
C      1  0.5295620000000  0.5172410000000  0.5385270000000 1.0
C      1  0.5415850000000  0.5320430000000  0.5156210000000 1.0
C      1  0.5325050000000  0.5265720000000  0.4771200000000 1.0
C      1  0.4837170000000  0.5337650000000  0.4581600000000 1.0
C      1  0.4651060000000  0.5169950000000  0.4749640000000 1.0
C      1  0.4501630000000  0.5771750000000  0.5433210000000 1.0
C      1  0.5114740000000  0.5762400000000  0.5688620000000 1.0
C      1  0.5659940000000  0.5832380000000  0.5379510000000 1.0
C      1  0.5709060000000  0.5817350000000  0.4737280000000 1.0
C      1  0.5257550000000  0.5816800000000  0.4274620000000 1.0
C      1  0.4624270000000  0.5870740000000  0.4256370000000 1.0
C      1  0.4329280000000  0.5785950000000  0.4829170000000 1.0
C      1  0.5001690000000  0.4311630000000  0.4989530000000 1.0
C      1  0.5041540000000  0.4997740000000  0.4986590000000 1.0
C      1  0.4877210000000  0.5769930000000  0.5115860000000 1.0
C      1  0.4937540000000  0.5518070000000  0.5065530000000 1.0
C      1  0.5020670000000  0.4657590000000  0.4978350000000 1.0
C      1  0.4997100000000  0.5260570000000  0.5021590000000 1.0
END
