TITL C-2782227-3064-511 -0.15454939068016 125000 -548.382836551071 0 0 92 (C1) n - 1
REM
REM in /home/nfs/bkarasulu/CARBON/AIRSS/Generating-Clusters/REBO/Higher-Symm/SD-CG/HFTN-CG
REM
REM
REM
REM
REM
REM ./C.cell (12c818d87b63d06a65506943cc24bca4)
REM
REM compiler GCC version 9.2.1 20190827 (Red Hat 9.2.1-1)
REM options -cpp -mtune=generic -march=x86-64 -g -O0 -fpre-include=/usr/include/finclude/math-vector-fortran.h
REM seed -53533213 2059106314 902590083 545916798 -12175833 -1634836558 93249175 1745169393 604648053 -389288537 1559944007 -1325169079 -964631928 -2062959886 -907419586 1513532267 -1433631257 -1122703109 -938087699 -1976359016 379538871 -510552015 -399650840 615687304 1005722876 -1769835252 -680649718 192629785 -1376890741 -1301879236 -1082187508 1597763320 -1502489497
REM
CELL 1.54180   50.00000   50.00000   50.00000   90.00000   90.00000   90.00000
LATT -1
SFAC C  
C      1  0.5063970000000  0.4505020000000  0.4199000000000 1.0
C      1  0.4995440000000  0.5529690000000  0.5765500000000 1.0
C      1  0.4937700000000  0.5496970000000  0.4191180000000 1.0
C      1  0.4977270000000  0.4481050000000  0.5774910000000 1.0
C      1  0.5303730000000  0.4690230000000  0.4928200000000 1.0
C      1  0.5313510000000  0.5354220000000  0.5115520000000 1.0
C      1  0.4692740000000  0.5323790000000  0.4955210000000 1.0
C      1  0.4664560000000  0.4672930000000  0.5055960000000 1.0
C      1  0.4139480000000  0.4699630000000  0.5012340000000 1.0
C      1  0.4044620000000  0.5370650000000  0.4986200000000 1.0
C      1  0.5855160000000  0.5243300000000  0.5006130000000 1.0
C      1  0.5964560000000  0.4524310000000  0.4909030000000 1.0
C      1  0.5391220000000  0.4484640000000  0.4591540000000 1.0
C      1  0.5383680000000  0.5505660000000  0.5418510000000 1.0
C      1  0.4624020000000  0.5515680000000  0.4591550000000 1.0
C      1  0.4612300000000  0.4494220000000  0.5418390000000 1.0
C      1  0.4788590000000  0.4463440000000  0.4817840000000 1.0
C      1  0.4791670000000  0.5523000000000  0.5208560000000 1.0
C      1  0.5240490000000  0.5517830000000  0.4826050000000 1.0
C      1  0.5235780000000  0.4515370000000  0.5209400000000 1.0
C      1  0.5730860000000  0.4788790000000  0.5632780000000 1.0
C      1  0.5636210000000  0.5230480000000  0.4455110000000 1.0
C      1  0.4278990000000  0.5168040000000  0.5482190000000 1.0
C      1  0.4372420000000  0.4777520000000  0.4475210000000 1.0
C      1  0.4857620000000  0.4910060000000  0.5083000000000 1.0
C      1  0.4925340000000  0.5170230000000  0.4796650000000 1.0
C      1  0.5091780000000  0.5142460000000  0.5099560000000 1.0
C      1  0.5075270000000  0.4868920000000  0.4817810000000 1.0
C      1  0.5716450000000  0.4562800000000  0.5045200000000 1.0
C      1  0.5708680000000  0.5518220000000  0.4935350000000 1.0
C      1  0.4295010000000  0.5547810000000  0.5074670000000 1.0
C      1  0.4317170000000  0.4459620000000  0.4916310000000 1.0
C      1  0.5602720000000  0.5148130000000  0.5745890000000 1.0
C      1  0.5629930000000  0.4956310000000  0.4373960000000 1.0
C      1  0.4390400000000  0.4888370000000  0.5760440000000 1.0
C      1  0.4375430000000  0.5050430000000  0.4392320000000 1.0
C      1  0.4515490000000  0.5259190000000  0.5608220000000 1.0
C      1  0.4558400000000  0.4586570000000  0.4339650000000 1.0
C      1  0.5480520000000  0.4691650000000  0.5657250000000 1.0
C      1  0.5445830000000  0.5423890000000  0.4327290000000 1.0
C      1  0.4658300000000  0.4838740000000  0.5736590000000 1.0
C      1  0.4636980000000  0.5140840000000  0.4317280000000 1.0
C      1  0.5332990000000  0.5182870000000  0.5751510000000 1.0
C      1  0.5365300000000  0.4863970000000  0.4315710000000 1.0
C      1  0.4382670000000  0.4761770000000  0.4784580000000 1.0
C      1  0.4286480000000  0.5232250000000  0.5174910000000 1.0
C      1  0.5629820000000  0.5242870000000  0.4762150000000 1.0
C      1  0.5647390000000  0.4831240000000  0.5113130000000 1.0
C      1  0.5329240000000  0.4311080000000  0.4807510000000 1.0
C      1  0.5316630000000  0.5738090000000  0.5217720000000 1.0
C      1  0.4705980000000  0.5690620000000  0.4797340000000 1.0
C      1  0.4709150000000  0.4313160000000  0.5222990000000 1.0
C      1  0.4542400000000  0.4305460000000  0.4967730000000 1.0
C      1  0.4535680000000  0.5676400000000  0.5048230000000 1.0
C      1  0.5485710000000  0.5684430000000  0.4973350000000 1.0
C      1  0.5499990000000  0.4372930000000  0.5056910000000 1.0
C      1  0.4758830000000  0.5238980000000  0.5375150000000 1.0
C      1  0.4741960000000  0.4702930000000  0.4608610000000 1.0
C      1  0.5263330000000  0.4758210000000  0.5413150000000 1.0
C      1  0.5270180000000  0.5310500000000  0.4601050000000 1.0
C      1  0.5803640000000  0.5078680000000  0.5489030000000 1.0
C      1  0.5809240000000  0.4771770000000  0.4535170000000 1.0
C      1  0.4211490000000  0.4859630000000  0.5497750000000 1.0
C      1  0.4199550000000  0.5227930000000  0.4561350000000 1.0
C      1  0.5199360000000  0.4651990000000  0.5791080000000 1.0
C      1  0.5173510000000  0.5347310000000  0.4217400000000 1.0
C      1  0.4777080000000  0.5356400000000  0.5755190000000 1.0
C      1  0.4829780000000  0.4657240000000  0.4223640000000 1.0
C      1  0.4862630000000  0.4939820000000  0.4385020000000 1.0
C      1  0.4854630000000  0.5051480000000  0.5645330000000 1.0
C      1  0.5142940000000  0.5068170000000  0.4384430000000 1.0
C      1  0.5144700000000  0.4956870000000  0.5665690000000 1.0
C      1  0.4467380000000  0.5271440000000  0.4712760000000 1.0
C      1  0.4434140000000  0.4726140000000  0.5291380000000 1.0
C      1  0.5544410000000  0.4740080000000  0.4699220000000 1.0
C      1  0.5548260000000  0.5229100000000  0.5328980000000 1.0
C      1  0.4709040000000  0.5418870000000  0.4338190000000 1.0
C      1  0.4733290000000  0.4571760000000  0.5661220000000 1.0
C      1  0.5295330000000  0.4584890000000  0.4340660000000 1.0
C      1  0.5248250000000  0.5444280000000  0.5676630000000 1.0
C      1  0.5369440000000  0.5023550000000  0.4728000000000 1.0
C      1  0.5364370000000  0.4970030000000  0.5207210000000 1.0
C      1  0.4637450000000  0.4987500000000  0.4749970000000 1.0
C      1  0.4558430000000  0.5029410000000  0.5197450000000 1.0
C      1  0.4980450000000  0.5694260000000  0.4859770000000 1.0
C      1  0.4986920000000  0.4325660000000  0.5168280000000 1.0
C      1  0.5053450000000  0.4299110000000  0.4871560000000 1.0
C      1  0.5039660000000  0.5727630000000  0.5157460000000 1.0
C      1  0.6021590000000  0.4644160000000  0.4665480000000 1.0
C      1  0.5855230000000  0.5025030000000  0.5177300000000 1.0
C      1  0.3981970000000  0.5297800000000  0.4722380000000 1.0
C      1  0.4038380000000  0.4763530000000  0.5249560000000 1.0
END
