TITL C-2782231-7322-250 0.00771541751667823 125000 -700.747771459129 0 0 122 (C1) n - 1
REM
REM in /home/nfs/bkarasulu/CARBON/AIRSS/Generating-Clusters/REBO/Higher-Symm/SD-CG/HFTN-CG
REM
REM
REM
REM
REM
REM ./C.cell (12c818d87b63d06a65506943cc24bca4)
REM
REM compiler GCC version 9.2.1 20190827 (Red Hat 9.2.1-1)
REM options -cpp -mtune=generic -march=x86-64 -g -O0 -fpre-include=/usr/include/finclude/math-vector-fortran.h
REM seed 253302189 414807095 -2067348822 542936870 22474935 -2067678044 -1109489326 -1060885214 1933718108 -1940076107 -2111617779 -1510223155 307658172 -229139119 -1995939917 1310582885 -929707527 -919338471 1947681347 -1197704341 -815683946 548586985 -1414053383 941274836 550706064 1020245773 -733047921 1578719128 2105633853 -495295887 43293447 1286371053 -1408516809
REM
CELL 1.54180   50.00000   50.00000   50.00000   90.00000   90.00000   90.00000
LATT -1
SFAC C  
C      1  0.4046460000000  0.4919080000000  0.5195310000000 1.0
C      1  0.6017760000000  0.4897310000000  0.5186340000000 1.0
C      1  0.4862430000000  0.5493870000000  0.4672240000000 1.0
C      1  0.5139740000000  0.5545460000000  0.4555340000000 1.0
C      1  0.4869280000000  0.4663600000000  0.5321850000000 1.0
C      1  0.5171580000000  0.4667170000000  0.5221810000000 1.0
C      1  0.5145220000000  0.4247820000000  0.4319490000000 1.0
C      1  0.4863410000000  0.4242770000000  0.4214370000000 1.0
C      1  0.5235490000000  0.5357030000000  0.5419920000000 1.0
C      1  0.4739930000000  0.5317190000000  0.5486920000000 1.0
C      1  0.5291080000000  0.5068350000000  0.5603350000000 1.0
C      1  0.4714670000000  0.5004610000000  0.5615210000000 1.0
C      1  0.4474780000000  0.5123510000000  0.4140530000000 1.0
C      1  0.5430910000000  0.5123890000000  0.4171910000000 1.0
C      1  0.4161800000000  0.4885130000000  0.4498420000000 1.0
C      1  0.5792070000000  0.4867410000000  0.4498160000000 1.0
C      1  0.4465980000000  0.4222240000000  0.4965120000000 1.0
C      1  0.5506320000000  0.4273460000000  0.5015380000000 1.0
C      1  0.4560970000000  0.4695250000000  0.4910460000000 1.0
C      1  0.5474510000000  0.4689220000000  0.4962080000000 1.0
C      1  0.5154470000000  0.4112980000000  0.4919740000000 1.0
C      1  0.4836250000000  0.4117630000000  0.4857930000000 1.0
C      1  0.4539160000000  0.5343280000000  0.4971750000000 1.0
C      1  0.5538500000000  0.5386460000000  0.4973580000000 1.0
C      1  0.5109890000000  0.4326890000000  0.5421470000000 1.0
C      1  0.4808540000000  0.4277920000000  0.5402970000000 1.0
C      1  0.5160150000000  0.4545230000000  0.5636910000000 1.0
C      1  0.4841950000000  0.4507530000000  0.5653890000000 1.0
C      1  0.4445450000000  0.5241330000000  0.4680300000000 1.0
C      1  0.5611900000000  0.5264000000000  0.4692160000000 1.0
C      1  0.4296720000000  0.4498330000000  0.4995310000000 1.0
C      1  0.5750660000000  0.4493830000000  0.4998450000000 1.0
C      1  0.4765710000000  0.5455250000000  0.5197570000000 1.0
C      1  0.5081360000000  0.5577140000000  0.5207510000000 1.0
C      1  0.5424740000000  0.4629840000000  0.5350220000000 1.0
C      1  0.4565660000000  0.4668590000000  0.5413760000000 1.0
C      1  0.5710790000000  0.5739800000000  0.5044710000000 1.0
C      1  0.4284560000000  0.5773410000000  0.5036930000000 1.0
C      1  0.4727750000000  0.5978340000000  0.5197260000000 1.0
C      1  0.5276300000000  0.5943440000000  0.5242180000000 1.0
C      1  0.5169160000000  0.4808470000000  0.4208750000000 1.0
C      1  0.4850650000000  0.4810320000000  0.4118470000000 1.0
C      1  0.4364150000000  0.4637530000000  0.5689090000000 1.0
C      1  0.5803490000000  0.4753460000000  0.5794800000000 1.0
C      1  0.4309790000000  0.4896420000000  0.4977910000000 1.0
C      1  0.5748940000000  0.4893340000000  0.4984070000000 1.0
C      1  0.5242300000000  0.4517810000000  0.4339170000000 1.0
C      1  0.4780990000000  0.4511860000000  0.4201820000000 1.0
C      1  0.5610410000000  0.5625470000000  0.5297280000000 1.0
C      1  0.4373720000000  0.5686190000000  0.5307260000000 1.0
C      1  0.5282910000000  0.5743740000000  0.4734560000000 1.0
C      1  0.4727030000000  0.5766860000000  0.4747410000000 1.0
C      1  0.5642710000000  0.4822870000000  0.5299450000000 1.0
C      1  0.4433340000000  0.4942210000000  0.5277960000000 1.0
C      1  0.4686350000000  0.5495410000000  0.5839780000000 1.0
C      1  0.5243810000000  0.5484700000000  0.5867030000000 1.0
C      1  0.5548810000000  0.5387520000000  0.4225780000000 1.0
C      1  0.4390720000000  0.5378830000000  0.4252000000000 1.0
C      1  0.4069730000000  0.4627250000000  0.5149270000000 1.0
C      1  0.5996420000000  0.4611320000000  0.5122340000000 1.0
C      1  0.5317130000000  0.4767710000000  0.5709620000000 1.0
C      1  0.4728610000000  0.4733420000000  0.5820870000000 1.0
C      1  0.5576710000000  0.5653000000000  0.4764890000000 1.0
C      1  0.4366590000000  0.5596490000000  0.4833440000000 1.0
C      1  0.4422890000000  0.4411880000000  0.5364800000000 1.0
C      1  0.5498310000000  0.4400060000000  0.5481600000000 1.0
C      1  0.4556460000000  0.4134470000000  0.4658950000000 1.0
C      1  0.5438140000000  0.4118940000000  0.4727160000000 1.0
C      1  0.5428030000000  0.4910820000000  0.4722650000000 1.0
C      1  0.4600300000000  0.4655610000000  0.4618960000000 1.0
C      1  0.4761300000000  0.5091450000000  0.5033120000000 1.0
C      1  0.5389360000000  0.5077220000000  0.5003170000000 1.0
C      1  0.5542840000000  0.4648600000000  0.4534670000000 1.0
C      1  0.4334470000000  0.4613200000000  0.4452720000000 1.0
C      1  0.5543280000000  0.4719180000000  0.5873590000000 1.0
C      1  0.4458260000000  0.4614520000000  0.5961020000000 1.0
C      1  0.5636320000000  0.5497870000000  0.4466230000000 1.0
C      1  0.4351980000000  0.5513200000000  0.4517910000000 1.0
C      1  0.4880190000000  0.5062040000000  0.5322100000000 1.0
C      1  0.5199790000000  0.5060650000000  0.5285130000000 1.0
C      1  0.4933390000000  0.5344050000000  0.4921080000000 1.0
C      1  0.5224200000000  0.5357880000000  0.5020090000000 1.0
C      1  0.4832760000000  0.4991140000000  0.5993470000000 1.0
C      1  0.5099900000000  0.5053480000000  0.6061810000000 1.0
C      1  0.5922490000000  0.5918510000000  0.5039710000000 1.0
C      1  0.4144730000000  0.6002780000000  0.4998460000000 1.0
C      1  0.5846350000000  0.5120530000000  0.5360500000000 1.0
C      1  0.4190260000000  0.5158050000000  0.5390440000000 1.0
C      1  0.5731940000000  0.5385870000000  0.5376320000000 1.0
C      1  0.4254280000000  0.5450190000000  0.5404920000000 1.0
C      1  0.5253840000000  0.4247680000000  0.5201160000000 1.0
C      1  0.4705360000000  0.4188920000000  0.5164270000000 1.0
C      1  0.5802890000000  0.5038740000000  0.4724910000000 1.0
C      1  0.4244900000000  0.5033460000000  0.4722330000000 1.0
C      1  0.5156900000000  0.4072060000000  0.4581760000000 1.0
C      1  0.4832710000000  0.4088290000000  0.4508030000000 1.0
C      1  0.5140770000000  0.4694980000000  0.4889500000000 1.0
C      1  0.4840800000000  0.4777260000000  0.5028230000000 1.0
C      1  0.4693410000000  0.5305990000000  0.4502600000000 1.0
C      1  0.5320240000000  0.5264140000000  0.4529710000000 1.0
C      1  0.4818310000000  0.5346820000000  0.4201630000000 1.0
C      1  0.5144240000000  0.5385270000000  0.4262590000000 1.0
C      1  0.4774280000000  0.5101260000000  0.3980450000000 1.0
C      1  0.5107660000000  0.5111290000000  0.4062780000000 1.0
C      1  0.4270900000000  0.4887720000000  0.5569150000000 1.0
C      1  0.5855320000000  0.4851910000000  0.5547640000000 1.0
C      1  0.5597390000000  0.4410120000000  0.4705440000000 1.0
C      1  0.4326410000000  0.4374350000000  0.4679190000000 1.0
C      1  0.4822570000000  0.5628880000000  0.5574060000000 1.0
C      1  0.5144630000000  0.5622010000000  0.5598610000000 1.0
C      1  0.5111460000000  0.4707110000000  0.4590070000000 1.0
C      1  0.4828880000000  0.4631470000000  0.4474580000000 1.0
C      1  0.5151180000000  0.5011000000000  0.4480080000000 1.0
C      1  0.4856470000000  0.5045960000000  0.4365380000000 1.0
C      1  0.4352750000000  0.4888460000000  0.4244920000000 1.0
C      1  0.5543960000000  0.4906880000000  0.4304550000000 1.0
C      1  0.5378420000000  0.5750870000000  0.5409710000000 1.0
C      1  0.4627260000000  0.5793970000000  0.5387470000000 1.0
C      1  0.5251080000000  0.5211040000000  0.5879920000000 1.0
C      1  0.4685640000000  0.5228180000000  0.5872770000000 1.0
C      1  0.5132590000000  0.5830080000000  0.4985930000000 1.0
C      1  0.4845190000000  0.5913830000000  0.4948190000000 1.0
END
