TITL C-2782237-5345-861 0.006422541964153 125000 -567.158087476006 0 0 98 (C1) n - 1
REM
REM in /home/nfs/bkarasulu/CARBON/AIRSS/Generating-Clusters/REBO/Higher-Symm/SD-CG/HFTN-CG
REM
REM
REM
REM
REM
REM ./C.cell (12c818d87b63d06a65506943cc24bca4)
REM
REM compiler GCC version 9.2.1 20190827 (Red Hat 9.2.1-1)
REM options -cpp -mtune=generic -march=x86-64 -g -O0 -fpre-include=/usr/include/finclude/math-vector-fortran.h
REM seed 78921687 691393147 456525265 -1541680422 288385615 -750075641 -1519036928 -1936837881 -912036911 -1660058146 -1881186456 730480745 -1490990959 1568343519 511502029 -652892422 676616699 -318828932 2088228759 597988370 -1756235253 1908475453 -1564544793 -2071935855 -1415073951 706512734 1833359551 1540930453 -2016471504 -2097461435 -1353514095 -740053599 -700275978
REM
CELL 1.54180   50.00000   50.00000   50.00000   90.00000   90.00000   90.00000
LATT -1
SFAC C  
C      1  0.5676130000000  0.4539450000000  0.5488210000000 1.0
C      1  0.4300280000000  0.4554530000000  0.5327800000000 1.0
C      1  0.4988110000000  0.4568940000000  0.4241190000000 1.0
C      1  0.5051930000000  0.5314520000000  0.4572540000000 1.0
C      1  0.5279080000000  0.5256870000000  0.5291720000000 1.0
C      1  0.4543170000000  0.5350660000000  0.5110180000000 1.0
C      1  0.4289170000000  0.5402340000000  0.4653330000000 1.0
C      1  0.5585580000000  0.5335110000000  0.4536280000000 1.0
C      1  0.5093120000000  0.5340840000000  0.5760180000000 1.0
C      1  0.6340090000000  0.5241480000000  0.5336390000000 1.0
C      1  0.4116150000000  0.5490990000000  0.6115650000000 1.0
C      1  0.4735240000000  0.5269710000000  0.3689700000000 1.0
C      1  0.4160780000000  0.4544320000000  0.4681870000000 1.0
C      1  0.5717930000000  0.4578920000000  0.4383840000000 1.0
C      1  0.5156860000000  0.4515390000000  0.5898240000000 1.0
C      1  0.4775980000000  0.5685970000000  0.5315740000000 1.0
C      1  0.4832020000000  0.5789230000000  0.4575800000000 1.0
C      1  0.5378460000000  0.5728620000000  0.5000140000000 1.0
C      1  0.5219860000000  0.5150600000000  0.5040090000000 1.0
C      1  0.4760000000000  0.5193320000000  0.5233700000000 1.0
C      1  0.4844880000000  0.5188270000000  0.4753700000000 1.0
C      1  0.4467050000000  0.5283890000000  0.5495430000000 1.0
C      1  0.5032400000000  0.5472200000000  0.4210490000000 1.0
C      1  0.5638550000000  0.5380340000000  0.5300950000000 1.0
C      1  0.5927980000000  0.5162170000000  0.5015330000000 1.0
C      1  0.4532150000000  0.5257120000000  0.5888860000000 1.0
C      1  0.4551820000000  0.5163280000000  0.4173660000000 1.0
C      1  0.5141710000000  0.4337070000000  0.4824860000000 1.0
C      1  0.5104430000000  0.4325780000000  0.5147250000000 1.0
C      1  0.4845460000000  0.4334720000000  0.4954740000000 1.0
C      1  0.4291120000000  0.4344720000000  0.4838480000000 1.0
C      1  0.5547690000000  0.4360150000000  0.4437910000000 1.0
C      1  0.5248060000000  0.4322510000000  0.5706590000000 1.0
C      1  0.5236170000000  0.4844020000000  0.5935780000000 1.0
C      1  0.4061030000000  0.4848930000000  0.4751790000000 1.0
C      1  0.5634960000000  0.4890540000000  0.4292180000000 1.0
C      1  0.5098340000000  0.5621070000000  0.4518630000000 1.0
C      1  0.5344820000000  0.5572940000000  0.5288010000000 1.0
C      1  0.4631340000000  0.5626360000000  0.5069970000000 1.0
C      1  0.4739670000000  0.4789710000000  0.5051600000000 1.0
C      1  0.5118630000000  0.4781150000000  0.4763400000000 1.0
C      1  0.5200720000000  0.4786610000000  0.5234800000000 1.0
C      1  0.5083440000000  0.5698890000000  0.5413220000000 1.0
C      1  0.4639690000000  0.5725450000000  0.4803240000000 1.0
C      1  0.5322650000000  0.5721400000000  0.4695450000000 1.0
C      1  0.5712590000000  0.5120920000000  0.4845930000000 1.0
C      1  0.4751090000000  0.5134040000000  0.5769560000000 1.0
C      1  0.4455390000000  0.5107330000000  0.4428080000000 1.0
C      1  0.4582040000000  0.4456880000000  0.4904260000000 1.0
C      1  0.5324400000000  0.4471680000000  0.4627120000000 1.0
C      1  0.5167500000000  0.4435150000000  0.5415130000000 1.0
C      1  0.6135690000000  0.5202140000000  0.5177160000000 1.0
C      1  0.4322480000000  0.5374990000000  0.6003160000000 1.0
C      1  0.4644260000000  0.5216920000000  0.3929740000000 1.0
C      1  0.5647670000000  0.5551470000000  0.5029380000000 1.0
C      1  0.4648030000000  0.5498100000000  0.5548870000000 1.0
C      1  0.4752170000000  0.5589860000000  0.4325430000000 1.0
C      1  0.4900140000000  0.4825030000000  0.4589140000000 1.0
C      1  0.5458110000000  0.4838580000000  0.5114520000000 1.0
C      1  0.4700810000000  0.4799540000000  0.5331500000000 1.0
C      1  0.5455130000000  0.4737770000000  0.4795890000000 1.0
C      1  0.4964680000000  0.4702830000000  0.5469990000000 1.0
C      1  0.4626650000000  0.4746790000000  0.4732390000000 1.0
C      1  0.4922230000000  0.4675760000000  0.5774340000000 1.0
C      1  0.4378370000000  0.4734650000000  0.4551100000000 1.0
C      1  0.5714150000000  0.4781460000000  0.4637300000000 1.0
C      1  0.5324160000000  0.4940870000000  0.4313010000000 1.0
C      1  0.5373230000000  0.4906780000000  0.5659160000000 1.0
C      1  0.4232220000000  0.4936270000000  0.5000750000000 1.0
C      1  0.4854800000000  0.5151920000000  0.5501360000000 1.0
C      1  0.4589230000000  0.5141110000000  0.4672910000000 1.0
C      1  0.5426100000000  0.5132990000000  0.4845740000000 1.0
C      1  0.5793060000000  0.5088640000000  0.4519290000000 1.0
C      1  0.4911470000000  0.4945890000000  0.5920990000000 1.0
C      1  0.4182930000000  0.4979740000000  0.4473460000000 1.0
C      1  0.5115850000000  0.5191110000000  0.4199530000000 1.0
C      1  0.5575600000000  0.5129880000000  0.5527090000000 1.0
C      1  0.4278040000000  0.5103170000000  0.5277480000000 1.0
C      1  0.4380710000000  0.5200530000000  0.4903810000000 1.0
C      1  0.5314710000000  0.5160400000000  0.4544880000000 1.0
C      1  0.5176800000000  0.5125610000000  0.5534410000000 1.0
C      1  0.4367180000000  0.4650550000000  0.5084440000000 1.0
C      1  0.5198090000000  0.4660840000000  0.4380130000000 1.0
C      1  0.5425700000000  0.4628930000000  0.5522450000000 1.0
C      1  0.4503330000000  0.5568830000000  0.4557220000000 1.0
C      1  0.5584710000000  0.5552260000000  0.4712280000000 1.0
C      1  0.4942110000000  0.5555060000000  0.5651930000000 1.0
C      1  0.5610340000000  0.5044720000000  0.5224680000000 1.0
C      1  0.4507100000000  0.4962950000000  0.5447310000000 1.0
C      1  0.4944550000000  0.5023760000000  0.4404010000000 1.0
C      1  0.4782800000000  0.4479080000000  0.4105340000000 1.0
C      1  0.5920910000000  0.4452000000000  0.5454750000000 1.0
C      1  0.4235350000000  0.4461330000000  0.5563980000000 1.0
C      1  0.5377390000000  0.4083340000000  0.5745170000000 1.0
C      1  0.4200420000000  0.4099760000000  0.4923040000000 1.0
C      1  0.5561500000000  0.4099260000000  0.4353990000000 1.0
C      1  0.4940480000000  0.5143650000000  0.5009810000000 1.0
C      1  0.5017070000000  0.4751690000000  0.5019490000000 1.0
END
