TITL C-2782226-7400-673 -5.6271281071582e-07 125000 -315.75812038354 0 0 50 (D5) n - 1
REM
REM in /home/nfs/bkarasulu/CARBON/AIRSS/Generating-Clusters/REBO/Higher-Symm/SD-CG/HFTN-CG
REM
REM
REM
REM
REM
REM ./C.cell (12c818d87b63d06a65506943cc24bca4)
REM
REM compiler GCC version 9.2.1 20190827 (Red Hat 9.2.1-1)
REM options -cpp -mtune=generic -march=x86-64 -g -O0 -fpre-include=/usr/include/finclude/math-vector-fortran.h
REM seed 411068299 227637760 707817346 -151631780 88620852 -818911020 -341706195 -1021932750 1713053698 -1645209869 1525686423 -1944677975 777665417 -382189458 1036624778 609268777 364754090 -1867188545 1174030355 1496905817 -612391485 -437449094 -1321637479 -1603491136 1528445908 1123089215 -231283145 989968743 1974399336 793857742 1563326540 345067225 -627817426
REM
CELL 1.54180   50.00000   50.00000   50.00000   90.00000   90.00000   90.00000
LATT -1
SFAC C  
C      1  0.4654170000000  0.5243490000000  0.4317240000000 1.0
C      1  0.4654190000000  0.4425830000000  0.4557520000000 1.0
C      1  0.4654410000000  0.4401670000000  0.5409420000000 1.0
C      1  0.4654520000000  0.5204410000000  0.5695640000000 1.0
C      1  0.4654370000000  0.5724690000000  0.5020640000000 1.0
C      1  0.5345860000000  0.5243460000000  0.5682760000000 1.0
C      1  0.5345760000000  0.4425790000000  0.5442480000000 1.0
C      1  0.5345530000000  0.4401640000000  0.4590580000000 1.0
C      1  0.5345500000000  0.5204380000000  0.4304360000000 1.0
C      1  0.5345700000000  0.5724650000000  0.4979360000000 1.0
C      1  0.5328130000000  0.5234040000000  0.4906660000000 1.0
C      1  0.5328080000000  0.4983620000000  0.4748500000000 1.0
C      1  0.5328110000000  0.4755810000000  0.4937790000000 1.0
C      1  0.5328190000000  0.4865450000000  0.5212940000000 1.0
C      1  0.5328200000000  0.5161000000000  0.5193690000000 1.0
C      1  0.4671890000000  0.5234070000000  0.5093340000000 1.0
C      1  0.4671920000000  0.4983650000000  0.5251500000000 1.0
C      1  0.4671860000000  0.4755850000000  0.5062210000000 1.0
C      1  0.4671800000000  0.4865480000000  0.4787060000000 1.0
C      1  0.4671820000000  0.5161040000000  0.4806310000000 1.0
C      1  0.4857130000000  0.4761900000000  0.5662500000000 1.0
C      1  0.4857120000000  0.5556470000000  0.5431210000000 1.0
C      1  0.4856900000000  0.5582030000000  0.4604050000000 1.0
C      1  0.4856790000000  0.4803250000000  0.4324130000000 1.0
C      1  0.4856930000000  0.4296390000000  0.4978290000000 1.0
C      1  0.5142840000000  0.4761880000000  0.4337500000000 1.0
C      1  0.5142940000000  0.5556450000000  0.4568790000000 1.0
C      1  0.5143160000000  0.5582020000000  0.5395950000000 1.0
C      1  0.5143190000000  0.4803240000000  0.5675870000000 1.0
C      1  0.5142990000000  0.4296370000000  0.5021710000000 1.0
C      1  0.5296860000000  0.5336220000000  0.5421060000000 1.0
C      1  0.5296710000000  0.5504420000000  0.4810280000000 1.0
C      1  0.5296590000000  0.4975500000000  0.4461580000000 1.0
C      1  0.5296670000000  0.4480420000000  0.4856850000000 1.0
C      1  0.5296840000000  0.4703360000000  0.5449850000000 1.0
C      1  0.4703170000000  0.5336250000000  0.4578940000000 1.0
C      1  0.4703340000000  0.5504450000000  0.5189720000000 1.0
C      1  0.4703400000000  0.4975530000000  0.5538420000000 1.0
C      1  0.4703280000000  0.4480450000000  0.5143150000000 1.0
C      1  0.4703130000000  0.4703390000000  0.4550150000000 1.0
C      1  0.5256080000000  0.4503980000000  0.4354670000000 1.0
C      1  0.5256310000000  0.4233030000000  0.5272270000000 1.0
C      1  0.5256490000000  0.5021990000000  0.5813510000000 1.0
C      1  0.5256380000000  0.5780550000000  0.5230420000000 1.0
C      1  0.5256130000000  0.5460400000000  0.4328800000000 1.0
C      1  0.4743870000000  0.4504000000000  0.5645330000000 1.0
C      1  0.4743610000000  0.4233050000000  0.4727730000000 1.0
C      1  0.4743510000000  0.5022020000000  0.4186490000000 1.0
C      1  0.4743700000000  0.5780570000000  0.4769580000000 1.0
C      1  0.4743920000000  0.5460420000000  0.5671200000000 1.0
END
