TITL C-2782228-2999-323 0.00251285342477604 125000 -626.185722072814 0 0 107 (C1) n - 1
REM
REM in /home/nfs/bkarasulu/CARBON/AIRSS/Generating-Clusters/REBO/Higher-Symm/SD-CG/HFTN-CG
REM
REM
REM
REM
REM
REM ./C.cell (12c818d87b63d06a65506943cc24bca4)
REM
REM compiler GCC version 9.2.1 20190827 (Red Hat 9.2.1-1)
REM options -cpp -mtune=generic -march=x86-64 -g -O0 -fpre-include=/usr/include/finclude/math-vector-fortran.h
REM seed 95359023 1215090583 -1965190523 273034742 -1825232755 1755702470 -1329121311 -74222361 -351203849 -1247127781 -272002752 -1354955557 2131076197 1280038775 -1892140319 676888910 -843376756 -93449303 2101148049 1045100396 -1536377592 315788386 -1383672688 -780574925 -1886101617 1609949210 1658532827 1820361854 -612133923 -53352643 -589496373 -1221239319 1781099277
REM
CELL 1.54180   50.00000   50.00000   50.00000   90.00000   90.00000   90.00000
LATT -1
SFAC C  
C      1  0.5133370000000  0.5779680000000  0.4868750000000 1.0
C      1  0.5592050000000  0.4468430000000  0.4852650000000 1.0
C      1  0.4288590000000  0.4738530000000  0.4828160000000 1.0
C      1  0.5188600000000  0.5822300000000  0.5147640000000 1.0
C      1  0.5573960000000  0.4459290000000  0.5138990000000 1.0
C      1  0.4279970000000  0.4724540000000  0.5112050000000 1.0
C      1  0.5081850000000  0.5461800000000  0.4749830000000 1.0
C      1  0.5358180000000  0.4682920000000  0.4724480000000 1.0
C      1  0.4586490000000  0.4871710000000  0.4718710000000 1.0
C      1  0.5170610000000  0.5411980000000  0.5249000000000 1.0
C      1  0.5324770000000  0.4663080000000  0.5255960000000 1.0
C      1  0.4575500000000  0.4838340000000  0.5239030000000 1.0
C      1  0.5032320000000  0.4064730000000  0.5169430000000 1.0
C      1  0.4180840000000  0.5384840000000  0.5159270000000 1.0
C      1  0.5788990000000  0.5561430000000  0.5173960000000 1.0
C      1  0.5034330000000  0.4101170000000  0.4838240000000 1.0
C      1  0.4182420000000  0.5398820000000  0.4825140000000 1.0
C      1  0.5739000000000  0.5546230000000  0.4848230000000 1.0
C      1  0.5268740000000  0.5373370000000  0.4255080000000 1.0
C      1  0.5176120000000  0.4586420000000  0.4253220000000 1.0
C      1  0.4561700000000  0.5072190000000  0.4256770000000 1.0
C      1  0.5272240000000  0.5366750000000  0.5701770000000 1.0
C      1  0.5148390000000  0.4588550000000  0.5711320000000 1.0
C      1  0.4608650000000  0.5016590000000  0.5701090000000 1.0
C      1  0.4825460000000  0.5795370000000  0.5456010000000 1.0
C      1  0.5742230000000  0.4843340000000  0.5509440000000 1.0
C      1  0.4480330000000  0.4405430000000  0.5536080000000 1.0
C      1  0.4731720000000  0.5744940000000  0.4455780000000 1.0
C      1  0.5787850000000  0.4817310000000  0.4447950000000 1.0
C      1  0.4479960000000  0.4414610000000  0.4449370000000 1.0
C      1  0.4961000000000  0.4333290000000  0.4623670000000 1.0
C      1  0.4444910000000  0.5372950000000  0.4638900000000 1.0
C      1  0.5607000000000  0.5380970000000  0.4602390000000 1.0
C      1  0.4946000000000  0.4312210000000  0.5355140000000 1.0
C      1  0.4414780000000  0.5334440000000  0.5371410000000 1.0
C      1  0.5619930000000  0.5357040000000  0.5355660000000 1.0
C      1  0.5398240000000  0.5488740000000  0.4828470000000 1.0
C      1  0.5202260000000  0.4403620000000  0.4835440000000 1.0
C      1  0.4390510000000  0.5121310000000  0.4841350000000 1.0
C      1  0.5449520000000  0.5520940000000  0.5123060000000 1.0
C      1  0.5187090000000  0.4374080000000  0.5136850000000 1.0
C      1  0.4388400000000  0.5104440000000  0.5139250000000 1.0
C      1  0.5454420000000  0.4913170000000  0.5392610000000 1.0
C      1  0.4685860000000  0.4607230000000  0.5427230000000 1.0
C      1  0.4899450000000  0.5496420000000  0.5382000000000 1.0
C      1  0.5499760000000  0.4901590000000  0.4548450000000 1.0
C      1  0.4698080000000  0.4626830000000  0.4534970000000 1.0
C      1  0.4825400000000  0.5460740000000  0.4556860000000 1.0
C      1  0.4805990000000  0.5284740000000  0.5633940000000 1.0
C      1  0.5265120000000  0.5058100000000  0.5635610000000 1.0
C      1  0.4875010000000  0.4721390000000  0.5660550000000 1.0
C      1  0.4813520000000  0.5232980000000  0.4317750000000 1.0
C      1  0.5314300000000  0.5059530000000  0.4311370000000 1.0
C      1  0.4903710000000  0.4723140000000  0.4298150000000 1.0
C      1  0.4892620000000  0.5709270000000  0.4212390000000 1.0
C      1  0.5662320000000  0.4710390000000  0.4205970000000 1.0
C      1  0.4432230000000  0.4584690000000  0.4212510000000 1.0
C      1  0.4955410000000  0.5749400000000  0.5716750000000 1.0
C      1  0.5631030000000  0.4735600000000  0.5755140000000 1.0
C      1  0.4438320000000  0.4515790000000  0.5799760000000 1.0
C      1  0.6016210000000  0.5067740000000  0.5146480000000 1.0
C      1  0.4488280000000  0.4046870000000  0.5147960000000 1.0
C      1  0.4416030000000  0.5895860000000  0.5137870000000 1.0
C      1  0.5868390000000  0.5077480000000  0.4850900000000 1.0
C      1  0.4491180000000  0.4048560000000  0.4830860000000 1.0
C      1  0.4385290000000  0.5893820000000  0.4824140000000 1.0
C      1  0.4710800000000  0.5356350000000  0.4855250000000 1.0
C      1  0.5531340000000  0.5113740000000  0.4812390000000 1.0
C      1  0.4852430000000  0.4591320000000  0.4821060000000 1.0
C      1  0.4696610000000  0.5350780000000  0.5190840000000 1.0
C      1  0.5480080000000  0.5124360000000  0.5150100000000 1.0
C      1  0.4828990000000  0.4547360000000  0.5136140000000 1.0
C      1  0.4613780000000  0.4802150000000  0.4185890000000 1.0
C      1  0.5003570000000  0.5448050000000  0.4189270000000 1.0
C      1  0.5384580000000  0.4767460000000  0.4189830000000 1.0
C      1  0.4605840000000  0.4730200000000  0.5849030000000 1.0
C      1  0.5017930000000  0.5475790000000  0.5763470000000 1.0
C      1  0.5350770000000  0.4777830000000  0.5769380000000 1.0
C      1  0.5294590000000  0.5759890000000  0.5401160000000 1.0
C      1  0.5469670000000  0.4328150000000  0.5414010000000 1.0
C      1  0.4211750000000  0.4858380000000  0.5399060000000 1.0
C      1  0.5268850000000  0.5767500000000  0.4575010000000 1.0
C      1  0.5491170000000  0.4341430000000  0.4569040000000 1.0
C      1  0.4219580000000  0.4893680000000  0.4563130000000 1.0
C      1  0.5399160000000  0.5544700000000  0.4433430000000 1.0
C      1  0.5228570000000  0.4383060000000  0.4438320000000 1.0
C      1  0.4361250000000  0.5119590000000  0.4443740000000 1.0
C      1  0.5424510000000  0.5529470000000  0.5533180000000 1.0
C      1  0.5206570000000  0.4379610000000  0.5535630000000 1.0
C      1  0.4364510000000  0.5054550000000  0.5533230000000 1.0
C      1  0.4851760000000  0.5074300000000  0.4785870000000 1.0
C      1  0.5188960000000  0.5142150000000  0.4794000000000 1.0
C      1  0.5075350000000  0.4821260000000  0.4791420000000 1.0
C      1  0.4816920000000  0.5052570000000  0.5183530000000 1.0
C      1  0.5149780000000  0.5101360000000  0.5189830000000 1.0
C      1  0.5034150000000  0.4789610000000  0.5187190000000 1.0
C      1  0.4432890000000  0.4194010000000  0.4607050000000 1.0
C      1  0.4544260000000  0.5884830000000  0.4601610000000 1.0
C      1  0.5977180000000  0.4909020000000  0.4618290000000 1.0
C      1  0.4425210000000  0.4185870000000  0.5375300000000 1.0
C      1  0.4616010000000  0.5915650000000  0.5322580000000 1.0
C      1  0.5960410000000  0.4929300000000  0.5363930000000 1.0
C      1  0.4201030000000  0.5677520000000  0.5000950000000 1.0
C      1  0.4772440000000  0.3967730000000  0.4989850000000 1.0
C      1  0.5982430000000  0.5362460000000  0.4993010000000 1.0
C      1  0.5011900000000  0.5005810000000  0.4353950000000 1.0
C      1  0.4962690000000  0.5011020000000  0.5608060000000 1.0
END
