TITL C-2782229-3092-627 0.000922499898286928 125000 -730.222009545334 0 0 129 (C1) n - 1
REM
REM in /home/nfs/bkarasulu/CARBON/AIRSS/Generating-Clusters/REBO/Higher-Symm/SD-CG/HFTN-CG
REM
REM
REM
REM
REM
REM ./C.cell (12c818d87b63d06a65506943cc24bca4)
REM
REM compiler GCC version 9.2.1 20190827 (Red Hat 9.2.1-1)
REM options -cpp -mtune=generic -march=x86-64 -g -O0 -fpre-include=/usr/include/finclude/math-vector-fortran.h
REM seed -1293055854 -106181669 -148834163 -443189088 -1766582290 -50256151 663119722 -671175688 -1885572820 -382953164 2043323628 -553904795 618558522 -2114702954 -231967083 295961550 1989260288 1126395522 -2084883641 1871232618 681126895 307505263 -513305502 -67319032 -1248731794 -348435633 250858675 -1077328469 1163407316 1006574300 239988711 -1257648824 -2031357120
REM
CELL 1.54180   50.00000   50.00000   50.00000   90.00000   90.00000   90.00000
LATT -1
SFAC C  
C      1  0.4528230000000  0.4893130000000  0.5174390000000 1.0
C      1  0.4523880000000  0.4781890000000  0.4914550000000 1.0
C      1  0.4478570000000  0.4999290000000  0.4735230000000 1.0
C      1  0.4459080000000  0.5238050000000  0.4883290000000 1.0
C      1  0.4503010000000  0.5173380000000  0.5153680000000 1.0
C      1  0.5599930000000  0.5190810000000  0.5209620000000 1.0
C      1  0.5562950000000  0.5234060000000  0.4908230000000 1.0
C      1  0.5489530000000  0.4953980000000  0.4763140000000 1.0
C      1  0.5446430000000  0.4760420000000  0.5013350000000 1.0
C      1  0.5549470000000  0.4899290000000  0.5258400000000 1.0
C      1  0.5760400000000  0.5549720000000  0.5281700000000 1.0
C      1  0.5757540000000  0.4827920000000  0.5680890000000 1.0
C      1  0.5665260000000  0.4435970000000  0.5084690000000 1.0
C      1  0.5663890000000  0.4786440000000  0.4445530000000 1.0
C      1  0.5692460000000  0.5515490000000  0.4561410000000 1.0
C      1  0.4268620000000  0.4490710000000  0.5240870000000 1.0
C      1  0.4368380000000  0.5189530000000  0.5661110000000 1.0
C      1  0.4343670000000  0.5616670000000  0.5087350000000 1.0
C      1  0.4268460000000  0.5222810000000  0.4322100000000 1.0
C      1  0.4274910000000  0.4545170000000  0.4536690000000 1.0
C      1  0.5635910000000  0.4376350000000  0.5402290000000 1.0
C      1  0.5488920000000  0.4496940000000  0.4502810000000 1.0
C      1  0.5494280000000  0.5322840000000  0.4362110000000 1.0
C      1  0.5491200000000  0.5687410000000  0.5116100000000 1.0
C      1  0.5552690000000  0.5114190000000  0.5726570000000 1.0
C      1  0.4489940000000  0.5649720000000  0.5393840000000 1.0
C      1  0.4384550000000  0.5519600000000  0.4450250000000 1.0
C      1  0.4479840000000  0.4672800000000  0.4303570000000 1.0
C      1  0.4389330000000  0.4252300000000  0.5028030000000 1.0
C      1  0.4494990000000  0.4868080000000  0.5660030000000 1.0
C      1  0.5244590000000  0.4526670000000  0.5847550000000 1.0
C      1  0.5240070000000  0.4049250000000  0.4963490000000 1.0
C      1  0.5266470000000  0.4646780000000  0.4050810000000 1.0
C      1  0.5209690000000  0.5773440000000  0.4327710000000 1.0
C      1  0.5290830000000  0.5735460000000  0.5657630000000 1.0
C      1  0.4804440000000  0.5345510000000  0.6030310000000 1.0
C      1  0.4752790000000  0.5958920000000  0.4923400000000 1.0
C      1  0.4773790000000  0.5194850000000  0.3957480000000 1.0
C      1  0.4719150000000  0.4219260000000  0.4561740000000 1.0
C      1  0.4777470000000  0.4212250000000  0.5556980000000 1.0
C      1  0.4565280000000  0.5142730000000  0.4177200000000 1.0
C      1  0.4571140000000  0.5753010000000  0.4888260000000 1.0
C      1  0.4646240000000  0.5332350000000  0.5786240000000 1.0
C      1  0.4537170000000  0.4390210000000  0.5425790000000 1.0
C      1  0.4484850000000  0.4292130000000  0.4554620000000 1.0
C      1  0.5471240000000  0.4718850000000  0.4172980000000 1.0
C      1  0.5377990000000  0.4306680000000  0.4949570000000 1.0
C      1  0.5473510000000  0.4634270000000  0.5681170000000 1.0
C      1  0.5504330000000  0.5632950000000  0.5508200000000 1.0
C      1  0.5403720000000  0.5687760000000  0.4503870000000 1.0
C      1  0.5231630000000  0.4562670000000  0.5449670000000 1.0
C      1  0.5178900000000  0.4476170000000  0.4752700000000 1.0
C      1  0.5191730000000  0.5001320000000  0.4216970000000 1.0
C      1  0.5271730000000  0.5626330000000  0.4788630000000 1.0
C      1  0.5158840000000  0.5304280000000  0.5698640000000 1.0
C      1  0.4805630000000  0.5442900000000  0.5526000000000 1.0
C      1  0.4683160000000  0.5521640000000  0.4712720000000 1.0
C      1  0.4799250000000  0.4898440000000  0.4224330000000 1.0
C      1  0.4778930000000  0.4321100000000  0.4973170000000 1.0
C      1  0.4773100000000  0.4608110000000  0.5537840000000 1.0
C      1  0.4885670000000  0.5163290000000  0.4411460000000 1.0
C      1  0.4820890000000  0.5393440000000  0.4949310000000 1.0
C      1  0.4855110000000  0.5158190000000  0.5337240000000 1.0
C      1  0.4909080000000  0.4716900000000  0.5272000000000 1.0
C      1  0.4879390000000  0.4881470000000  0.4763580000000 1.0
C      1  0.5089830000000  0.4922090000000  0.4496700000000 1.0
C      1  0.4988140000000  0.4660610000000  0.4947370000000 1.0
C      1  0.5158300000000  0.4885620000000  0.5338650000000 1.0
C      1  0.5152650000000  0.5275190000000  0.5424190000000 1.0
C      1  0.5134280000000  0.5346950000000  0.4901830000000 1.0
C      1  0.4641010000000  0.5797760000000  0.5597710000000 1.0
C      1  0.4627040000000  0.4642110000000  0.5844540000000 1.0
C      1  0.4613420000000  0.4049480000000  0.4964400000000 1.0
C      1  0.4613120000000  0.4587240000000  0.4060890000000 1.0
C      1  0.4694960000000  0.5660970000000  0.4405770000000 1.0
C      1  0.5443890000000  0.4237410000000  0.5539190000000 1.0
C      1  0.5424370000000  0.5186210000000  0.5970560000000 1.0
C      1  0.5248320000000  0.5856350000000  0.4997300000000 1.0
C      1  0.5390440000000  0.5328460000000  0.4106990000000 1.0
C      1  0.5327760000000  0.4276960000000  0.4439760000000 1.0
C      1  0.4144930000000  0.5229170000000  0.4638940000000 1.0
C      1  0.4145550000000  0.5337860000000  0.5109870000000 1.0
C      1  0.4149030000000  0.4994690000000  0.5518730000000 1.0
C      1  0.4145940000000  0.4732910000000  0.5030970000000 1.0
C      1  0.4129870000000  0.4809280000000  0.4697150000000 1.0
C      1  0.5854980000000  0.4796280000000  0.4728610000000 1.0
C      1  0.5853220000000  0.4726980000000  0.5066220000000 1.0
C      1  0.5932040000000  0.5079660000000  0.5621010000000 1.0
C      1  0.5915770000000  0.5366630000000  0.5039640000000 1.0
C      1  0.5901840000000  0.5286080000000  0.4706600000000 1.0
C      1  0.4723330000000  0.4765590000000  0.4525130000000 1.0
C      1  0.4621610000000  0.5281450000000  0.4492180000000 1.0
C      1  0.4731310000000  0.5512080000000  0.5200360000000 1.0
C      1  0.4744060000000  0.5062110000000  0.5624500000000 1.0
C      1  0.4689430000000  0.4509040000000  0.5161910000000 1.0
C      1  0.5357100000000  0.5323300000000  0.4658460000000 1.0
C      1  0.5303640000000  0.4756590000000  0.4623120000000 1.0
C      1  0.5247880000000  0.4554980000000  0.5135330000000 1.0
C      1  0.5396050000000  0.4913550000000  0.5542410000000 1.0
C      1  0.5389410000000  0.5414200000000  0.5294380000000 1.0
C      1  0.4940920000000  0.4042120000000  0.5064340000000 1.0
C      1  0.4951490000000  0.4641450000000  0.4063550000000 1.0
C      1  0.4959120000000  0.5634310000000  0.4287800000000 1.0
C      1  0.4976250000000  0.5724420000000  0.5615670000000 1.0
C      1  0.4965990000000  0.4648310000000  0.5816270000000 1.0
C      1  0.4987760000000  0.5919390000000  0.5087260000000 1.0
C      1  0.5110250000000  0.5209320000000  0.3961770000000 1.0
C      1  0.5021170000000  0.4311750000000  0.4527700000000 1.0
C      1  0.5114390000000  0.4269960000000  0.5545680000000 1.0
C      1  0.5095900000000  0.5195010000000  0.6000830000000 1.0
C      1  0.5676290000000  0.5112510000000  0.4543630000000 1.0
C      1  0.5669890000000  0.5549750000000  0.4892440000000 1.0
C      1  0.5738580000000  0.5294230000000  0.5503150000000 1.0
C      1  0.5754340000000  0.4677500000000  0.5389020000000 1.0
C      1  0.5621090000000  0.4576970000000  0.4782810000000 1.0
C      1  0.4340370000000  0.4930990000000  0.4459450000000 1.0
C      1  0.4355340000000  0.4522010000000  0.4854610000000 1.0
C      1  0.4358160000000  0.4762020000000  0.5387890000000 1.0
C      1  0.4357510000000  0.5344800000000  0.5378090000000 1.0
C      1  0.4289660000000  0.5497890000000  0.4772860000000 1.0
C      1  0.4961700000000  0.4034350000000  0.5363940000000 1.0
C      1  0.5012160000000  0.5363070000000  0.4229570000000 1.0
C      1  0.4869220000000  0.4529570000000  0.4359550000000 1.0
C      1  0.4908310000000  0.5758280000000  0.5304870000000 1.0
C      1  0.4966670000000  0.4961290000000  0.5815720000000 1.0
C      1  0.5923030000000  0.5039600000000  0.4944860000000 1.0
C      1  0.4105190000000  0.5057650000000  0.4930390000000 1.0
C      1  0.4865850000000  0.5072640000000  0.5006880000000 1.0
C      1  0.5184500000000  0.5119300000000  0.5121320000000 1.0
END
