TITL C-2782226-7400-382 -2.95838086920062e-06 125000 -150.500301231366 0 0 29 (C1) n - 1
REM
REM in /home/nfs/bkarasulu/CARBON/AIRSS/Generating-Clusters/REBO/Higher-Symm/SD-CG/HFTN-CG
REM
REM
REM
REM
REM
REM ./C.cell (12c818d87b63d06a65506943cc24bca4)
REM
REM compiler GCC version 9.2.1 20190827 (Red Hat 9.2.1-1)
REM options -cpp -mtune=generic -march=x86-64 -g -O0 -fpre-include=/usr/include/finclude/math-vector-fortran.h
REM seed 608464249 883114784 1474037765 -1815716779 -1191505974 1256057809 -949512498 1332522514 1987234714 2108179042 -37462179 1467732209 1463144705 -1609450451 -1168808519 -1166549397 223427605 -510150304 1802914065 -1291634606 63429222 72313613 1862896633 -1277058799 -1033382408 -290871781 -1268816602 1261127221 1793299238 -945540545 375238533 -92304116 -258996527
REM
CELL 1.54180   50.00000   50.00000   50.00000   90.00000   90.00000   90.00000
LATT -1
SFAC C  
C      1  0.5505590000000  0.5446300000000  0.4974110000000 1.0
C      1  0.4716740000000  0.5338090000000  0.5540030000000 1.0
C      1  0.4817230000000  0.5336770000000  0.4481360000000 1.0
C      1  0.5207880000000  0.4768100000000  0.4554380000000 1.0
C      1  0.5298990000000  0.4786840000000  0.5417700000000 1.0
C      1  0.4527830000000  0.4711020000000  0.5043640000000 1.0
C      1  0.5067890000000  0.4715470000000  0.5291970000000 1.0
C      1  0.4759160000000  0.4692560000000  0.4900570000000 1.0
C      1  0.5248280000000  0.4763500000000  0.4828780000000 1.0
C      1  0.4413510000000  0.4900750000000  0.5279630000000 1.0
C      1  0.5130910000000  0.4776870000000  0.4031710000000 1.0
C      1  0.5518710000000  0.5022600000000  0.5388000000000 1.0
C      1  0.4828990000000  0.5212500000000  0.5269120000000 1.0
C      1  0.4822600000000  0.5223890000000  0.4781820000000 1.0
C      1  0.5245500000000  0.5267370000000  0.5020230000000 1.0
C      1  0.5169090000000  0.4772520000000  0.4290950000000 1.0
C      1  0.5550160000000  0.4802340000000  0.5623580000000 1.0
C      1  0.4225740000000  0.4667500000000  0.5155720000000 1.0
C      1  0.4538910000000  0.5270940000000  0.4636430000000 1.0
C      1  0.5504310000000  0.5213080000000  0.5196210000000 1.0
C      1  0.4558930000000  0.5099310000000  0.5392320000000 1.0
C      1  0.4783370000000  0.4544250000000  0.4668010000000 1.0
C      1  0.5492180000000  0.4703380000000  0.4945040000000 1.0
C      1  0.4887530000000  0.4533280000000  0.5396650000000 1.0
C      1  0.5629900000000  0.5642520000000  0.4848880000000 1.0
C      1  0.4736310000000  0.5511510000000  0.5737980000000 1.0
C      1  0.4944260000000  0.5421210000000  0.4265970000000 1.0
C      1  0.5011740000000  0.4828010000000  0.5011540000000 1.0
C      1  0.4976600000000  0.5138180000000  0.5020670000000 1.0
END
