TITL C-2782231-7322-714 -0.154399510069295 125000 -864.889350637664 0 0 153 (C1) n - 1
REM
REM in /home/nfs/bkarasulu/CARBON/AIRSS/Generating-Clusters/REBO/Higher-Symm/SD-CG/HFTN-CG
REM
REM
REM
REM
REM
REM ./C.cell (12c818d87b63d06a65506943cc24bca4)
REM
REM compiler GCC version 9.2.1 20190827 (Red Hat 9.2.1-1)
REM options -cpp -mtune=generic -march=x86-64 -g -O0 -fpre-include=/usr/include/finclude/math-vector-fortran.h
REM seed -1564383171 1452850040 -167178076 1175547753 -1485158882 411208060 331419242 1755846831 643684561 1919621691 290995214 -2068981224 962636167 1745022099 -324353785 -460122016 -675284703 -1784758002 260393558 1168175931 1644564255 2120269671 -1444510403 1205288441 -301514647 -1211047911 -1942158244 -388450890 -370709127 170632360 996883840 921516014 -1514790495
REM
CELL 1.54180   50.00000   50.00000   50.00000   90.00000   90.00000   90.00000
LATT -1
SFAC C  
C      1  0.5379330000000  0.4162660000000  0.5525760000000 1.0
C      1  0.4391250000000  0.4240830000000  0.5041040000000 1.0
C      1  0.5280600000000  0.4206380000000  0.4392810000000 1.0
C      1  0.4628770000000  0.5792600000000  0.5506580000000 1.0
C      1  0.5661160000000  0.5784130000000  0.5042730000000 1.0
C      1  0.4718000000000  0.5823590000000  0.4391230000000 1.0
C      1  0.5341160000000  0.4527760000000  0.5370610000000 1.0
C      1  0.4549280000000  0.4586970000000  0.5153220000000 1.0
C      1  0.5117900000000  0.4551380000000  0.4509750000000 1.0
C      1  0.4649770000000  0.5423370000000  0.5359450000000 1.0
C      1  0.5576110000000  0.5407640000000  0.5140840000000 1.0
C      1  0.4889910000000  0.5421940000000  0.4556880000000 1.0
C      1  0.5346720000000  0.4936960000000  0.5051990000000 1.0
C      1  0.4805360000000  0.4934340000000  0.5308400000000 1.0
C      1  0.4845350000000  0.4922910000000  0.4652750000000 1.0
C      1  0.4637590000000  0.5057840000000  0.5061950000000 1.0
C      1  0.5231120000000  0.5063520000000  0.5327890000000 1.0
C      1  0.5136230000000  0.5040190000000  0.4728700000000 1.0
C      1  0.4470680000000  0.5279570000000  0.5792880000000 1.0
C      1  0.4591290000000  0.5247860000000  0.4172800000000 1.0
C      1  0.5947310000000  0.5282380000000  0.5068560000000 1.0
C      1  0.5524370000000  0.4682540000000  0.5781110000000 1.0
C      1  0.5411700000000  0.4737810000000  0.4157540000000 1.0
C      1  0.4072350000000  0.4741190000000  0.5067960000000 1.0
C      1  0.5243900000000  0.5719470000000  0.4714220000000 1.0
C      1  0.5115340000000  0.5593280000000  0.5216920000000 1.0
C      1  0.4580840000000  0.5696420000000  0.4903130000000 1.0
C      1  0.4776900000000  0.4284590000000  0.4696530000000 1.0
C      1  0.4855550000000  0.4305680000000  0.5343790000000 1.0
C      1  0.5429900000000  0.4293220000000  0.4920250000000 1.0
C      1  0.4317900000000  0.5671010000000  0.5288480000000 1.0
C      1  0.5066670000000  0.5661920000000  0.4282920000000 1.0
C      1  0.5606640000000  0.5686280000000  0.5425220000000 1.0
C      1  0.5677300000000  0.4294320000000  0.5294640000000 1.0
C      1  0.4923640000000  0.4316040000000  0.4252930000000 1.0
C      1  0.4419490000000  0.4330250000000  0.5430600000000 1.0
C      1  0.5632680000000  0.5077230000000  0.4931500000000 1.0
C      1  0.4770020000000  0.5117430000000  0.5587060000000 1.0
C      1  0.4617470000000  0.5129510000000  0.4551150000000 1.0
C      1  0.4413580000000  0.4880870000000  0.4919780000000 1.0
C      1  0.5228080000000  0.4851880000000  0.5574760000000 1.0
C      1  0.5357900000000  0.4883700000000  0.4524370000000 1.0
C      1  0.5378380000000  0.4402780000000  0.4645140000000 1.0
C      1  0.5109660000000  0.4368290000000  0.5530270000000 1.0
C      1  0.4610890000000  0.4436080000000  0.4869960000000 1.0
C      1  0.4629440000000  0.5594290000000  0.4623560000000 1.0
C      1  0.4906650000000  0.5605500000000  0.5478790000000 1.0
C      1  0.5444820000000  0.5587160000000  0.4882470000000 1.0
C      1  0.5643150000000  0.4752730000000  0.4396090000000 1.0
C      1  0.5205440000000  0.4733610000000  0.5887970000000 1.0
C      1  0.4156260000000  0.4742500000000  0.4745410000000 1.0
C      1  0.4343390000000  0.5242300000000  0.4398410000000 1.0
C      1  0.4789960000000  0.5266760000000  0.5892460000000 1.0
C      1  0.5858250000000  0.5259040000000  0.4751100000000 1.0
C      1  0.5533970000000  0.5003910000000  0.5781880000000 1.0
C      1  0.3959990000000  0.5039530000000  0.5032480000000 1.0
C      1  0.5499180000000  0.5042060000000  0.4100010000000 1.0
C      1  0.4453270000000  0.4966830000000  0.5893690000000 1.0
C      1  0.6015830000000  0.4952780000000  0.5038030000000 1.0
C      1  0.4494580000000  0.4956000000000  0.4082820000000 1.0
C      1  0.4977840000000  0.4674030000000  0.5451510000000 1.0
C      1  0.4608110000000  0.4715600000000  0.4745910000000 1.0
C      1  0.5343000000000  0.4705640000000  0.4800940000000 1.0
C      1  0.5013370000000  0.5283260000000  0.5447630000000 1.0
C      1  0.5369160000000  0.5262940000000  0.4822370000000 1.0
C      1  0.4619140000000  0.5306450000000  0.4825990000000 1.0
C      1  0.4267450000000  0.5755690000000  0.4964500000000 1.0
C      1  0.5365360000000  0.5737740000000  0.4409210000000 1.0
C      1  0.5316810000000  0.5779510000000  0.5582060000000 1.0
C      1  0.5742830000000  0.4215110000000  0.4970090000000 1.0
C      1  0.4630230000000  0.4249080000000  0.4401650000000 1.0
C      1  0.4683340000000  0.4247770000000  0.5628950000000 1.0
C      1  0.4847090000000  0.4684720000000  0.5075580000000 1.0
C      1  0.5001680000000  0.4670820000000  0.4797060000000 1.0
C      1  0.5169580000000  0.4686260000000  0.5158480000000 1.0
C      1  0.5263640000000  0.5344710000000  0.5143750000000 1.0
C      1  0.4972470000000  0.5306090000000  0.4840400000000 1.0
C      1  0.4864810000000  0.5292040000000  0.5139760000000 1.0
C      1  0.5286650000000  0.5209320000000  0.4014940000000 1.0
C      1  0.5652450000000  0.5149810000000  0.5560170000000 1.0
C      1  0.3984630000000  0.5203860000000  0.5260260000000 1.0
C      1  0.4698850000000  0.4785600000000  0.3988070000000 1.0
C      1  0.4263880000000  0.4806150000000  0.5758030000000 1.0
C      1  0.5988490000000  0.4779930000000  0.5259910000000 1.0
C      1  0.4373600000000  0.4470300000000  0.4381510000000 1.0
C      1  0.5836470000000  0.4466650000000  0.4760320000000 1.0
C      1  0.4775550000000  0.4467230000000  0.5872230000000 1.0
C      1  0.5618710000000  0.5519740000000  0.4404340000000 1.0
C      1  0.4132890000000  0.5526250000000  0.4755040000000 1.0
C      1  0.5146440000000  0.5631190000000  0.5796000000000 1.0
C      1  0.4392030000000  0.4659270000000  0.5511130000000 1.0
C      1  0.4856550000000  0.4645110000000  0.4224680000000 1.0
C      1  0.5713160000000  0.4618560000000  0.5255180000000 1.0
C      1  0.5526360000000  0.5414350000000  0.5562180000000 1.0
C      1  0.5140030000000  0.5336730000000  0.4261650000000 1.0
C      1  0.4267270000000  0.5343470000000  0.5276960000000 1.0
C      1  0.4960650000000  0.5791930000000  0.4828370000000 1.0
C      1  0.5154400000000  0.5894470000000  0.5061540000000 1.0
C      1  0.4813990000000  0.5691430000000  0.5101410000000 1.0
C      1  0.5055840000000  0.4227980000000  0.4803690000000 1.0
C      1  0.4870800000000  0.4154180000000  0.5062120000000 1.0
C      1  0.5178560000000  0.4284540000000  0.5109160000000 1.0
C      1  0.4684780000000  0.3979300000000  0.4607610000000 1.0
C      1  0.5511940000000  0.3971660000000  0.4889450000000 1.0
C      1  0.4831730000000  0.3987400000000  0.5457800000000 1.0
C      1  0.5334100000000  0.6020050000000  0.4602010000000 1.0
C      1  0.4484890000000  0.6012030000000  0.4885030000000 1.0
C      1  0.5159900000000  0.5982510000000  0.5384490000000 1.0
C      1  0.4326200000000  0.5354420000000  0.4959510000000 1.0
C      1  0.5367040000000  0.5324870000000  0.4487250000000 1.0
C      1  0.5250130000000  0.5372450000000  0.5672990000000 1.0
C      1  0.5642450000000  0.4648960000000  0.4952400000000 1.0
C      1  0.4620260000000  0.4682310000000  0.4428010000000 1.0
C      1  0.4694970000000  0.4646710000000  0.5612130000000 1.0
C      1  0.5890800000000  0.4806030000000  0.4793130000000 1.0
C      1  0.4724880000000  0.4809420000000  0.5901250000000 1.0
C      1  0.4333570000000  0.4806780000000  0.4310770000000 1.0
C      1  0.4085040000000  0.5187290000000  0.4787370000000 1.0
C      1  0.5281260000000  0.5127080000000  0.5858270000000 1.0
C      1  0.5630520000000  0.5180480000000  0.4344080000000 1.0
C      1  0.5537350000000  0.4780850000000  0.5452730000000 1.0
C      1  0.4345500000000  0.4840140000000  0.5250700000000 1.0
C      1  0.5112300000000  0.4818870000000  0.4299180000000 1.0
C      1  0.4455550000000  0.5173710000000  0.5468470000000 1.0
C      1  0.5717070000000  0.5120350000000  0.5260480000000 1.0
C      1  0.4880280000000  0.5163550000000  0.4335670000000 1.0
C      1  0.4423070000000  0.5549330000000  0.5590390000000 1.0
C      1  0.4755300000000  0.5528360000000  0.4250980000000 1.0
C      1  0.5853880000000  0.5576570000000  0.5214230000000 1.0
C      1  0.5579480000000  0.4413420000000  0.5598510000000 1.0
C      1  0.5228520000000  0.4456310000000  0.4192030000000 1.0
C      1  0.4221870000000  0.4470010000000  0.5191000000000 1.0
C      1  0.4175750000000  0.4490910000000  0.4604990000000 1.0
C      1  0.5759880000000  0.4499140000000  0.4474580000000 1.0
C      1  0.5060580000000  0.4489690000000  0.5954150000000 1.0
C      1  0.5835110000000  0.5505640000000  0.4605410000000 1.0
C      1  0.4220570000000  0.5494290000000  0.4471600000000 1.0
C      1  0.4919870000000  0.5556600000000  0.5936820000000 1.0
C      1  0.4756120000000  0.5978570000000  0.4681060000000 1.0
C      1  0.5425600000000  0.6001610000000  0.4929750000000 1.0
C      1  0.4848590000000  0.5960010000000  0.5309250000000 1.0
C      1  0.5256400000000  0.4020940000000  0.4669890000000 1.0
C      1  0.4616690000000  0.4011390000000  0.4940130000000 1.0
C      1  0.5140450000000  0.4025920000000  0.5328060000000 1.0
C      1  0.4551720000000  0.4054970000000  0.5277360000000 1.0
C      1  0.4984700000000  0.4046000000000  0.4455860000000 1.0
C      1  0.5467940000000  0.4034430000000  0.5221350000000 1.0
C      1  0.5482250000000  0.5963960000000  0.5270710000000 1.0
C      1  0.5028240000000  0.5947360000000  0.4467760000000 1.0
C      1  0.4519950000000  0.5936670000000  0.5215420000000 1.0
C      1  0.4180070000000  0.4993930000000  0.4536640000000 1.0
C      1  0.5797220000000  0.4998290000000  0.4554660000000 1.0
C      1  0.4993270000000  0.4996780000000  0.5929670000000 1.0
END
