TITL C-2782233-7966-1090 0.0278591374431275 125000 -252.557238236336 0 0 44 (C1) n - 1
REM
REM in /home/nfs/bkarasulu/CARBON/AIRSS/Generating-Clusters/REBO/Higher-Symm/SD-CG/HFTN-CG
REM
REM
REM
REM
REM
REM ./C.cell (12c818d87b63d06a65506943cc24bca4)
REM
REM compiler GCC version 9.2.1 20190827 (Red Hat 9.2.1-1)
REM options -cpp -mtune=generic -march=x86-64 -g -O0 -fpre-include=/usr/include/finclude/math-vector-fortran.h
REM seed 395127393 -519632232 1517158790 -901757229 1515905375 1333013094 2069722172 157542338 2035430818 -57624486 695637459 -691511332 -1184593248 1193389434 -646901692 -340945148 -95488395 -1190571248 1721391330 -1782278478 -286260101 1533596995 -1910556160 1908319092 -1627714542 -1179972980 -596124319 496797671 668116594 796191884 -323483176 -1474688302 1573923510
REM
CELL 1.54180   50.00000   50.00000   50.00000   90.00000   90.00000   90.00000
LATT -1
SFAC C  
C      1  0.5248000000000  0.5166150000000  0.4619640000000 1.0
C      1  0.5342430000000  0.4853130000000  0.4938520000000 1.0
C      1  0.5525540000000  0.5094090000000  0.5293280000000 1.0
C      1  0.5331280000000  0.4843460000000  0.5633910000000 1.0
C      1  0.4996490000000  0.5166550000000  0.5603180000000 1.0
C      1  0.4668420000000  0.4886380000000  0.5438760000000 1.0
C      1  0.4571950000000  0.5094940000000  0.5050530000000 1.0
C      1  0.4624910000000  0.4840730000000  0.4682260000000 1.0
C      1  0.4701490000000  0.5167210000000  0.4341230000000 1.0
C      1  0.5097510000000  0.4921700000000  0.4246280000000 1.0
C      1  0.4709300000000  0.4646590000000  0.5222120000000 1.0
C      1  0.4631050000000  0.5325880000000  0.4846790000000 1.0
C      1  0.4698760000000  0.4691840000000  0.4442880000000 1.0
C      1  0.4914270000000  0.5373310000000  0.4332250000000 1.0
C      1  0.5238830000000  0.4732730000000  0.4425740000000 1.0
C      1  0.5225740000000  0.5337190000000  0.4896360000000 1.0
C      1  0.5326380000000  0.4653110000000  0.5170440000000 1.0
C      1  0.5469570000000  0.5293160000000  0.5505230000000 1.0
C      1  0.5069740000000  0.4671200000000  0.5623500000000 1.0
C      1  0.4857770000000  0.5355000000000  0.5370250000000 1.0
C      1  0.5396400000000  0.5114670000000  0.5043460000000 1.0
C      1  0.5480860000000  0.4819180000000  0.5390590000000 1.0
C      1  0.5274570000000  0.5134530000000  0.5663130000000 1.0
C      1  0.4869920000000  0.4910350000000  0.5625450000000 1.0
C      1  0.4627480000000  0.5134440000000  0.5314040000000 1.0
C      1  0.4624630000000  0.4827690000000  0.4964630000000 1.0
C      1  0.4605340000000  0.5123450000000  0.4608270000000 1.0
C      1  0.4801500000000  0.4895820000000  0.4249660000000 1.0
C      1  0.5152210000000  0.5201190000000  0.4349910000000 1.0
C      1  0.5292620000000  0.4881630000000  0.4667440000000 1.0
C      1  0.4487710000000  0.5562760000000  0.4818470000000 1.0
C      1  0.4707150000000  0.4423720000000  0.4410800000000 1.0
C      1  0.4904360000000  0.5585110000000  0.4521180000000 1.0
C      1  0.5280350000000  0.4469750000000  0.4380220000000 1.0
C      1  0.5346300000000  0.5591750000000  0.4882750000000 1.0
C      1  0.5393690000000  0.4328160000000  0.5106660000000 1.0
C      1  0.5541290000000  0.5551560000000  0.5525850000000 1.0
C      1  0.5041760000000  0.4468330000000  0.5812110000000 1.0
C      1  0.4793590000000  0.5611810000000  0.5464690000000 1.0
C      1  0.4546510000000  0.4418470000000  0.5250990000000 1.0
C      1  0.4915610000000  0.5352440000000  0.5035110000000 1.0
C      1  0.5018210000000  0.4590750000000  0.5309580000000 1.0
C      1  0.5140870000000  0.4303220000000  0.5215830000000 1.0
C      1  0.4929980000000  0.5584890000000  0.4791260000000 1.0
END
