TITL C-2782234-8014-874 0.00342587769444474 125000 -1011.92522453249 0 0 174 (C1) n - 1
REM
REM in /home/nfs/bkarasulu/CARBON/AIRSS/Generating-Clusters/REBO/Higher-Symm/SD-CG/HFTN-CG
REM
REM
REM
REM
REM
REM ./C.cell (12c818d87b63d06a65506943cc24bca4)
REM
REM compiler GCC version 9.2.1 20190827 (Red Hat 9.2.1-1)
REM options -cpp -mtune=generic -march=x86-64 -g -O0 -fpre-include=/usr/include/finclude/math-vector-fortran.h
REM seed -1582911565 -1686836302 -746902153 1780679856 1080515174 -1819173634 -1688131907 -1184357701 1339045424 899183157 -1122603572 1099890007 1991872052 825393894 1707087344 -362077614 -1696860359 2034979468 -2026344971 1064220113 -542195386 -1252485209 1295139353 42986584 1347485298 605443129 -2129423274 -2013554880 -1461189881 -777487717 791166784 -1059320289 -1100532827
REM
CELL 1.54180   50.00000   50.00000   50.00000   90.00000   90.00000   90.00000
LATT -1
SFAC C  
C      1  0.4995040000000  0.5442180000000  0.6026260000000 1.0
C      1  0.3899650000000  0.4551830000000  0.4917340000000 1.0
C      1  0.5028000000000  0.5414780000000  0.4035800000000 1.0
C      1  0.6131040000000  0.4592180000000  0.5083030000000 1.0
C      1  0.4335040000000  0.4550600000000  0.4638340000000 1.0
C      1  0.5428480000000  0.5354570000000  0.4314070000000 1.0
C      1  0.5752630000000  0.4588530000000  0.5395160000000 1.0
C      1  0.4637610000000  0.5457620000000  0.5624180000000 1.0
C      1  0.6223930000000  0.4983150000000  0.4925110000000 1.0
C      1  0.5036910000000  0.5006830000000  0.6174500000000 1.0
C      1  0.3812640000000  0.4945130000000  0.5041350000000 1.0
C      1  0.4972860000000  0.5001730000000  0.3844900000000 1.0
C      1  0.4731100000000  0.5889900000000  0.4409220000000 1.0
C      1  0.5569730000000  0.4194670000000  0.4756810000000 1.0
C      1  0.5203100000000  0.5847840000000  0.5551750000000 1.0
C      1  0.4409950000000  0.4147280000000  0.5233430000000 1.0
C      1  0.5395960000000  0.5391810000000  0.5688900000000 1.0
C      1  0.4303910000000  0.4630560000000  0.5409530000000 1.0
C      1  0.4651920000000  0.5377500000000  0.4342500000000 1.0
C      1  0.5669250000000  0.4661010000000  0.4645410000000 1.0
C      1  0.5165710000000  0.5097060000000  0.5234710000000 1.0
C      1  0.4834070000000  0.4740620000000  0.5081730000000 1.0
C      1  0.4994150000000  0.5261200000000  0.4921580000000 1.0
C      1  0.5198900000000  0.4809340000000  0.4890650000000 1.0
C      1  0.5145180000000  0.5170070000000  0.5626090000000 1.0
C      1  0.4298670000000  0.4834930000000  0.5136930000000 1.0
C      1  0.4891890000000  0.5139570000000  0.4392490000000 1.0
C      1  0.5721840000000  0.4868240000000  0.4901310000000 1.0
C      1  0.4354500000000  0.5800080000000  0.5197130000000 1.0
C      1  0.4797030000000  0.4211390000000  0.4399930000000 1.0
C      1  0.5634830000000  0.5811680000000  0.4813490000000 1.0
C      1  0.5213290000000  0.4234650000000  0.5564860000000 1.0
C      1  0.5967690000000  0.4381610000000  0.4969330000000 1.0
C      1  0.5003760000000  0.5670050000000  0.5843750000000 1.0
C      1  0.4054600000000  0.4325550000000  0.5001130000000 1.0
C      1  0.5068450000000  0.5611860000000  0.4259350000000 1.0
C      1  0.4753410000000  0.5055500000000  0.6161200000000 1.0
C      1  0.3811050000000  0.4906220000000  0.4757970000000 1.0
C      1  0.5260370000000  0.5016340000000  0.3869660000000 1.0
C      1  0.6251600000000  0.4951460000000  0.5206870000000 1.0
C      1  0.4512020000000  0.5188460000000  0.4794350000000 1.0
C      1  0.5103280000000  0.4807900000000  0.4504170000000 1.0
C      1  0.5549820000000  0.5202930000000  0.5213980000000 1.0
C      1  0.4831540000000  0.4836780000000  0.5569310000000 1.0
C      1  0.5515120000000  0.4902080000000  0.5334170000000 1.0
C      1  0.4626850000000  0.5131240000000  0.5398550000000 1.0
C      1  0.4557070000000  0.4880710000000  0.4678490000000 1.0
C      1  0.5408820000000  0.5058730000000  0.4619280000000 1.0
C      1  0.5506080000000  0.4620330000000  0.4286260000000 1.0
C      1  0.5812210000000  0.5257070000000  0.5510870000000 1.0
C      1  0.4481430000000  0.4756030000000  0.5744980000000 1.0
C      1  0.4257590000000  0.5198620000000  0.4470130000000 1.0
C      1  0.5403550000000  0.5197940000000  0.5929650000000 1.0
C      1  0.4038190000000  0.4808550000000  0.5438390000000 1.0
C      1  0.4609410000000  0.5200450000000  0.4089030000000 1.0
C      1  0.5944710000000  0.4827770000000  0.4572470000000 1.0
C      1  0.5671750000000  0.4282210000000  0.5365100000000 1.0
C      1  0.4545550000000  0.5783270000000  0.5676640000000 1.0
C      1  0.4292540000000  0.4220030000000  0.4552550000000 1.0
C      1  0.5449940000000  0.5675280000000  0.4365000000000 1.0
C      1  0.4341370000000  0.3977760000000  0.4753690000000 1.0
C      1  0.5251720000000  0.5925600000000  0.4425000000000 1.0
C      1  0.5603060000000  0.4073290000000  0.5134950000000 1.0
C      1  0.4731480000000  0.6037610000000  0.5628090000000 1.0
C      1  0.4849690000000  0.3910520000000  0.4853790000000 1.0
C      1  0.5100190000000  0.6122690000000  0.4907060000000 1.0
C      1  0.5081880000000  0.3949260000000  0.5100000000000 1.0
C      1  0.4835290000000  0.6115550000000  0.5121240000000 1.0
C      1  0.5517320000000  0.5881560000000  0.5126080000000 1.0
C      1  0.4883060000000  0.4150350000000  0.5529510000000 1.0
C      1  0.4433080000000  0.5870350000000  0.4872560000000 1.0
C      1  0.5108520000000  0.4102830000000  0.4397110000000 1.0
C      1  0.5274740000000  0.4512530000000  0.4123330000000 1.0
C      1  0.5772830000000  0.5446160000000  0.5261490000000 1.0
C      1  0.4670160000000  0.4546680000000  0.5790840000000 1.0
C      1  0.4259700000000  0.5394140000000  0.4719200000000 1.0
C      1  0.4869540000000  0.5300800000000  0.5779460000000 1.0
C      1  0.4151510000000  0.4689960000000  0.4867820000000 1.0
C      1  0.5182380000000  0.5231780000000  0.4239100000000 1.0
C      1  0.5864430000000  0.4718130000000  0.5158210000000 1.0
C      1  0.4825500000000  0.4538290000000  0.4421390000000 1.0
C      1  0.5669820000000  0.5471850000000  0.4865260000000 1.0
C      1  0.5174930000000  0.4578510000000  0.5583200000000 1.0
C      1  0.4334690000000  0.5460890000000  0.5145880000000 1.0
C      1  0.5295740000000  0.4876760000000  0.5542120000000 1.0
C      1  0.4349290000000  0.5142970000000  0.5230050000000 1.0
C      1  0.4728340000000  0.4862260000000  0.4382670000000 1.0
C      1  0.5690420000000  0.5167660000000  0.4766370000000 1.0
C      1  0.4923720000000  0.5269480000000  0.5389990000000 1.0
C      1  0.4534770000000  0.4703970000000  0.4961050000000 1.0
C      1  0.5119930000000  0.5208470000000  0.4631650000000 1.0
C      1  0.5474060000000  0.4730700000000  0.5075280000000 1.0
C      1  0.6091280000000  0.5219550000000  0.4828310000000 1.0
C      1  0.5148990000000  0.4796040000000  0.6018480000000 1.0
C      1  0.3942100000000  0.5180480000000  0.5142850000000 1.0
C      1  0.4848400000000  0.4796990000000  0.3996230000000 1.0
C      1  0.5110080000000  0.4352680000000  0.4855740000000 1.0
C      1  0.5179540000000  0.5677560000000  0.5179190000000 1.0
C      1  0.4748780000000  0.4356970000000  0.5214830000000 1.0
C      1  0.4799090000000  0.5726150000000  0.4811780000000 1.0
C      1  0.4556690000000  0.3928600000000  0.5016020000000 1.0
C      1  0.4976880000000  0.6020960000000  0.4608340000000 1.0
C      1  0.5360740000000  0.3992570000000  0.4907260000000 1.0
C      1  0.4997450000000  0.6084740000000  0.5418970000000 1.0
C      1  0.4252960000000  0.4924610000000  0.4524510000000 1.0
C      1  0.5486450000000  0.4904590000000  0.4325900000000 1.0
C      1  0.5818380000000  0.4987230000000  0.5458210000000 1.0
C      1  0.4524460000000  0.5039150000000  0.5709840000000 1.0
C      1  0.5413690000000  0.4885760000000  0.5854710000000 1.0
C      1  0.4097800000000  0.5127430000000  0.5441220000000 1.0
C      1  0.4542620000000  0.4869620000000  0.4120260000000 1.0
C      1  0.5922410000000  0.5156670000000  0.4539670000000 1.0
C      1  0.4627660000000  0.4619820000000  0.5400060000000 1.0
C      1  0.4757520000000  0.5398010000000  0.4749700000000 1.0
C      1  0.5343070000000  0.4638370000000  0.4649690000000 1.0
C      1  0.5293570000000  0.5394300000000  0.5302670000000 1.0
C      1  0.4793970000000  0.4034710000000  0.5228480000000 1.0
C      1  0.4719560000000  0.6033720000000  0.4832690000000 1.0
C      1  0.5103090000000  0.4052080000000  0.4715850000000 1.0
C      1  0.5209890000000  0.5992060000000  0.5179960000000 1.0
C      1  0.5330060000000  0.4360070000000  0.5059670000000 1.0
C      1  0.4738050000000  0.5618940000000  0.5339100000000 1.0
C      1  0.4602530000000  0.4371310000000  0.4753040000000 1.0
C      1  0.5169710000000  0.5681820000000  0.4729040000000 1.0
C      1  0.4918990000000  0.4471640000000  0.5452800000000 1.0
C      1  0.4544620000000  0.5552940000000  0.4952830000000 1.0
C      1  0.5113540000000  0.4411080000000  0.4541020000000 1.0
C      1  0.5447350000000  0.5550600000000  0.5047100000000 1.0
C      1  0.3832640000000  0.4751410000000  0.5256120000000 1.0
C      1  0.4832820000000  0.5249530000000  0.3905860000000 1.0
C      1  0.6169700000000  0.4774310000000  0.4731430000000 1.0
C      1  0.5190350000000  0.5250090000000  0.6124660000000 1.0
C      1  0.5587000000000  0.4363950000000  0.4496280000000 1.0
C      1  0.5442890000000  0.5649330000000  0.5571900000000 1.0
C      1  0.4392550000000  0.4311030000000  0.5485010000000 1.0
C      1  0.4572590000000  0.5649800000000  0.4430570000000 1.0
C      1  0.4647790000000  0.4071210000000  0.4655130000000 1.0
C      1  0.5342580000000  0.5954230000000  0.4752410000000 1.0
C      1  0.5298170000000  0.4125870000000  0.5277120000000 1.0
C      1  0.4645170000000  0.5927910000000  0.5319080000000 1.0
C      1  0.4966360000000  0.4657090000000  0.5824560000000 1.0
C      1  0.4080630000000  0.5365700000000  0.4984510000000 1.0
C      1  0.5028550000000  0.4672620000000  0.4200950000000 1.0
C      1  0.5953780000000  0.5401550000000  0.4994320000000 1.0
C      1  0.3977690000000  0.4843790000000  0.4544880000000 1.0
C      1  0.5463240000000  0.5015860000000  0.4058040000000 1.0
C      1  0.6091480000000  0.4904430000000  0.5427030000000 1.0
C      1  0.4564040000000  0.5140740000000  0.5977230000000 1.0
C      1  0.5007510000000  0.5571110000000  0.5523780000000 1.0
C      1  0.4387560000000  0.4397700000000  0.5003480000000 1.0
C      1  0.5123520000000  0.5506920000000  0.4522640000000 1.0
C      1  0.5633070000000  0.4445530000000  0.4980350000000 1.0
C      1  0.4359540000000  0.5669000000000  0.4623230000000 1.0
C      1  0.5359150000000  0.4252960000000  0.4271380000000 1.0
C      1  0.5635970000000  0.5698610000000  0.5363670000000 1.0
C      1  0.4622530000000  0.4302560000000  0.5659320000000 1.0
C      1  0.4710580000000  0.5165090000000  0.5069640000000 1.0
C      1  0.4906740000000  0.4886070000000  0.4734110000000 1.0
C      1  0.5352290000000  0.5091740000000  0.4958290000000 1.0
C      1  0.4950350000000  0.4881810000000  0.5295940000000 1.0
C      1  0.4182820000000  0.4054370000000  0.5016210000000 1.0
C      1  0.4978800000000  0.5893240000000  0.4234050000000 1.0
C      1  0.5844700000000  0.4113110000000  0.4922600000000 1.0
C      1  0.4999200000000  0.5972540000000  0.5796850000000 1.0
C      1  0.4313940000000  0.5362820000000  0.5558160000000 1.0
C      1  0.4413240000000  0.4631630000000  0.4314660000000 1.0
C      1  0.5716240000000  0.5387510000000  0.4434300000000 1.0
C      1  0.5585960000000  0.4645970000000  0.5685960000000 1.0
C      1  0.5710380000000  0.5683160000000  0.4530670000000 1.0
C      1  0.5505920000000  0.4358320000000  0.5604390000000 1.0
C      1  0.4327640000000  0.5668580000000  0.5493980000000 1.0
C      1  0.4492280000000  0.4330680000000  0.4347260000000 1.0
C      1  0.4840960000000  0.4449670000000  0.4937220000000 1.0
C      1  0.4921710000000  0.5556180000000  0.5077190000000 1.0
END
