TITL C-2782237-5345-870 -0.00120687626174466 125000 -147.268471487871 0 0 25 (C1) n - 1
REM
REM in /home/nfs/bkarasulu/CARBON/AIRSS/Generating-Clusters/REBO/Higher-Symm/SD-CG/HFTN-CG
REM
REM
REM
REM
REM
REM ./C.cell (12c818d87b63d06a65506943cc24bca4)
REM
REM compiler GCC version 9.2.1 20190827 (Red Hat 9.2.1-1)
REM options -cpp -mtune=generic -march=x86-64 -g -O0 -fpre-include=/usr/include/finclude/math-vector-fortran.h
REM seed -1473696644 564649279 -759362494 1735509586 331922240 934726458 1964801430 1365861335 2146995605 954910011 980547197 -1409632208 -808510098 106440270 1993084944 -1372624379 -309405049 787648456 628507084 608330491 -2024457254 -934371878 -290387247 -1083677553 -1103660624 -1290744151 606011846 1899135387 -1498524644 603446300 370267569 -126062618 -800306750
REM
CELL 1.54180   50.00000   50.00000   50.00000   90.00000   90.00000   90.00000
LATT -1
SFAC C  
C      1  0.5072360000000  0.5091170000000  0.4455490000000 1.0
C      1  0.4927320000000  0.4825750000000  0.4470060000000 1.0
C      1  0.5067740000000  0.4628570000000  0.4662380000000 1.0
C      1  0.4930180000000  0.4526400000000  0.4912850000000 1.0
C      1  0.5095730000000  0.4547970000000  0.5163020000000 1.0
C      1  0.4930600000000  0.4688120000000  0.5370410000000 1.0
C      1  0.5090260000000  0.4912930000000  0.5484420000000 1.0
C      1  0.4928510000000  0.5161260000000  0.5465920000000 1.0
C      1  0.5092190000000  0.5370380000000  0.5329770000000 1.0
C      1  0.4933980000000  0.5477090000000  0.5099540000000 1.0
C      1  0.5102660000000  0.5461970000000  0.4849340000000 1.0
C      1  0.4957410000000  0.5324940000000  0.4629010000000 1.0
C      1  0.5283970000000  0.5114270000000  0.4721210000000 1.0
C      1  0.4684190000000  0.4874440000000  0.4703340000000 1.0
C      1  0.5284380000000  0.4807070000000  0.4829610000000 1.0
C      1  0.4684060000000  0.4686450000000  0.4957250000000 1.0
C      1  0.5334740000000  0.4724920000000  0.5117070000000 1.0
C      1  0.4690670000000  0.4807250000000  0.5226420000000 1.0
C      1  0.5335190000000  0.4949960000000  0.5308780000000 1.0
C      1  0.4689720000000  0.5102460000000  0.5287910000000 1.0
C      1  0.5342440000000  0.5239110000000  0.5218780000000 1.0
C      1  0.4691190000000  0.5304170000000  0.5073160000000 1.0
C      1  0.5365920000000  0.5324900000000  0.4936270000000 1.0
C      1  0.4712660000000  0.5187240000000  0.4792400000000 1.0
C      1  0.4987980000000  0.4982140000000  0.4829700000000 1.0
END
