TITL C-2782234-8014-550 0.249014845070834 125000 -1087.8299233751 0 0 185 (C1) n - 1
REM
REM in /home/nfs/bkarasulu/CARBON/AIRSS/Generating-Clusters/REBO/Higher-Symm/SD-CG/HFTN-CG
REM
REM
REM
REM
REM
REM ./C.cell (12c818d87b63d06a65506943cc24bca4)
REM
REM compiler GCC version 9.2.1 20190827 (Red Hat 9.2.1-1)
REM options -cpp -mtune=generic -march=x86-64 -g -O0 -fpre-include=/usr/include/finclude/math-vector-fortran.h
REM seed 399387011 159688955 817579083 729381377 1974534857 -1027206978 -1925586797 626882749 1982217199 921282675 1550205679 1128318597 1467582052 -1749758517 -246186756 180122810 2079496037 -264938059 1420126340 -1243959772 340555146 1484196196 565276496 2060561884 1779095239 2312427 1980385115 -1963339797 -475287225 1549527480 -391058419 -407811488 -1575603128
REM
CELL 1.54180   50.00000   50.00000   50.00000   90.00000   90.00000   90.00000
LATT -1
SFAC C  
C      1  0.5453140000000  0.4141060000000  0.5539180000000 1.0
C      1  0.4246170000000  0.4310320000000  0.5542710000000 1.0
C      1  0.4116870000000  0.5504860000000  0.5605470000000 1.0
C      1  0.5255680000000  0.5946300000000  0.5604360000000 1.0
C      1  0.6102710000000  0.5066010000000  0.5657080000000 1.0
C      1  0.5913410000000  0.5315030000000  0.4140670000000 1.0
C      1  0.5376700000000  0.4597170000000  0.4075850000000 1.0
C      1  0.4711980000000  0.4514440000000  0.4067460000000 1.0
C      1  0.4460490000000  0.5126620000000  0.4027310000000 1.0
C      1  0.4856100000000  0.5464940000000  0.4023720000000 1.0
C      1  0.5573970000000  0.5383970000000  0.5204890000000 1.0
C      1  0.5598250000000  0.4571640000000  0.5215720000000 1.0
C      1  0.4762660000000  0.4420890000000  0.5207210000000 1.0
C      1  0.4279100000000  0.5010910000000  0.5225760000000 1.0
C      1  0.4697350000000  0.5681760000000  0.5186060000000 1.0
C      1  0.5439610000000  0.4839600000000  0.5340770000000 1.0
C      1  0.4911730000000  0.4646800000000  0.5418780000000 1.0
C      1  0.4563220000000  0.4960610000000  0.5401130000000 1.0
C      1  0.4718820000000  0.5216950000000  0.5512010000000 1.0
C      1  0.5300210000000  0.5281070000000  0.5341890000000 1.0
C      1  0.5748570000000  0.5478160000000  0.4353160000000 1.0
C      1  0.5678910000000  0.4402820000000  0.4547040000000 1.0
C      1  0.4734500000000  0.4127150000000  0.4409540000000 1.0
C      1  0.4098590000000  0.5097360000000  0.4529920000000 1.0
C      1  0.4720830000000  0.5846290000000  0.4522280000000 1.0
C      1  0.5166920000000  0.5956250000000  0.4609870000000 1.0
C      1  0.6074120000000  0.5040950000000  0.4734980000000 1.0
C      1  0.5392700000000  0.4104180000000  0.4632250000000 1.0
C      1  0.4244240000000  0.4378970000000  0.4610380000000 1.0
C      1  0.4116190000000  0.5608780000000  0.4574480000000 1.0
C      1  0.5418200000000  0.4350450000000  0.4162850000000 1.0
C      1  0.4430350000000  0.4509580000000  0.4069040000000 1.0
C      1  0.4311690000000  0.5282890000000  0.4191360000000 1.0
C      1  0.5020380000000  0.5689310000000  0.4087610000000 1.0
C      1  0.6128050000000  0.5188140000000  0.4264400000000 1.0
C      1  0.4283470000000  0.5744760000000  0.5638450000000 1.0
C      1  0.5520700000000  0.5855640000000  0.5576120000000 1.0
C      1  0.6032200000000  0.4796770000000  0.5665230000000 1.0
C      1  0.5171370000000  0.4045690000000  0.5563870000000 1.0
C      1  0.4108430000000  0.4562060000000  0.5583440000000 1.0
C      1  0.3990240000000  0.4690910000000  0.5291220000000 1.0
C      1  0.4310320000000  0.5879530000000  0.5327100000000 1.0
C      1  0.5638060000000  0.5878000000000  0.5257520000000 1.0
C      1  0.6117970000000  0.4625520000000  0.5401070000000 1.0
C      1  0.5027410000000  0.3954280000000  0.5269380000000 1.0
C      1  0.5737120000000  0.4229880000000  0.4785680000000 1.0
C      1  0.4539130000000  0.4079940000000  0.4618790000000 1.0
C      1  0.4022190000000  0.5265010000000  0.4755450000000 1.0
C      1  0.4801090000000  0.6036510000000  0.4744980000000 1.0
C      1  0.5981950000000  0.5495610000000  0.4601760000000 1.0
C      1  0.4437310000000  0.5881620000000  0.4802060000000 1.0
C      1  0.5647510000000  0.5657980000000  0.4923630000000 1.0
C      1  0.5894180000000  0.4603110000000  0.4927260000000 1.0
C      1  0.4903890000000  0.4091970000000  0.4914860000000 1.0
C      1  0.3938860000000  0.4880230000000  0.4823690000000 1.0
C      1  0.4792160000000  0.5547360000000  0.4530240000000 1.0
C      1  0.5464730000000  0.5383690000000  0.4405250000000 1.0
C      1  0.5443530000000  0.4625740000000  0.4495050000000 1.0
C      1  0.4802860000000  0.4618800000000  0.4573840000000 1.0
C      1  0.4376250000000  0.4949920000000  0.4432870000000 1.0
C      1  0.5556800000000  0.4566820000000  0.4896260000000 1.0
C      1  0.4767700000000  0.4386240000000  0.4894880000000 1.0
C      1  0.4242880000000  0.4964150000000  0.4898920000000 1.0
C      1  0.4672400000000  0.5684790000000  0.4884030000000 1.0
C      1  0.5617630000000  0.5330100000000  0.4898680000000 1.0
C      1  0.5359190000000  0.6098800000000  0.4782120000000 1.0
C      1  0.6262810000000  0.4903270000000  0.4899390000000 1.0
C      1  0.5408270000000  0.3863210000000  0.4797600000000 1.0
C      1  0.4001650000000  0.4412520000000  0.4771030000000 1.0
C      1  0.4077640000000  0.5708830000000  0.4825010000000 1.0
C      1  0.4305040000000  0.5069300000000  0.5852370000000 1.0
C      1  0.4900770000000  0.5601730000000  0.5760350000000 1.0
C      1  0.5719270000000  0.5337440000000  0.5779280000000 1.0
C      1  0.5499970000000  0.4554190000000  0.5814800000000 1.0
C      1  0.4689080000000  0.4285590000000  0.5812940000000 1.0
C      1  0.5209800000000  0.5504910000000  0.5865530000000 1.0
C      1  0.5599010000000  0.5053830000000  0.5858340000000 1.0
C      1  0.5184520000000  0.4511140000000  0.5859800000000 1.0
C      1  0.4573990000000  0.4570370000000  0.5853480000000 1.0
C      1  0.4511080000000  0.5335410000000  0.5903230000000 1.0
C      1  0.5342320000000  0.4820380000000  0.5664170000000 1.0
C      1  0.4858470000000  0.4832310000000  0.5662520000000 1.0
C      1  0.4610200000000  0.4963780000000  0.5802320000000 1.0
C      1  0.4953350000000  0.5244560000000  0.5705690000000 1.0
C      1  0.5197020000000  0.5118120000000  0.5585470000000 1.0
C      1  0.6001090000000  0.4440200000000  0.5157110000000 1.0
C      1  0.4731920000000  0.3914790000000  0.5107590000000 1.0
C      1  0.3893880000000  0.4947680000000  0.5140320000000 1.0
C      1  0.4427890000000  0.6048420000000  0.5082750000000 1.0
C      1  0.5892330000000  0.5750930000000  0.5094670000000 1.0
C      1  0.5005900000000  0.5815830000000  0.5560950000000 1.0
C      1  0.5924550000000  0.5281000000000  0.5584610000000 1.0
C      1  0.5576950000000  0.4262070000000  0.5750550000000 1.0
C      1  0.4514630000000  0.4153960000000  0.5627560000000 1.0
C      1  0.4080110000000  0.5204390000000  0.5703720000000 1.0
C      1  0.5560450000000  0.4841200000000  0.4737480000000 1.0
C      1  0.5059040000000  0.4475160000000  0.4752370000000 1.0
C      1  0.4434320000000  0.4813630000000  0.4716290000000 1.0
C      1  0.4608590000000  0.5393260000000  0.4775320000000 1.0
C      1  0.5380320000000  0.5377480000000  0.4713180000000 1.0
C      1  0.4522130000000  0.5433850000000  0.5571140000000 1.0
C      1  0.5288640000000  0.5535050000000  0.5535980000000 1.0
C      1  0.5690020000000  0.4960540000000  0.5540250000000 1.0
C      1  0.5116000000000  0.4438780000000  0.5543320000000 1.0
C      1  0.4486850000000  0.4685210000000  0.5545190000000 1.0
C      1  0.4381650000000  0.5255690000000  0.4927060000000 1.0
C      1  0.4993740000000  0.5783110000000  0.4827890000000 1.0
C      1  0.5771330000000  0.5051300000000  0.4853070000000 1.0
C      1  0.5323010000000  0.4349550000000  0.4825020000000 1.0
C      1  0.4484700000000  0.4492350000000  0.4778180000000 1.0
C      1  0.5891960000000  0.5023270000000  0.5154890000000 1.0
C      1  0.5284290000000  0.4207530000000  0.5101460000000 1.0
C      1  0.4387190000000  0.4435690000000  0.5071020000000 1.0
C      1  0.4264070000000  0.5404450000000  0.5153610000000 1.0
C      1  0.5153810000000  0.5786470000000  0.5093770000000 1.0
C      1  0.5827520000000  0.4758200000000  0.5323940000000 1.0
C      1  0.5039350000000  0.4294180000000  0.5281060000000 1.0
C      1  0.4322710000000  0.4674760000000  0.5267760000000 1.0
C      1  0.4455870000000  0.5574640000000  0.5323360000000 1.0
C      1  0.5395740000000  0.5657180000000  0.5253440000000 1.0
C      1  0.5031640000000  0.3950320000000  0.4708680000000 1.0
C      1  0.3830680000000  0.4617070000000  0.4663370000000 1.0
C      1  0.4208650000000  0.6002090000000  0.4588370000000 1.0
C      1  0.5623830000000  0.5814560000000  0.4690060000000 1.0
C      1  0.6043900000000  0.4645170000000  0.4687480000000 1.0
C      1  0.5531600000000  0.4255560000000  0.5268550000000 1.0
C      1  0.4502240000000  0.4282670000000  0.5322740000000 1.0
C      1  0.4113010000000  0.5243220000000  0.5376770000000 1.0
C      1  0.4930180000000  0.5779510000000  0.5296330000000 1.0
C      1  0.5828110000000  0.5269240000000  0.5319750000000 1.0
C      1  0.5057500000000  0.4776430000000  0.5935490000000 1.0
C      1  0.4752700000000  0.4770910000000  0.6031800000000 1.0
C      1  0.4796340000000  0.5268770000000  0.5976560000000 1.0
C      1  0.5194490000000  0.5266990000000  0.6024000000000 1.0
C      1  0.5292710000000  0.5007540000000  0.5954450000000 1.0
C      1  0.4852860000000  0.4786880000000  0.3985350000000 1.0
C      1  0.4695580000000  0.5037380000000  0.3897690000000 1.0
C      1  0.4890280000000  0.5244990000000  0.3839000000000 1.0
C      1  0.5152840000000  0.5122460000000  0.3818270000000 1.0
C      1  0.5176660000000  0.4848200000000  0.3979690000000 1.0
C      1  0.5093610000000  0.5270700000000  0.4808770000000 1.0
C      1  0.5284490000000  0.4994370000000  0.4774330000000 1.0
C      1  0.5056470000000  0.4771410000000  0.4839590000000 1.0
C      1  0.4740390000000  0.4880840000000  0.4786420000000 1.0
C      1  0.4820360000000  0.5181260000000  0.4682940000000 1.0
C      1  0.5528890000000  0.5571800000000  0.5760180000000 1.0
C      1  0.5739140000000  0.4757340000000  0.5804230000000 1.0
C      1  0.4993410000000  0.4240730000000  0.5779580000000 1.0
C      1  0.4281470000000  0.4739780000000  0.5801360000000 1.0
C      1  0.4567620000000  0.5658110000000  0.5807690000000 1.0
C      1  0.4162420000000  0.5694630000000  0.5081680000000 1.0
C      1  0.5404340000000  0.5989300000000  0.5036330000000 1.0
C      1  0.6173460000000  0.4855230000000  0.5156520000000 1.0
C      1  0.5270700000000  0.3892260000000  0.5039370000000 1.0
C      1  0.4065980000000  0.4457600000000  0.5054380000000 1.0
C      1  0.4694410000000  0.5032550000000  0.4403870000000 1.0
C      1  0.5067420000000  0.5371200000000  0.4423850000000 1.0
C      1  0.5274650000000  0.5102110000000  0.4449160000000 1.0
C      1  0.5129160000000  0.4555160000000  0.4385280000000 1.0
C      1  0.4894840000000  0.4792930000000  0.4302830000000 1.0
C      1  0.4527840000000  0.3965880000000  0.4874660000000 1.0
C      1  0.3932270000000  0.5225440000000  0.5021050000000 1.0
C      1  0.4661690000000  0.6175730000000  0.4950900000000 1.0
C      1  0.6036770000000  0.5643230000000  0.4840350000000 1.0
C      1  0.5785570000000  0.4248190000000  0.5073630000000 1.0
C      1  0.5340850000000  0.4869570000000  0.4277080000000 1.0
C      1  0.4830390000000  0.4400090000000  0.4321450000000 1.0
C      1  0.4289800000000  0.4741890000000  0.4232630000000 1.0
C      1  0.4769740000000  0.5322990000000  0.4292640000000 1.0
C      1  0.5266520000000  0.5583850000000  0.4274430000000 1.0
C      1  0.3873680000000  0.4886290000000  0.4488960000000 1.0
C      1  0.4449400000000  0.5900740000000  0.4433290000000 1.0
C      1  0.5741460000000  0.5779720000000  0.4447240000000 1.0
C      1  0.5929150000000  0.4524440000000  0.4465660000000 1.0
C      1  0.4952510000000  0.3950480000000  0.4446800000000 1.0
C      1  0.4813330000000  0.5205600000000  0.5212790000000 1.0
C      1  0.5090170000000  0.5237670000000  0.5115600000000 1.0
C      1  0.5261710000000  0.4948160000000  0.5129540000000 1.0
C      1  0.4968720000000  0.4793680000000  0.5152390000000 1.0
C      1  0.4686980000000  0.4934610000000  0.5099650000000 1.0
C      1  0.4200590000000  0.5451830000000  0.4370730000000 1.0
C      1  0.5144870000000  0.5877170000000  0.4342900000000 1.0
C      1  0.6131240000000  0.5244620000000  0.4547220000000 1.0
C      1  0.5416320000000  0.4165820000000  0.4360760000000 1.0
C      1  0.4250660000000  0.4436650000000  0.4334810000000 1.0
END
