TITL C-2782231-7322-645 -0.00322775014457519 125000 -756.966632707126 0 0 128 (C1) n - 1
REM
REM in /home/nfs/bkarasulu/CARBON/AIRSS/Generating-Clusters/REBO/Higher-Symm/SD-CG/HFTN-CG
REM
REM
REM
REM
REM
REM ./C.cell (12c818d87b63d06a65506943cc24bca4)
REM
REM compiler GCC version 9.2.1 20190827 (Red Hat 9.2.1-1)
REM options -cpp -mtune=generic -march=x86-64 -g -O0 -fpre-include=/usr/include/finclude/math-vector-fortran.h
REM seed -997042021 -1532883461 1295260320 525205444 -2045034221 -1680950912 -1733448309 -1647630506 -492590907 1147180926 1263921675 -1127084445 397054750 -132257006 -1281930525 -157135287 2078613380 1086398835 -1761342107 -121240905 -641863164 -224338830 -1363256439 -732892255 -561450610 -549682900 1814295629 873278836 -1463349784 -34221226 -697999721 2080196644 -1227692762
REM
CELL 1.54180   50.00000   50.00000   50.00000   90.00000   90.00000   90.00000
LATT -1
SFAC C  
C      1  0.4967960000000  0.5992200000000  0.4948660000000 1.0
C      1  0.5949580000000  0.5306230000000  0.4933920000000 1.0
C      1  0.5657940000000  0.4240710000000  0.4985460000000 1.0
C      1  0.4385970000000  0.4064120000000  0.4921860000000 1.0
C      1  0.4010920000000  0.5369010000000  0.4863530000000 1.0
C      1  0.5023580000000  0.4495210000000  0.4324650000000 1.0
C      1  0.4471860000000  0.4827270000000  0.4239750000000 1.0
C      1  0.4701890000000  0.5464220000000  0.4304690000000 1.0
C      1  0.5330240000000  0.5415180000000  0.4268970000000 1.0
C      1  0.5554260000000  0.4859220000000  0.4303030000000 1.0
C      1  0.5517710000000  0.5421650000000  0.5854770000000 1.0
C      1  0.5574160000000  0.4717470000000  0.5854680000000 1.0
C      1  0.4854170000000  0.4499770000000  0.5743260000000 1.0
C      1  0.4490200000000  0.5042010000000  0.5722310000000 1.0
C      1  0.4911840000000  0.5578650000000  0.5710870000000 1.0
C      1  0.4181730000000  0.4709050000000  0.5132530000000 1.0
C      1  0.4514830000000  0.5266570000000  0.5226740000000 1.0
C      1  0.5326560000000  0.5625540000000  0.5223150000000 1.0
C      1  0.5651720000000  0.5020490000000  0.5254340000000 1.0
C      1  0.5048800000000  0.4326100000000  0.5102170000000 1.0
C      1  0.5593960000000  0.4410520000000  0.5485520000000 1.0
C      1  0.4579360000000  0.4234500000000  0.5417500000000 1.0
C      1  0.4147370000000  0.5282960000000  0.5376620000000 1.0
C      1  0.5072680000000  0.5743870000000  0.5388130000000 1.0
C      1  0.5742880000000  0.5299550000000  0.5431020000000 1.0
C      1  0.5326690000000  0.5176020000000  0.5083350000000 1.0
C      1  0.5296970000000  0.4541260000000  0.5042420000000 1.0
C      1  0.4612520000000  0.4640370000000  0.4997130000000 1.0
C      1  0.4574600000000  0.4977240000000  0.4966330000000 1.0
C      1  0.5050320000000  0.5380580000000  0.5082010000000 1.0
C      1  0.5248270000000  0.5546340000000  0.5915300000000 1.0
C      1  0.5595300000000  0.5012770000000  0.5824940000000 1.0
C      1  0.5182250000000  0.4530950000000  0.5758480000000 1.0
C      1  0.4587030000000  0.4755750000000  0.5837810000000 1.0
C      1  0.4753520000000  0.5308750000000  0.5587640000000 1.0
C      1  0.5873700000000  0.5428360000000  0.4674090000000 1.0
C      1  0.5695900000000  0.4344220000000  0.4700360000000 1.0
C      1  0.4489730000000  0.4076270000000  0.4650230000000 1.0
C      1  0.3992400000000  0.5235020000000  0.4610050000000 1.0
C      1  0.4868900000000  0.5958790000000  0.4685640000000 1.0
C      1  0.5622330000000  0.5077090000000  0.4947160000000 1.0
C      1  0.5269860000000  0.4232680000000  0.4894370000000 1.0
C      1  0.4306190000000  0.4550550000000  0.4877310000000 1.0
C      1  0.4455830000000  0.5290340000000  0.4898870000000 1.0
C      1  0.5178220000000  0.5655210000000  0.4918740000000 1.0
C      1  0.5137170000000  0.5222050000000  0.4726370000000 1.0
C      1  0.5350540000000  0.4758240000000  0.4631740000000 1.0
C      1  0.4814820000000  0.4741840000000  0.4651400000000 1.0
C      1  0.4602980000000  0.4997620000000  0.4570900000000 1.0
C      1  0.4927640000000  0.5388010000000  0.4626740000000 1.0
C      1  0.4448370000000  0.4980580000000  0.5403370000000 1.0
C      1  0.4738190000000  0.5694510000000  0.5454310000000 1.0
C      1  0.5628690000000  0.5521190000000  0.5608160000000 1.0
C      1  0.5736230000000  0.4603110000000  0.5642150000000 1.0
C      1  0.4859290000000  0.4388250000000  0.5447120000000 1.0
C      1  0.5788860000000  0.5062890000000  0.5625430000000 1.0
C      1  0.5322780000000  0.4369770000000  0.5572000000000 1.0
C      1  0.4525780000000  0.4495850000000  0.5632880000000 1.0
C      1  0.4409340000000  0.5332220000000  0.5587340000000 1.0
C      1  0.5192080000000  0.5772080000000  0.5697220000000 1.0
C      1  0.5704390000000  0.5663970000000  0.4549590000000 1.0
C      1  0.5846260000000  0.4601550000000  0.4667840000000 1.0
C      1  0.4789590000000  0.4102460000000  0.4572360000000 1.0
C      1  0.3999910000000  0.4924380000000  0.4505630000000 1.0
C      1  0.4622720000000  0.5786530000000  0.4694240000000 1.0
C      1  0.4286510000000  0.4980140000000  0.4694400000000 1.0
C      1  0.4758850000000  0.5527080000000  0.4796950000000 1.0
C      1  0.5389860000000  0.5361470000000  0.4739580000000 1.0
C      1  0.5567980000000  0.4708550000000  0.4803010000000 1.0
C      1  0.4767780000000  0.4431710000000  0.4693580000000 1.0
C      1  0.5097810000000  0.4746490000000  0.5173300000000 1.0
C      1  0.4831800000000  0.4629930000000  0.5261980000000 1.0
C      1  0.4726160000000  0.4933300000000  0.5243460000000 1.0
C      1  0.4891460000000  0.5198580000000  0.5328990000000 1.0
C      1  0.5116230000000  0.5004800000000  0.5200210000000 1.0
C      1  0.5193120000000  0.5694020000000  0.4613330000000 1.0
C      1  0.5728680000000  0.5057960000000  0.4693810000000 1.0
C      1  0.5264940000000  0.4199610000000  0.4604230000000 1.0
C      1  0.4280980000000  0.4537230000000  0.4574750000000 1.0
C      1  0.4350430000000  0.5410540000000  0.4626410000000 1.0
C      1  0.5254210000000  0.4821460000000  0.5905750000000 1.0
C      1  0.4921630000000  0.4794870000000  0.5898130000000 1.0
C      1  0.4802570000000  0.5085360000000  0.5840180000000 1.0
C      1  0.5014880000000  0.5307970000000  0.5889820000000 1.0
C      1  0.5312220000000  0.5154690000000  0.5904850000000 1.0
C      1  0.5781800000000  0.4846850000000  0.4497350000000 1.0
C      1  0.5027090000000  0.4235810000000  0.4460400000000 1.0
C      1  0.4218100000000  0.4742480000000  0.4382690000000 1.0
C      1  0.4506210000000  0.5604810000000  0.4497810000000 1.0
C      1  0.5430930000000  0.5633740000000  0.4450740000000 1.0
C      1  0.4776620000000  0.4340970000000  0.4994970000000 1.0
C      1  0.4238440000000  0.4973770000000  0.5002990000000 1.0
C      1  0.4729700000000  0.5490050000000  0.5110640000000 1.0
C      1  0.5498550000000  0.5447440000000  0.5032640000000 1.0
C      1  0.5578270000000  0.4719170000000  0.5113970000000 1.0
C      1  0.4583700000000  0.4150190000000  0.5137770000000 1.0
C      1  0.4091340000000  0.5208470000000  0.5118380000000 1.0
C      1  0.4840980000000  0.5809220000000  0.5161510000000 1.0
C      1  0.5771420000000  0.5398330000000  0.5134530000000 1.0
C      1  0.5654490000000  0.4430020000000  0.5205360000000 1.0
C      1  0.4327610000000  0.4662450000000  0.5420020000000 1.0
C      1  0.4456650000000  0.5612850000000  0.5443760000000 1.0
C      1  0.5457600000000  0.5761960000000  0.5490160000000 1.0
C      1  0.5895190000000  0.4820740000000  0.5500080000000 1.0
C      1  0.5128750000000  0.4204870000000  0.5393440000000 1.0
C      1  0.4712580000000  0.4615970000000  0.4344260000000 1.0
C      1  0.4558010000000  0.5157590000000  0.4267890000000 1.0
C      1  0.5028870000000  0.5444800000000  0.4306340000000 1.0
C      1  0.5453920000000  0.5133130000000  0.4286870000000 1.0
C      1  0.5346120000000  0.4602350000000  0.4344240000000 1.0
C      1  0.4278290000000  0.5187750000000  0.4423350000000 1.0
C      1  0.4916010000000  0.5734910000000  0.4431530000000 1.0
C      1  0.5600930000000  0.5281190000000  0.4528900000000 1.0
C      1  0.5483960000000  0.4339750000000  0.4502200000000 1.0
C      1  0.4515020000000  0.4371810000000  0.4481710000000 1.0
C      1  0.5259740000000  0.5971420000000  0.5038090000000 1.0
C      1  0.6062000000000  0.5053730000000  0.5030870000000 1.0
C      1  0.5447490000000  0.4022100000000  0.5046560000000 1.0
C      1  0.4225550000000  0.4296860000000  0.5042230000000 1.0
C      1  0.4249430000000  0.5547200000000  0.4980170000000 1.0
C      1  0.4213540000000  0.4358600000000  0.5313950000000 1.0
C      1  0.4305540000000  0.5669970000000  0.5225010000000 1.0
C      1  0.5424590000000  0.6008890000000  0.5257450000000 1.0
C      1  0.6024840000000  0.4877620000000  0.5245730000000 1.0
C      1  0.5313840000000  0.3962730000000  0.5284260000000 1.0
C      1  0.5100240000000  0.4913920000000  0.4667130000000 1.0
C      1  0.4908380000000  0.5046500000000  0.4421770000000 1.0
C      1  0.4959730000000  0.5077080000000  0.4166660000000 1.0
END
