TITL C-2782227-3064-695 0.00217979555839663 125000 -1016.02443253178 0 0 179 (C1) n - 1
REM
REM in /home/nfs/bkarasulu/CARBON/AIRSS/Generating-Clusters/REBO/Higher-Symm/SD-CG/HFTN-CG
REM
REM
REM
REM
REM
REM ./C.cell (12c818d87b63d06a65506943cc24bca4)
REM
REM compiler GCC version 9.2.1 20190827 (Red Hat 9.2.1-1)
REM options -cpp -mtune=generic -march=x86-64 -g -O0 -fpre-include=/usr/include/finclude/math-vector-fortran.h
REM seed -538375260 534471078 -38095508 -1417056941 1895319408 2121226928 -240297152 -1582182372 1551199096 -2066728481 -1553136977 1838804938 1173683043 -236831989 2062336836 -1077311863 1608390535 -257644124 -322076388 -913002530 1190820654 1501117103 -2016784586 -483182585 1360270100 -1080033763 2076839450 1374114033 -1655572215 -1324991051 1766553387 -710208242 436723612
REM
CELL 1.54180   50.00000   50.00000   50.00000   90.00000   90.00000   90.00000
LATT -1
SFAC C  
C      1  0.5045250000000  0.4170050000000  0.5848480000000 1.0
C      1  0.5971040000000  0.4234430000000  0.5033420000000 1.0
C      1  0.4884160000000  0.4301840000000  0.4059740000000 1.0
C      1  0.4028070000000  0.4237920000000  0.5059210000000 1.0
C      1  0.5060350000000  0.5772630000000  0.4117270000000 1.0
C      1  0.5896820000000  0.5804420000000  0.5047350000000 1.0
C      1  0.4949310000000  0.5800280000000  0.5887980000000 1.0
C      1  0.4086130000000  0.5791040000000  0.4973000000000 1.0
C      1  0.4108090000000  0.5932380000000  0.5208190000000 1.0
C      1  0.5165040000000  0.5967930000000  0.5850100000000 1.0
C      1  0.5883760000000  0.5948970000000  0.4813700000000 1.0
C      1  0.4832120000000  0.5923490000000  0.4142050000000 1.0
C      1  0.4097650000000  0.4124150000000  0.4816940000000 1.0
C      1  0.5081100000000  0.4112560000000  0.4086170000000 1.0
C      1  0.5937250000000  0.4078370000000  0.5257400000000 1.0
C      1  0.4869480000000  0.4032940000000  0.5723930000000 1.0
C      1  0.4855050000000  0.4606760000000  0.5667500000000 1.0
C      1  0.5695950000000  0.4662070000000  0.5131990000000 1.0
C      1  0.5121150000000  0.4637510000000  0.4325270000000 1.0
C      1  0.4277620000000  0.4631910000000  0.4909650000000 1.0
C      1  0.4886530000000  0.5336180000000  0.4321620000000 1.0
C      1  0.5667330000000  0.5353990000000  0.4926530000000 1.0
C      1  0.5112750000000  0.5357860000000  0.5681210000000 1.0
C      1  0.4302060000000  0.5336600000000  0.5100180000000 1.0
C      1  0.4883510000000  0.4472680000000  0.5169710000000 1.0
C      1  0.5222950000000  0.4495540000000  0.5199930000000 1.0
C      1  0.5200280000000  0.4466050000000  0.4860690000000 1.0
C      1  0.4766600000000  0.4452240000000  0.4876460000000 1.0
C      1  0.4866640000000  0.5460950000000  0.4832260000000 1.0
C      1  0.5207050000000  0.5463710000000  0.4829470000000 1.0
C      1  0.5130790000000  0.5484350000000  0.5159840000000 1.0
C      1  0.4790070000000  0.5477430000000  0.5155200000000 1.0
C      1  0.4543810000000  0.4188650000000  0.5217440000000 1.0
C      1  0.5421310000000  0.4194270000000  0.5325400000000 1.0
C      1  0.5360660000000  0.4150680000000  0.4680660000000 1.0
C      1  0.4726830000000  0.4224500000000  0.4627680000000 1.0
C      1  0.4742080000000  0.5783320000000  0.4635580000000 1.0
C      1  0.5393070000000  0.5789570000000  0.4701850000000 1.0
C      1  0.5249520000000  0.5817750000000  0.5342890000000 1.0
C      1  0.4604480000000  0.5789590000000  0.5274280000000 1.0
C      1  0.5219480000000  0.4103280000000  0.4320470000000 1.0
C      1  0.4345450000000  0.4149930000000  0.4706860000000 1.0
C      1  0.4762450000000  0.4161800000000  0.5458810000000 1.0
C      1  0.5726930000000  0.4100800000000  0.5429650000000 1.0
C      1  0.5341230000000  0.5939350000000  0.5644610000000 1.0
C      1  0.4310410000000  0.5891490000000  0.5386490000000 1.0
C      1  0.4644100000000  0.5890230000000  0.4335060000000 1.0
C      1  0.5696680000000  0.5906470000000  0.4621180000000 1.0
C      1  0.5905760000000  0.5310920000000  0.4730250000000 1.0
C      1  0.4765260000000  0.5269020000000  0.4057150000000 1.0
C      1  0.4037910000000  0.5259690000000  0.5227850000000 1.0
C      1  0.5247600000000  0.5259150000000  0.5926880000000 1.0
C      1  0.5936590000000  0.4802700000000  0.5222990000000 1.0
C      1  0.4710350000000  0.4674980000000  0.5933690000000 1.0
C      1  0.4062180000000  0.4756560000000  0.4748020000000 1.0
C      1  0.5280090000000  0.4767570000000  0.4112890000000 1.0
C      1  0.4900620000000  0.4896120000000  0.6061350000000 1.0
C      1  0.6122810000000  0.5021370000000  0.5054560000000 1.0
C      1  0.5151880000000  0.4973420000000  0.3883350000000 1.0
C      1  0.3835920000000  0.4973090000000  0.4863100000000 1.0
C      1  0.4894490000000  0.5050500000000  0.3862410000000 1.0
C      1  0.6067050000000  0.5086750000000  0.4792740000000 1.0
C      1  0.5086490000000  0.5090540000000  0.6172610000000 1.0
C      1  0.3811470000000  0.5052030000000  0.5123740000000 1.0
C      1  0.5901320000000  0.4999520000000  0.4353030000000 1.0
C      1  0.4452740000000  0.5158440000000  0.4078690000000 1.0
C      1  0.4083530000000  0.5140550000000  0.5540160000000 1.0
C      1  0.5556330000000  0.5110170000000  0.5908480000000 1.0
C      1  0.5886470000000  0.4901840000000  0.5533450000000 1.0
C      1  0.4454120000000  0.4855460000000  0.5824880000000 1.0
C      1  0.4160650000000  0.4885670000000  0.4449130000000 1.0
C      1  0.5603820000000  0.4873230000000  0.4119280000000 1.0
C      1  0.5810410000000  0.5335830000000  0.4422570000000 1.0
C      1  0.4336390000000  0.5364830000000  0.4267030000000 1.0
C      1  0.4272660000000  0.5336770000000  0.5669420000000 1.0
C      1  0.5594560000000  0.5387480000000  0.5722830000000 1.0
C      1  0.5755090000000  0.4671690000000  0.5681490000000 1.0
C      1  0.4294890000000  0.4599610000000  0.5666710000000 1.0
C      1  0.4330620000000  0.4627780000000  0.4305200000000 1.0
C      1  0.5616090000000  0.4552920000000  0.4235120000000 1.0
C      1  0.4566690000000  0.4829610000000  0.4552360000000 1.0
C      1  0.4474850000000  0.4803230000000  0.5376520000000 1.0
C      1  0.5431630000000  0.4857320000000  0.5537620000000 1.0
C      1  0.5519780000000  0.4793560000000  0.4616970000000 1.0
C      1  0.4558350000000  0.5099410000000  0.5463340000000 1.0
C      1  0.4500240000000  0.5136070000000  0.4622100000000 1.0
C      1  0.5459370000000  0.5109400000000  0.4506030000000 1.0
C      1  0.5480200000000  0.5156500000000  0.5399090000000 1.0
C      1  0.5212250000000  0.5166690000000  0.5173850000000 1.0
C      1  0.5194370000000  0.5162630000000  0.4695570000000 1.0
C      1  0.4794310000000  0.5135570000000  0.4827160000000 1.0
C      1  0.4816930000000  0.5175900000000  0.5272790000000 1.0
C      1  0.5249590000000  0.4792780000000  0.4831770000000 1.0
C      1  0.5188610000000  0.4797500000000  0.5318070000000 1.0
C      1  0.4824550000000  0.4795180000000  0.5154320000000 1.0
C      1  0.4809700000000  0.4744680000000  0.4750050000000 1.0
C      1  0.4396650000000  0.5186330000000  0.5880810000000 1.0
C      1  0.5851990000000  0.5214160000000  0.5664440000000 1.0
C      1  0.5762530000000  0.5175110000000  0.4121390000000 1.0
C      1  0.4107500000000  0.5212480000000  0.4360750000000 1.0
C      1  0.4270900000000  0.4869800000000  0.4069930000000 1.0
C      1  0.5887660000000  0.4667590000000  0.4305520000000 1.0
C      1  0.5657850000000  0.4786120000000  0.5926950000000 1.0
C      1  0.4075280000000  0.4845230000000  0.5711750000000 1.0
C      1  0.4680520000000  0.5400520000000  0.4552770000000 1.0
C      1  0.4504990000000  0.5408360000000  0.5330220000000 1.0
C      1  0.5309520000000  0.5438460000000  0.5447390000000 1.0
C      1  0.5498940000000  0.5409340000000  0.4661200000000 1.0
C      1  0.4665440000000  0.4546690000000  0.5420200000000 1.0
C      1  0.4483100000000  0.4531220000000  0.4701030000000 1.0
C      1  0.5324050000000  0.4523890000000  0.4547780000000 1.0
C      1  0.5509790000000  0.4577420000000  0.5371980000000 1.0
C      1  0.4553110000000  0.4811460000000  0.4973340000000 1.0
C      1  0.4918260000000  0.4846940000000  0.5472930000000 1.0
C      1  0.5440550000000  0.4849210000000  0.5092160000000 1.0
C      1  0.5050130000000  0.4812760000000  0.4569220000000 1.0
C      1  0.4550230000000  0.5116860000000  0.5064550000000 1.0
C      1  0.4943260000000  0.5102970000000  0.4519840000000 1.0
C      1  0.5437180000000  0.5130620000000  0.4935820000000 1.0
C      1  0.5051500000000  0.5135800000000  0.5477430000000 1.0
C      1  0.5663340000000  0.5604930000000  0.5110960000000 1.0
C      1  0.5116310000000  0.5536280000000  0.4326230000000 1.0
C      1  0.4314860000000  0.5589230000000  0.4901860000000 1.0
C      1  0.4895160000000  0.5589950000000  0.5662300000000 1.0
C      1  0.5732520000000  0.4420540000000  0.4944800000000 1.0
C      1  0.5110850000000  0.4448580000000  0.5702300000000 1.0
C      1  0.4162810000000  0.4467580000000  0.5145330000000 1.0
C      1  0.4865400000000  0.4521970000000  0.4216630000000 1.0
C      1  0.5404540000000  0.5769480000000  0.5043450000000 1.0
C      1  0.5078100000000  0.5745030000000  0.4579270000000 1.0
C      1  0.4582310000000  0.5750220000000  0.4935260000000 1.0
C      1  0.4918050000000  0.5761780000000  0.5403110000000 1.0
C      1  0.5489570000000  0.4222720000000  0.4988590000000 1.0
C      1  0.5105680000000  0.4213040000000  0.5456210000000 1.0
C      1  0.4584600000000  0.4099550000000  0.4914460000000 1.0
C      1  0.5035230000000  0.4086550000000  0.4587040000000 1.0
C      1  0.4085940000000  0.4832770000000  0.3883770000000 1.0
C      1  0.3873080000000  0.4809040000000  0.5899190000000 1.0
C      1  0.5483260000000  0.4599900000000  0.6074190000000 1.0
C      1  0.6030150000000  0.4505700000000  0.4502910000000 1.0
C      1  0.4613660000000  0.5333800000000  0.6010410000000 1.0
C      1  0.3948580000000  0.5380690000000  0.4545660000000 1.0
C      1  0.5587700000000  0.5420480000000  0.4102620000000 1.0
C      1  0.5999630000000  0.5438750000000  0.5520890000000 1.0
C      1  0.5489000000000  0.5663810000000  0.5564940000000 1.0
C      1  0.5629430000000  0.5621560000000  0.4486930000000 1.0
C      1  0.4495980000000  0.5618650000000  0.4427620000000 1.0
C      1  0.4398270000000  0.5618260000000  0.5524540000000 1.0
C      1  0.5482150000000  0.4291700000000  0.4394130000000 1.0
C      1  0.5637660000000  0.4375240000000  0.5559790000000 1.0
C      1  0.4445860000000  0.4338280000000  0.5507910000000 1.0
C      1  0.4454860000000  0.4340450000000  0.4447170000000 1.0
C      1  0.4641380000000  0.4716260000000  0.4239380000000 1.0
C      1  0.4213520000000  0.4719470000000  0.5294470000000 1.0
C      1  0.5310970000000  0.4652200000000  0.5782840000000 1.0
C      1  0.5792330000000  0.4628750000000  0.4713920000000 1.0
C      1  0.4715270000000  0.5319110000000  0.5680240000000 1.0
C      1  0.4252920000000  0.5355710000000  0.4704360000000 1.0
C      1  0.5358530000000  0.5359610000000  0.4291070000000 1.0
C      1  0.5728280000000  0.5375750000000  0.5320670000000 1.0
C      1  0.4659950000000  0.4910450000000  0.4019000000000 1.0
C      1  0.3994700000000  0.4899580000000  0.5328880000000 1.0
C      1  0.5283670000000  0.4921570000000  0.5951450000000 1.0
C      1  0.5990940000000  0.4878020000000  0.4625780000000 1.0
C      1  0.4751190000000  0.5024320000000  0.5801990000000 1.0
C      1  0.4121060000000  0.5074840000000  0.4731620000000 1.0
C      1  0.5354080000000  0.5097400000000  0.4113610000000 1.0
C      1  0.5921200000000  0.5130980000000  0.5282630000000 1.0
C      1  0.5036430000000  0.3992170000000  0.5223390000000 1.0
C      1  0.5316680000000  0.3941570000000  0.5036600000000 1.0
C      1  0.5053530000000  0.3880030000000  0.4840360000000 1.0
C      1  0.4783600000000  0.3888150000000  0.5026380000000 1.0
C      1  0.5028250000000  0.6040700000000  0.4738370000000 1.0
C      1  0.5221280000000  0.6050840000000  0.5019690000000 1.0
C      1  0.4944710000000  0.6043530000000  0.5219160000000 1.0
C      1  0.4751120000000  0.6043270000000  0.4938130000000 1.0
C      1  0.5091830000000  0.4202310000000  0.4963410000000 1.0
C      1  0.4989880000000  0.5790610000000  0.4980700000000 1.0
C      1  0.5021040000000  0.4971630000000  0.4999330000000 1.0
END
