TITL C-2782233-7966-724 0.0162074937762376 125000 -838.474019122837 0 0 145 (C1) n - 1
REM
REM in /home/nfs/bkarasulu/CARBON/AIRSS/Generating-Clusters/REBO/Higher-Symm/SD-CG/HFTN-CG
REM
REM
REM
REM
REM
REM ./C.cell (12c818d87b63d06a65506943cc24bca4)
REM
REM compiler GCC version 9.2.1 20190827 (Red Hat 9.2.1-1)
REM options -cpp -mtune=generic -march=x86-64 -g -O0 -fpre-include=/usr/include/finclude/math-vector-fortran.h
REM seed 1724688899 -1708277832 -115029505 471884951 2085993139 -1159257229 -2145356836 1351989494 1505185373 1602346242 -477006081 -432774979 113782821 -1413319834 -1780807717 585019808 535117882 -1878147009 -526086672 708202549 1676989079 -994063290 1075207274 2133486208 1733684910 780933301 -359426540 837889349 148307223 -1776997435 -1008055507 -1571802153 -481769925
REM
CELL 1.54180   50.00000   50.00000   50.00000   90.00000   90.00000   90.00000
LATT -1
SFAC C  
C      1  0.5474120000000  0.5172570000000  0.5217980000000 1.0
C      1  0.5024370000000  0.5646040000000  0.5297740000000 1.0
C      1  0.4540110000000  0.5144450000000  0.5294770000000 1.0
C      1  0.4573070000000  0.4495000000000  0.5209520000000 1.0
C      1  0.5341710000000  0.4544710000000  0.5316740000000 1.0
C      1  0.5209000000000  0.5777960000000  0.4732330000000 1.0
C      1  0.4359100000000  0.5401830000000  0.4735620000000 1.0
C      1  0.4301140000000  0.4450250000000  0.4696920000000 1.0
C      1  0.5283990000000  0.4272840000000  0.4747610000000 1.0
C      1  0.5841800000000  0.5044170000000  0.4721800000000 1.0
C      1  0.5133130000000  0.5634630000000  0.5710110000000 1.0
C      1  0.4495010000000  0.5281350000000  0.5666470000000 1.0
C      1  0.4550750000000  0.4621790000000  0.5680660000000 1.0
C      1  0.5261040000000  0.4433690000000  0.5689380000000 1.0
C      1  0.5689120000000  0.5104450000000  0.5704920000000 1.0
C      1  0.5682220000000  0.4931180000000  0.5342060000000 1.0
C      1  0.5337870000000  0.5604970000000  0.5369780000000 1.0
C      1  0.4574330000000  0.5482250000000  0.5331230000000 1.0
C      1  0.4351570000000  0.4693150000000  0.5342080000000 1.0
C      1  0.5070220000000  0.4349720000000  0.5348690000000 1.0
C      1  0.5465310000000  0.4634690000000  0.4834800000000 1.0
C      1  0.5498080000000  0.5312150000000  0.4844310000000 1.0
C      1  0.4802110000000  0.5558140000000  0.4835780000000 1.0
C      1  0.4408940000000  0.5009410000000  0.4831990000000 1.0
C      1  0.4801700000000  0.4447830000000  0.4843600000000 1.0
C      1  0.5688980000000  0.5064190000000  0.4115400000000 1.0
C      1  0.5155940000000  0.5678540000000  0.4119160000000 1.0
C      1  0.4406680000000  0.5356070000000  0.4092070000000 1.0
C      1  0.4479930000000  0.4544360000000  0.4132310000000 1.0
C      1  0.5277120000000  0.4366000000000  0.4103420000000 1.0
C      1  0.4487700000000  0.4669170000000  0.4511970000000 1.0
C      1  0.5153000000000  0.4430220000000  0.4506160000000 1.0
C      1  0.5595580000000  0.4959040000000  0.4506230000000 1.0
C      1  0.5224520000000  0.5547380000000  0.4503580000000 1.0
C      1  0.4561290000000  0.5361340000000  0.4492180000000 1.0
C      1  0.5843990000000  0.4711230000000  0.4507870000000 1.0
C      1  0.5535080000000  0.5711840000000  0.4518850000000 1.0
C      1  0.4473050000000  0.5701390000000  0.4502920000000 1.0
C      1  0.4149190000000  0.4761930000000  0.4506870000000 1.0
C      1  0.5012800000000  0.4107680000000  0.4509840000000 1.0
C      1  0.5061330000000  0.4682750000000  0.5566130000000 1.0
C      1  0.5191090000000  0.4986810000000  0.5519450000000 1.0
C      1  0.5127390000000  0.5308400000000  0.5603450000000 1.0
C      1  0.4810550000000  0.5180160000000  0.5585580000000 1.0
C      1  0.4793640000000  0.4855090000000  0.5606540000000 1.0
C      1  0.4210850000000  0.4570710000000  0.5063490000000 1.0
C      1  0.5183570000000  0.4138660000000  0.5107370000000 1.0
C      1  0.5901520000000  0.4904490000000  0.5090000000000 1.0
C      1  0.5334350000000  0.5811760000000  0.5107480000000 1.0
C      1  0.4351680000000  0.5579260000000  0.5091820000000 1.0
C      1  0.5283740000000  0.4456980000000  0.5029920000000 1.0
C      1  0.5609060000000  0.5023130000000  0.4962120000000 1.0
C      1  0.5065550000000  0.5630400000000  0.4983480000000 1.0
C      1  0.4454450000000  0.5263670000000  0.5022010000000 1.0
C      1  0.4522250000000  0.4587600000000  0.4907440000000 1.0
C      1  0.4081490000000  0.5401320000000  0.5039240000000 1.0
C      1  0.4317930000000  0.4255320000000  0.4981340000000 1.0
C      1  0.5503390000000  0.4130150000000  0.4978290000000 1.0
C      1  0.5949250000000  0.5228770000000  0.4990320000000 1.0
C      1  0.5108830000000  0.6023790000000  0.4957170000000 1.0
C      1  0.4569550000000  0.5848420000000  0.5487480000000 1.0
C      1  0.4002290000000  0.4830250000000  0.5469000000000 1.0
C      1  0.4861380000000  0.4045260000000  0.5496750000000 1.0
C      1  0.5834110000000  0.4586000000000  0.5467090000000 1.0
C      1  0.5690210000000  0.5696790000000  0.5529650000000 1.0
C      1  0.4287690000000  0.4817090000000  0.5654210000000 1.0
C      1  0.4961490000000  0.4310990000000  0.5672500000000 1.0
C      1  0.5663690000000  0.4792860000000  0.5666870000000 1.0
C      1  0.5443650000000  0.5537790000000  0.5686480000000 1.0
C      1  0.4627180000000  0.5573110000000  0.5657890000000 1.0
C      1  0.4876170000000  0.5504760000000  0.5839280000000 1.0
C      1  0.4504140000000  0.5013320000000  0.5829990000000 1.0
C      1  0.4811250000000  0.4531220000000  0.5837720000000 1.0
C      1  0.5402990000000  0.4687860000000  0.5803370000000 1.0
C      1  0.5469880000000  0.5255180000000  0.5807220000000 1.0
C      1  0.4947160000000  0.5269100000000  0.4869090000000 1.0
C      1  0.4734110000000  0.5028760000000  0.4869120000000 1.0
C      1  0.4883900000000  0.4752210000000  0.4878910000000 1.0
C      1  0.5194680000000  0.4812710000000  0.4879220000000 1.0
C      1  0.5235220000000  0.5127290000000  0.4878990000000 1.0
C      1  0.4547940000000  0.4163760000000  0.4747960000000 1.0
C      1  0.5663340000000  0.4308650000000  0.4736820000000 1.0
C      1  0.5859240000000  0.5425690000000  0.4732970000000 1.0
C      1  0.4861570000000  0.5937790000000  0.4742480000000 1.0
C      1  0.4083520000000  0.5220280000000  0.4751030000000 1.0
C      1  0.5226100000000  0.5304650000000  0.5280440000000 1.0
C      1  0.4884440000000  0.5345770000000  0.5295210000000 1.0
C      1  0.4629160000000  0.4868150000000  0.5332230000000 1.0
C      1  0.4848210000000  0.4597220000000  0.5311920000000 1.0
C      1  0.5386230000000  0.4821610000000  0.5382970000000 1.0
C      1  0.4630670000000  0.5829380000000  0.4955960000000 1.0
C      1  0.4091920000000  0.4928900000000  0.4931300000000 1.0
C      1  0.4813660000000  0.4126550000000  0.4957120000000 1.0
C      1  0.5777190000000  0.4552320000000  0.4944630000000 1.0
C      1  0.5664900000000  0.5583600000000  0.4963230000000 1.0
C      1  0.5216580000000  0.4846270000000  0.5946040000000 1.0
C      1  0.5236790000000  0.5139530000000  0.5945760000000 1.0
C      1  0.4944210000000  0.5246020000000  0.5956580000000 1.0
C      1  0.4759540000000  0.5005140000000  0.5974280000000 1.0
C      1  0.4932210000000  0.4759240000000  0.5968500000000 1.0
C      1  0.5207660000000  0.5124070000000  0.4181820000000 1.0
C      1  0.4945070000000  0.5236610000000  0.4174710000000 1.0
C      1  0.4755220000000  0.5020840000000  0.4163070000000 1.0
C      1  0.4903220000000  0.4774670000000  0.4174420000000 1.0
C      1  0.5182550000000  0.4839350000000  0.4178330000000 1.0
C      1  0.5080570000000  0.5276460000000  0.4547830000000 1.0
C      1  0.4766130000000  0.5142360000000  0.4541870000000 1.0
C      1  0.4773260000000  0.4799870000000  0.4550510000000 1.0
C      1  0.5107140000000  0.4727070000000  0.4553340000000 1.0
C      1  0.5296570000000  0.5012160000000  0.4554200000000 1.0
C      1  0.5071690000000  0.4010370000000  0.4812800000000 1.0
C      1  0.5983800000000  0.4743390000000  0.4800710000000 1.0
C      1  0.5528960000000  0.5833700000000  0.4827290000000 1.0
C      1  0.4364270000000  0.5736840000000  0.4800560000000 1.0
C      1  0.4034290000000  0.4650840000000  0.4783620000000 1.0
C      1  0.4684330000000  0.5913810000000  0.5242200000000 1.0
C      1  0.3993090000000  0.4968900000000  0.5227310000000 1.0
C      1  0.4733940000000  0.4060880000000  0.5248140000000 1.0
C      1  0.5791650000000  0.4452390000000  0.5231430000000 1.0
C      1  0.5742510000000  0.5616070000000  0.5268480000000 1.0
C      1  0.4046920000000  0.5246230000000  0.5276120000000 1.0
C      1  0.4459780000000  0.4197930000000  0.5270100000000 1.0
C      1  0.5623050000000  0.4225910000000  0.5256270000000 1.0
C      1  0.5782780000000  0.5305940000000  0.5246090000000 1.0
C      1  0.4991790000000  0.5973680000000  0.5263970000000 1.0
C      1  0.4263480000000  0.5265220000000  0.5456620000000 1.0
C      1  0.4424290000000  0.4357390000000  0.5552820000000 1.0
C      1  0.5437190000000  0.4265460000000  0.5487270000000 1.0
C      1  0.5871520000000  0.5223730000000  0.5536680000000 1.0
C      1  0.5096400000000  0.5918300000000  0.5577430000000 1.0
C      1  0.4286040000000  0.5064080000000  0.4519380000000 1.0
C      1  0.4760140000000  0.4320870000000  0.4530800000000 1.0
C      1  0.5551080000000  0.4548260000000  0.4520390000000 1.0
C      1  0.5591520000000  0.5380850000000  0.4525940000000 1.0
C      1  0.4806930000000  0.5684770000000  0.4519910000000 1.0
C      1  0.5017780000000  0.4286560000000  0.4228450000000 1.0
C      1  0.5680410000000  0.4785140000000  0.4226530000000 1.0
C      1  0.5419900000000  0.5583580000000  0.4228640000000 1.0
C      1  0.4575000000000  0.5566460000000  0.4218090000000 1.0
C      1  0.4331790000000  0.4786460000000  0.4235510000000 1.0
C      1  0.5479660000000  0.5260340000000  0.4234010000000 1.0
C      1  0.4902130000000  0.5538740000000  0.4230420000000 1.0
C      1  0.4452370000000  0.5079260000000  0.4221770000000 1.0
C      1  0.4768470000000  0.4500530000000  0.4241840000000 1.0
C      1  0.5398970000000  0.4623360000000  0.4225670000000 1.0
END
