TITL C-2782239-8622-205 0.00529124907805513 125000 -485.001175137474 0 0 83 (C1) n - 1
REM
REM in /home/nfs/bkarasulu/CARBON/AIRSS/Generating-Clusters/REBO/Higher-Symm/SD-CG/HFTN-CG
REM
REM
REM
REM
REM
REM ./C.cell (12c818d87b63d06a65506943cc24bca4)
REM
REM compiler GCC version 9.2.1 20190827 (Red Hat 9.2.1-1)
REM options -cpp -mtune=generic -march=x86-64 -g -O0 -fpre-include=/usr/include/finclude/math-vector-fortran.h
REM seed 1496419615 -758038706 13632914 -565855063 2109325025 -1698175982 -1648711846 -1778346557 1282663425 2143701414 368859522 1547878691 -513198471 -906447306 1002783467 -1218083729 393629066 421188378 1403844086 570364428 799201313 -820970651 1621647539 -74322521 -35421367 89094547 -1003142527 -1215782081 1277682841 -2099082635 590114699 741518511 538330314
REM
CELL 1.54180   50.00000   50.00000   50.00000   90.00000   90.00000   90.00000
LATT -1
SFAC C  
C      1  0.5441900000000  0.4603320000000  0.4491590000000 1.0
C      1  0.4572820000000  0.4629310000000  0.4531080000000 1.0
C      1  0.5085920000000  0.5143100000000  0.5816560000000 1.0
C      1  0.4751310000000  0.5171980000000  0.5966950000000 1.0
C      1  0.4738760000000  0.5909220000000  0.4999990000000 1.0
C      1  0.5267150000000  0.5901250000000  0.4919410000000 1.0
C      1  0.5260670000000  0.4186980000000  0.4792510000000 1.0
C      1  0.4759360000000  0.4210570000000  0.4809360000000 1.0
C      1  0.4094440000000  0.5257510000000  0.4365420000000 1.0
C      1  0.5931800000000  0.5130520000000  0.4300610000000 1.0
C      1  0.5466050000000  0.5371860000000  0.4394890000000 1.0
C      1  0.4618550000000  0.5386200000000  0.4502750000000 1.0
C      1  0.4644080000000  0.4604140000000  0.5439010000000 1.0
C      1  0.5442640000000  0.4573300000000  0.5410630000000 1.0
C      1  0.5339070000000  0.4312880000000  0.5325760000000 1.0
C      1  0.4730400000000  0.4339020000000  0.5349830000000 1.0
C      1  0.4205980000000  0.5248940000000  0.5323370000000 1.0
C      1  0.5656280000000  0.5315640000000  0.5238640000000 1.0
C      1  0.5324940000000  0.5580330000000  0.4509700000000 1.0
C      1  0.4844880000000  0.5626530000000  0.4593540000000 1.0
C      1  0.5417340000000  0.4282610000000  0.5025380000000 1.0
C      1  0.4626640000000  0.4305600000000  0.5057280000000 1.0
C      1  0.4347940000000  0.5174910000000  0.4504530000000 1.0
C      1  0.5696000000000  0.5129010000000  0.4442390000000 1.0
C      1  0.5508440000000  0.4710000000000  0.5165210000000 1.0
C      1  0.4543650000000  0.4731020000000  0.5199890000000 1.0
C      1  0.4411580000000  0.5319170000000  0.5488590000000 1.0
C      1  0.5494010000000  0.5375160000000  0.5410410000000 1.0
C      1  0.4715750000000  0.4829580000000  0.4357790000000 1.0
C      1  0.5290910000000  0.4812200000000  0.4341120000000 1.0
C      1  0.5319840000000  0.5032040000000  0.5515330000000 1.0
C      1  0.4815550000000  0.5053660000000  0.5462000000000 1.0
C      1  0.5676250000000  0.5520420000000  0.4898060000000 1.0
C      1  0.4331800000000  0.5515300000000  0.4897070000000 1.0
C      1  0.4319210000000  0.5004640000000  0.4767360000000 1.0
C      1  0.5691790000000  0.4989620000000  0.4717520000000 1.0
C      1  0.4619000000000  0.5090340000000  0.4340440000000 1.0
C      1  0.5378330000000  0.5071750000000  0.4362300000000 1.0
C      1  0.5315220000000  0.5372780000000  0.4984730000000 1.0
C      1  0.4685390000000  0.5344500000000  0.4821440000000 1.0
C      1  0.4754800000000  0.4412820000000  0.4606690000000 1.0
C      1  0.5271690000000  0.4373320000000  0.4575270000000 1.0
C      1  0.5228280000000  0.5357410000000  0.5593300000000 1.0
C      1  0.4689830000000  0.5308420000000  0.5503110000000 1.0
C      1  0.5797180000000  0.5209380000000  0.4953350000000 1.0
C      1  0.4245500000000  0.5222680000000  0.5019990000000 1.0
C      1  0.5582590000000  0.4532710000000  0.4946600000000 1.0
C      1  0.4449610000000  0.4551610000000  0.4990180000000 1.0
C      1  0.5092610000000  0.4812970000000  0.5760320000000 1.0
C      1  0.4791800000000  0.4886890000000  0.5900860000000 1.0
C      1  0.5381040000000  0.4759540000000  0.5612170000000 1.0
C      1  0.4722000000000  0.4817860000000  0.5613720000000 1.0
C      1  0.5623320000000  0.4682740000000  0.4700230000000 1.0
C      1  0.4392310000000  0.4699410000000  0.4743040000000 1.0
C      1  0.5329630000000  0.4914290000000  0.5076830000000 1.0
C      1  0.4715180000000  0.4934420000000  0.5094470000000 1.0
C      1  0.4552940000000  0.5133980000000  0.4954980000000 1.0
C      1  0.5473590000000  0.5131310000000  0.4927440000000 1.0
C      1  0.4607150000000  0.5677170000000  0.4833820000000 1.0
C      1  0.5382050000000  0.5631410000000  0.4806250000000 1.0
C      1  0.5002950000000  0.4038770000000  0.4811850000000 1.0
C      1  0.5001820000000  0.3824210000000  0.5025350000000 1.0
C      1  0.4958370000000  0.5657010000000  0.5218580000000 1.0
C      1  0.5033090000000  0.5936790000000  0.5082720000000 1.0
C      1  0.5024940000000  0.4576810000000  0.5220710000000 1.0
C      1  0.5021980000000  0.4542450000000  0.4570060000000 1.0
C      1  0.4928920000000  0.5659640000000  0.5977790000000 1.0
C      1  0.5006890000000  0.4827600000000  0.5048620000000 1.0
C      1  0.4943820000000  0.5509130000000  0.5483140000000 1.0
C      1  0.4986000000000  0.5582780000000  0.4907490000000 1.0
C      1  0.5036810000000  0.4251520000000  0.5471070000000 1.0
C      1  0.4999400000000  0.4768140000000  0.4348710000000 1.0
C      1  0.5116860000000  0.5298960000000  0.5155990000000 1.0
C      1  0.5074890000000  0.5088490000000  0.5342420000000 1.0
C      1  0.5034580000000  0.4586210000000  0.5523760000000 1.0
C      1  0.4906340000000  0.5434020000000  0.5814710000000 1.0
C      1  0.5033830000000  0.5747460000000  0.4146310000000 1.0
C      1  0.5025130000000  0.4053150000000  0.5210190000000 1.0
C      1  0.5024970000000  0.4332520000000  0.5081030000000 1.0
C      1  0.5060460000000  0.4813480000000  0.4741080000000 1.0
C      1  0.5075560000000  0.5666220000000  0.4406830000000 1.0
C      1  0.5091610000000  0.5064040000000  0.4640540000000 1.0
C      1  0.4998520000000  0.5297210000000  0.4755000000000 1.0
END
