TITL C-2782225-7408-894 0.16419946034138 125000 -965.639314379137 0 0 166 (C1) n - 1
REM
REM in /home/nfs/bkarasulu/CARBON/AIRSS/Generating-Clusters/REBO/Higher-Symm/SD-CG/HFTN-CG
REM
REM
REM
REM
REM
REM ./C.cell (12c818d87b63d06a65506943cc24bca4)
REM
REM compiler GCC version 9.2.1 20190827 (Red Hat 9.2.1-1)
REM options -cpp -mtune=generic -march=x86-64 -g -O0 -fpre-include=/usr/include/finclude/math-vector-fortran.h
REM seed -2100545025 -102235545 -1981995157 -2128741345 -95170643 48729735 -261297906 203541810 -560468333 622070395 1494864405 -668896689 1284333095 -1811805187 -2096125197 515832078 -1182104162 -1931063677 241548004 1291385406 -1795287647 499171863 607500564 467792736 2038873965 -2039117705 719818985 -1469877339 -1905626033 -2005237094 1346890492 1603187294 -1711158308
REM
CELL 1.54180   50.00000   50.00000   50.00000   90.00000   90.00000   90.00000
LATT -1
SFAC C  
C      1  0.5045780000000  0.5069810000000  0.4710560000000 1.0
C      1  0.4471640000000  0.5121380000000  0.5154920000000 1.0
C      1  0.5168350000000  0.4950510000000  0.5241680000000 1.0
C      1  0.4999820000000  0.4887990000000  0.5454860000000 1.0
C      1  0.4562960000000  0.4973330000000  0.4899960000000 1.0
C      1  0.5307510000000  0.4912800000000  0.4724740000000 1.0
C      1  0.5807390000000  0.5696110000000  0.4964580000000 1.0
C      1  0.4593110000000  0.5599940000000  0.4258960000000 1.0
C      1  0.4606900000000  0.5666320000000  0.5697560000000 1.0
C      1  0.5869350000000  0.4371180000000  0.5013960000000 1.0
C      1  0.4617890000000  0.4376180000000  0.5758070000000 1.0
C      1  0.4654200000000  0.4361140000000  0.4271210000000 1.0
C      1  0.4938280000000  0.6242650000000  0.5415820000000 1.0
C      1  0.5313720000000  0.6291330000000  0.5288470000000 1.0
C      1  0.4762680000000  0.6062900000000  0.4890460000000 1.0
C      1  0.4802200000000  0.3707250000000  0.4561920000000 1.0
C      1  0.5369570000000  0.3753980000000  0.4953650000000 1.0
C      1  0.4734300000000  0.3844760000000  0.5224420000000 1.0
C      1  0.5673030000000  0.4979520000000  0.5676020000000 1.0
C      1  0.5298330000000  0.5029970000000  0.4072710000000 1.0
C      1  0.4021380000000  0.5101290000000  0.5167480000000 1.0
C      1  0.5579160000000  0.4952680000000  0.4345830000000 1.0
C      1  0.5336190000000  0.4870870000000  0.5896670000000 1.0
C      1  0.4049780000000  0.4915830000000  0.4667830000000 1.0
C      1  0.5060920000000  0.5592840000000  0.5395720000000 1.0
C      1  0.5339820000000  0.5742500000000  0.4920920000000 1.0
C      1  0.4750810000000  0.5519410000000  0.4702250000000 1.0
C      1  0.4925880000000  0.4318550000000  0.4729640000000 1.0
C      1  0.5345190000000  0.4354990000000  0.5160220000000 1.0
C      1  0.4292300000000  0.4204260000000  0.5432800000000 1.0
C      1  0.5031390000000  0.4504790000000  0.5568220000000 1.0
C      1  0.5387620000000  0.4531560000000  0.4805180000000 1.0
C      1  0.4540900000000  0.4430970000000  0.4756710000000 1.0
C      1  0.5098470000000  0.5567300000000  0.4511480000000 1.0
C      1  0.5435270000000  0.5475260000000  0.5327820000000 1.0
C      1  0.4559620000000  0.5640990000000  0.5209980000000 1.0
C      1  0.4893550000000  0.5308350000000  0.4519100000000 1.0
C      1  0.4633800000000  0.5332960000000  0.5340180000000 1.0
C      1  0.5557010000000  0.5336510000000  0.5094670000000 1.0
C      1  0.4762760000000  0.4673240000000  0.5493600000000 1.0
C      1  0.4613020000000  0.4740790000000  0.4670730000000 1.0
C      1  0.5524950000000  0.4788140000000  0.4925980000000 1.0
C      1  0.4796360000000  0.3964680000000  0.4605240000000 1.0
C      1  0.4765690000000  0.4069840000000  0.5381950000000 1.0
C      1  0.5426770000000  0.4046450000000  0.4895510000000 1.0
C      1  0.4893680000000  0.5985180000000  0.5382710000000 1.0
C      1  0.4833200000000  0.5945720000000  0.4625730000000 1.0
C      1  0.5315200000000  0.6032450000000  0.5371340000000 1.0
C      1  0.4674320000000  0.4134110000000  0.4855850000000 1.0
C      1  0.5019340000000  0.4228430000000  0.5366580000000 1.0
C      1  0.5189550000000  0.4279790000000  0.4866580000000 1.0
C      1  0.4787870000000  0.5860020000000  0.5128250000000 1.0
C      1  0.5117040000000  0.5795450000000  0.4734640000000 1.0
C      1  0.5280940000000  0.5750590000000  0.5224060000000 1.0
C      1  0.4034710000000  0.4774760000000  0.5265720000000 1.0
C      1  0.5744410000000  0.4711370000000  0.5692690000000 1.0
C      1  0.5309350000000  0.4739700000000  0.4060540000000 1.0
C      1  0.4111260000000  0.5233130000000  0.4648040000000 1.0
C      1  0.5652010000000  0.5285440000000  0.4394590000000 1.0
C      1  0.5226230000000  0.5180830000000  0.5912880000000 1.0
C      1  0.5294750000000  0.4099470000000  0.5518800000000 1.0
C      1  0.5386660000000  0.4121110000000  0.4557680000000 1.0
C      1  0.4355780000000  0.4152540000000  0.4973380000000 1.0
C      1  0.5126350000000  0.5958810000000  0.4446790000000 1.0
C      1  0.5403570000000  0.5879440000000  0.5613070000000 1.0
C      1  0.4239300000000  0.5927830000000  0.4919630000000 1.0
C      1  0.4392680000000  0.4481630000000  0.4295290000000 1.0
C      1  0.4782860000000  0.4509700000000  0.5948830000000 1.0
C      1  0.5965480000000  0.4507350000000  0.4776620000000 1.0
C      1  0.4336910000000  0.5574450000000  0.5581070000000 1.0
C      1  0.4756250000000  0.5486050000000  0.4048150000000 1.0
C      1  0.5900060000000  0.5517070000000  0.5190850000000 1.0
C      1  0.5948240000000  0.5258240000000  0.5068550000000 1.0
C      1  0.4700350000000  0.5206810000000  0.4027860000000 1.0
C      1  0.4391600000000  0.5325780000000  0.5733770000000 1.0
C      1  0.6046340000000  0.4779320000000  0.4816680000000 1.0
C      1  0.4699540000000  0.4783930000000  0.5984750000000 1.0
C      1  0.4387050000000  0.4751960000000  0.4205290000000 1.0
C      1  0.5580980000000  0.4636380000000  0.4347070000000 1.0
C      1  0.4157660000000  0.4610370000000  0.4775460000000 1.0
C      1  0.5344400000000  0.4546090000000  0.5859620000000 1.0
C      1  0.5595450000000  0.5311720000000  0.5654820000000 1.0
C      1  0.4069900000000  0.5409840000000  0.5119160000000 1.0
C      1  0.5290680000000  0.5369890000000  0.4076170000000 1.0
C      1  0.4908650000000  0.5392920000000  0.5216130000000 1.0
C      1  0.5088990000000  0.5373060000000  0.4860130000000 1.0
C      1  0.4877280000000  0.5592330000000  0.4975140000000 1.0
C      1  0.4886180000000  0.4618870000000  0.4762330000000 1.0
C      1  0.5053670000000  0.4495580000000  0.5173750000000 1.0
C      1  0.4974090000000  0.4689550000000  0.5009910000000 1.0
C      1  0.5342450000000  0.4449360000000  0.4189190000000 1.0
C      1  0.4058250000000  0.4527400000000  0.5092180000000 1.0
C      1  0.5609300000000  0.4432090000000  0.5673040000000 1.0
C      1  0.5346950000000  0.5450520000000  0.5848000000000 1.0
C      1  0.4088990000000  0.5484310000000  0.4786500000000 1.0
C      1  0.5484470000000  0.5493630000000  0.4275730000000 1.0
C      1  0.5135240000000  0.4225990000000  0.5744640000000 1.0
C      1  0.5568280000000  0.4329190000000  0.4652660000000 1.0
C      1  0.4327870000000  0.4179820000000  0.4664550000000 1.0
C      1  0.5151970000000  0.5712450000000  0.4228340000000 1.0
C      1  0.5598710000000  0.5692680000000  0.5534800000000 1.0
C      1  0.4297130000000  0.5847830000000  0.5183400000000 1.0
C      1  0.5514910000000  0.4575180000000  0.5312720000000 1.0
C      1  0.5041750000000  0.4654680000000  0.4351260000000 1.0
C      1  0.4493400000000  0.4636510000000  0.5317940000000 1.0
C      1  0.5514780000000  0.5466620000000  0.4818880000000 1.0
C      1  0.4997670000000  0.5392220000000  0.5662930000000 1.0
C      1  0.4471700000000  0.5388760000000  0.4737590000000 1.0
C      1  0.4702060000000  0.4926640000000  0.5712250000000 1.0
C      1  0.5808510000000  0.4945190000000  0.4862670000000 1.0
C      1  0.4530000000000  0.4922190000000  0.4404990000000 1.0
C      1  0.4756430000000  0.5088460000000  0.4297060000000 1.0
C      1  0.5700740000000  0.5062280000000  0.5153250000000 1.0
C      1  0.4497020000000  0.5102880000000  0.5552480000000 1.0
C      1  0.5626340000000  0.4186550000000  0.5135440000000 1.0
C      1  0.4910530000000  0.4213430000000  0.4420740000000 1.0
C      1  0.4556200000000  0.4178150000000  0.5541010000000 1.0
C      1  0.5599090000000  0.5845010000000  0.4740270000000 1.0
C      1  0.4906590000000  0.5779260000000  0.5620620000000 1.0
C      1  0.4564850000000  0.5749060000000  0.4555160000000 1.0
C      1  0.4547720000000  0.5366930000000  0.5955790000000 1.0
C      1  0.5999120000000  0.5289590000000  0.4797400000000 1.0
C      1  0.4531960000000  0.5061130000000  0.3857970000000 1.0
C      1  0.4374550000000  0.4853040000000  0.3943740000000 1.0
C      1  0.6304780000000  0.4873300000000  0.4818030000000 1.0
C      1  0.4646300000000  0.4912130000000  0.6222180000000 1.0
C      1  0.4263840000000  0.5727770000000  0.4713640000000 1.0
C      1  0.5211150000000  0.5714100000000  0.5758370000000 1.0
C      1  0.5430480000000  0.5781210000000  0.4451910000000 1.0
C      1  0.4205580000000  0.4283440000000  0.5174830000000 1.0
C      1  0.5219600000000  0.4229130000000  0.4343640000000 1.0
C      1  0.5554010000000  0.4211640000000  0.5469190000000 1.0
C      1  0.5810560000000  0.5491760000000  0.5461020000000 1.0
C      1  0.5036950000000  0.5538840000000  0.4016370000000 1.0
C      1  0.4185520000000  0.5619090000000  0.5344830000000 1.0
C      1  0.5797480000000  0.4469730000000  0.4541660000000 1.0
C      1  0.5056390000000  0.4428220000000  0.5959970000000 1.0
C      1  0.4222530000000  0.4423950000000  0.4523330000000 1.0
C      1  0.5599940000000  0.5074440000000  0.4657880000000 1.0
C      1  0.4411090000000  0.5083590000000  0.4636190000000 1.0
C      1  0.4988780000000  0.5077680000000  0.5704830000000 1.0
C      1  0.5450660000000  0.4864630000000  0.5219620000000 1.0
C      1  0.4325570000000  0.4915340000000  0.5345960000000 1.0
C      1  0.5017070000000  0.4952480000000  0.4395070000000 1.0
C      1  0.5863170000000  0.5623140000000  0.4426060000000 1.0
C      1  0.4231760000000  0.5250530000000  0.4268230000000 1.0
C      1  0.4969740000000  0.5613470000000  0.6117950000000 1.0
C      1  0.6022800000000  0.4592130000000  0.5433390000000 1.0
C      1  0.4168710000000  0.4623490000000  0.5729370000000 1.0
C      1  0.4934500000000  0.4524800000000  0.3891570000000 1.0
C      1  0.5310200000000  0.5345330000000  0.4601840000000 1.0
C      1  0.4393260000000  0.5414140000000  0.5034330000000 1.0
C      1  0.5273020000000  0.5272890000000  0.5502490000000 1.0
C      1  0.5321900000000  0.4676900000000  0.5547960000000 1.0
C      1  0.4394950000000  0.4715880000000  0.5006380000000 1.0
C      1  0.5297720000000  0.4664440000000  0.4521200000000 1.0
C      1  0.4830790000000  0.5509590000000  0.5902790000000 1.0
C      1  0.5814500000000  0.5517260000000  0.4675230000000 1.0
C      1  0.4402220000000  0.5414330000000  0.4411930000000 1.0
C      1  0.4890900000000  0.4515410000000  0.4159730000000 1.0
C      1  0.5810360000000  0.4512430000000  0.5276150000000 1.0
C      1  0.4406120000000  0.4541020000000  0.5615600000000 1.0
C      1  0.5361760000000  0.4996540000000  0.5586570000000 1.0
C      1  0.5288100000000  0.5128640000000  0.4392550000000 1.0
C      1  0.4169110000000  0.4965710000000  0.4946030000000 1.0
C      1  0.5088010000000  0.5161570000000  0.5097470000000 1.0
END
