TITL C-2782233-7966-1450 0.0050910549582658 125000 -974.085761825602 0 0 169 (C1) n - 1
REM
REM in /home/nfs/bkarasulu/CARBON/AIRSS/Generating-Clusters/REBO/Higher-Symm/SD-CG/HFTN-CG
REM
REM
REM
REM
REM
REM ./C.cell (12c818d87b63d06a65506943cc24bca4)
REM
REM compiler GCC version 9.2.1 20190827 (Red Hat 9.2.1-1)
REM options -cpp -mtune=generic -march=x86-64 -g -O0 -fpre-include=/usr/include/finclude/math-vector-fortran.h
REM seed -1798039116 317129537 1161385936 -1409491498 -957224703 1646167479 1681650229 -837185487 1142866272 -2022544349 1082404179 -360985022 -1612774644 475618408 507315503 838016684 341977667 1768324437 210036707 -1222152328 18327075 -591479001 1978822467 -633130122 953412470 712948371 608167046 -1835523348 1346573191 -557544461 1570543430 2116866328 -61114816
REM
CELL 1.54180   50.00000   50.00000   50.00000   90.00000   90.00000   90.00000
LATT -1
SFAC C  
C      1  0.5764190000000  0.5462250000000  0.5488460000000 1.0
C      1  0.4793910000000  0.5796470000000  0.4457770000000 1.0
C      1  0.4732670000000  0.5925220000000  0.4751890000000 1.0
C      1  0.5574880000000  0.4947710000000  0.5959090000000 1.0
C      1  0.4678980000000  0.4533060000000  0.6001620000000 1.0
C      1  0.4617230000000  0.4751670000000  0.4646610000000 1.0
C      1  0.5445030000000  0.5260600000000  0.5105710000000 1.0
C      1  0.4952680000000  0.4815430000000  0.4847890000000 1.0
C      1  0.4606960000000  0.5437900000000  0.4114240000000 1.0
C      1  0.5244930000000  0.6015710000000  0.5329240000000 1.0
C      1  0.4345910000000  0.4239080000000  0.4742510000000 1.0
C      1  0.5269080000000  0.4634480000000  0.3847290000000 1.0
C      1  0.5722740000000  0.5655530000000  0.5252030000000 1.0
C      1  0.4852230000000  0.5271570000000  0.3938210000000 1.0
C      1  0.4571630000000  0.4030060000000  0.4770970000000 1.0
C      1  0.5392750000000  0.4864930000000  0.4018880000000 1.0
C      1  0.5078910000000  0.5718690000000  0.4321150000000 1.0
C      1  0.4223400000000  0.4749040000000  0.4380260000000 1.0
C      1  0.5717430000000  0.4214440000000  0.5370720000000 1.0
C      1  0.5021240000000  0.4903120000000  0.6159640000000 1.0
C      1  0.5579420000000  0.5505300000000  0.4973380000000 1.0
C      1  0.5595520000000  0.4728140000000  0.4658540000000 1.0
C      1  0.5133160000000  0.5696820000000  0.5119970000000 1.0
C      1  0.5040380000000  0.4051870000000  0.4945520000000 1.0
C      1  0.5150220000000  0.5196600000000  0.5249400000000 1.0
C      1  0.5907340000000  0.4322980000000  0.5163830000000 1.0
C      1  0.5482100000000  0.4819800000000  0.5178000000000 1.0
C      1  0.5568260000000  0.5122070000000  0.4595050000000 1.0
C      1  0.5140240000000  0.5426250000000  0.5978800000000 1.0
C      1  0.4205910000000  0.4727590000000  0.4885750000000 1.0
C      1  0.3976330000000  0.5222980000000  0.4712530000000 1.0
C      1  0.5150900000000  0.4399930000000  0.5177380000000 1.0
C      1  0.3727440000000  0.4655150000000  0.5236530000000 1.0
C      1  0.5057710000000  0.5223260000000  0.4278060000000 1.0
C      1  0.4738190000000  0.4548390000000  0.4893490000000 1.0
C      1  0.5135910000000  0.4754150000000  0.5921770000000 1.0
C      1  0.5906940000000  0.5172930000000  0.5380780000000 1.0
C      1  0.4613690000000  0.5460050000000  0.5197300000000 1.0
C      1  0.4737050000000  0.5749840000000  0.5110480000000 1.0
C      1  0.5536120000000  0.4433730000000  0.5089620000000 1.0
C      1  0.5539150000000  0.5149800000000  0.4045130000000 1.0
C      1  0.5148940000000  0.5101830000000  0.3977190000000 1.0
C      1  0.5503130000000  0.5269390000000  0.5425110000000 1.0
C      1  0.5281330000000  0.4872030000000  0.5645170000000 1.0
C      1  0.4944120000000  0.4888150000000  0.4094540000000 1.0
C      1  0.5691830000000  0.5383790000000  0.4490530000000 1.0
C      1  0.5129740000000  0.5263160000000  0.4748410000000 1.0
C      1  0.4332440000000  0.5227460000000  0.4133770000000 1.0
C      1  0.4148260000000  0.5195330000000  0.4420310000000 1.0
C      1  0.6044300000000  0.4907890000000  0.4602990000000 1.0
C      1  0.4890720000000  0.5043290000000  0.4638750000000 1.0
C      1  0.4885110000000  0.5531300000000  0.5953090000000 1.0
C      1  0.4592980000000  0.5057210000000  0.4017050000000 1.0
C      1  0.4530000000000  0.5152740000000  0.5586830000000 1.0
C      1  0.5725250000000  0.5002310000000  0.5580710000000 1.0
C      1  0.4524030000000  0.4496390000000  0.4445600000000 1.0
C      1  0.5567910000000  0.4690900000000  0.4254670000000 1.0
C      1  0.4531160000000  0.4239320000000  0.5243650000000 1.0
C      1  0.4632230000000  0.4163590000000  0.5535020000000 1.0
C      1  0.4741030000000  0.4033280000000  0.4548440000000 1.0
C      1  0.4916760000000  0.4683700000000  0.5675580000000 1.0
C      1  0.4301400000000  0.5515000000000  0.5320710000000 1.0
C      1  0.5765920000000  0.5781470000000  0.4699610000000 1.0
C      1  0.5983370000000  0.4927790000000  0.5153840000000 1.0
C      1  0.4909570000000  0.5003820000000  0.5710850000000 1.0
C      1  0.4978310000000  0.5181170000000  0.5005730000000 1.0
C      1  0.5240520000000  0.4764460000000  0.4839290000000 1.0
C      1  0.4465490000000  0.4553560000000  0.5314400000000 1.0
C      1  0.4943020000000  0.4404010000000  0.4163830000000 1.0
C      1  0.5911930000000  0.5555860000000  0.5016110000000 1.0
C      1  0.4670590000000  0.5242340000000  0.5000680000000 1.0
C      1  0.5183320000000  0.5139580000000  0.5827460000000 1.0
C      1  0.5067020000000  0.4200720000000  0.5870050000000 1.0
C      1  0.4071520000000  0.5436800000000  0.4881150000000 1.0
C      1  0.5880940000000  0.5538380000000  0.4621360000000 1.0
C      1  0.4451590000000  0.4777480000000  0.4151050000000 1.0
C      1  0.4505480000000  0.4399210000000  0.5737430000000 1.0
C      1  0.5117800000000  0.4195590000000  0.4324620000000 1.0
C      1  0.5434620000000  0.4363710000000  0.5372170000000 1.0
C      1  0.5383830000000  0.4227770000000  0.4264770000000 1.0
C      1  0.4627730000000  0.4501000000000  0.4122750000000 1.0
C      1  0.5572780000000  0.5207270000000  0.5778870000000 1.0
C      1  0.4266480000000  0.5492760000000  0.4312970000000 1.0
C      1  0.5659670000000  0.4165230000000  0.4978460000000 1.0
C      1  0.4280630000000  0.5353640000000  0.5596780000000 1.0
C      1  0.5350470000000  0.6005220000000  0.4998370000000 1.0
C      1  0.4078190000000  0.5195500000000  0.5403570000000 1.0
C      1  0.5296110000000  0.4485490000000  0.4897510000000 1.0
C      1  0.5023260000000  0.5958440000000  0.4926430000000 1.0
C      1  0.5152180000000  0.5567580000000  0.4828410000000 1.0
C      1  0.5459830000000  0.5018170000000  0.4897340000000 1.0
C      1  0.4725100000000  0.4048740000000  0.5035030000000 1.0
C      1  0.4292780000000  0.5604220000000  0.4797860000000 1.0
C      1  0.3993830000000  0.4682720000000  0.4624600000000 1.0
C      1  0.5842160000000  0.4653000000000  0.5221880000000 1.0
C      1  0.5413740000000  0.5907920000000  0.5603310000000 1.0
C      1  0.3934150000000  0.4932830000000  0.4849070000000 1.0
C      1  0.5510980000000  0.4731400000000  0.6057280000000 1.0
C      1  0.5415710000000  0.4571440000000  0.5704110000000 1.0
C      1  0.5620590000000  0.4720510000000  0.5474120000000 1.0
C      1  0.4947140000000  0.4435370000000  0.6067320000000 1.0
C      1  0.5309220000000  0.4807830000000  0.4534130000000 1.0
C      1  0.4844500000000  0.4014900000000  0.5338840000000 1.0
C      1  0.4548880000000  0.5683060000000  0.4315940000000 1.0
C      1  0.5337890000000  0.5715720000000  0.4457500000000 1.0
C      1  0.4429620000000  0.5806810000000  0.5263750000000 1.0
C      1  0.4303130000000  0.5113070000000  0.4913690000000 1.0
C      1  0.4165610000000  0.4868760000000  0.5387430000000 1.0
C      1  0.4214960000000  0.4440870000000  0.4532980000000 1.0
C      1  0.5668470000000  0.4681010000000  0.4932290000000 1.0
C      1  0.4707950000000  0.5015980000000  0.5329440000000 1.0
C      1  0.5510660000000  0.5528100000000  0.4325660000000 1.0
C      1  0.4687940000000  0.4650500000000  0.5487090000000 1.0
C      1  0.5084650000000  0.5483810000000  0.4076510000000 1.0
C      1  0.4414740000000  0.4745310000000  0.5088240000000 1.0
C      1  0.5447560000000  0.5775700000000  0.5230930000000 1.0
C      1  0.5771300000000  0.4902500000000  0.4430270000000 1.0
C      1  0.5250360000000  0.4281150000000  0.5626000000000 1.0
C      1  0.4944320000000  0.5906290000000  0.5314100000000 1.0
C      1  0.5786580000000  0.5109240000000  0.4168800000000 1.0
C      1  0.5096450000000  0.4463240000000  0.3897960000000 1.0
C      1  0.5435280000000  0.5752140000000  0.4783500000000 1.0
C      1  0.5534730000000  0.4430710000000  0.4399160000000 1.0
C      1  0.4654270000000  0.4930800000000  0.4939650000000 1.0
C      1  0.5495400000000  0.5608680000000  0.5636500000000 1.0
C      1  0.5129640000000  0.4113910000000  0.5352290000000 1.0
C      1  0.4464190000000  0.5824850000000  0.4925310000000 1.0
C      1  0.4400350000000  0.5048560000000  0.5222900000000 1.0
C      1  0.5475340000000  0.6084760000000  0.5791300000000 1.0
C      1  0.4895500000000  0.5572960000000  0.4659620000000 1.0
C      1  0.4630560000000  0.5058760000000  0.5889700000000 1.0
C      1  0.3932050000000  0.4809510000000  0.5165410000000 1.0
C      1  0.4847430000000  0.4350940000000  0.5691310000000 1.0
C      1  0.5324630000000  0.4107860000000  0.4770160000000 1.0
C      1  0.5440890000000  0.5457300000000  0.5930050000000 1.0
C      1  0.4673860000000  0.5870980000000  0.5482570000000 1.0
C      1  0.4405510000000  0.5525660000000  0.5816360000000 1.0
C      1  0.6105290000000  0.5244180000000  0.5122720000000 1.0
C      1  0.4697620000000  0.5649310000000  0.5693280000000 1.0
C      1  0.4619700000000  0.5380480000000  0.5975940000000 1.0
C      1  0.4065750000000  0.5385100000000  0.5155230000000 1.0
C      1  0.4854480000000  0.6215550000000  0.4827700000000 1.0
C      1  0.5251820000000  0.5125440000000  0.4490860000000 1.0
C      1  0.5284350000000  0.4484930000000  0.6012000000000 1.0
C      1  0.5254450000000  0.5374150000000  0.5591510000000 1.0
C      1  0.5536280000000  0.4336460000000  0.4702420000000 1.0
C      1  0.4946280000000  0.4855110000000  0.4379880000000 1.0
C      1  0.6077620000000  0.5043510000000  0.4845880000000 1.0
C      1  0.5397950000000  0.5386380000000  0.4105380000000 1.0
C      1  0.4713180000000  0.5399720000000  0.5485380000000 1.0
C      1  0.4741250000000  0.5192060000000  0.4306950000000 1.0
C      1  0.4310560000000  0.4650470000000  0.5606630000000 1.0
C      1  0.4487690000000  0.4766730000000  0.5874380000000 1.0
C      1  0.4973150000000  0.5253230000000  0.5509330000000 1.0
C      1  0.5350810000000  0.4063730000000  0.5097380000000 1.0
C      1  0.4505080000000  0.4374010000000  0.4959730000000 1.0
C      1  0.4940780000000  0.4856730000000  0.5260380000000 1.0
C      1  0.4911730000000  0.4582410000000  0.5165100000000 1.0
C      1  0.4565540000000  0.4951970000000  0.4401130000000 1.0
C      1  0.6086790000000  0.5381810000000  0.4811860000000 1.0
C      1  0.4707130000000  0.5326560000000  0.4686570000000 1.0
C      1  0.4791910000000  0.5002340000000  0.6173280000000 1.0
C      1  0.4646650000000  0.4197430000000  0.4354030000000 1.0
C      1  0.5085930000000  0.4585630000000  0.4405820000000 1.0
C      1  0.5240770000000  0.4909950000000  0.5356440000000 1.0
C      1  0.4458650000000  0.5484080000000  0.4578800000000 1.0
C      1  0.4792440000000  0.4717430000000  0.3950560000000 1.0
C      1  0.4271920000000  0.4968410000000  0.4639780000000 1.0
C      1  0.5042330000000  0.4067680000000  0.4602310000000 1.0
END
